MODEL 1
REMARK VINA RESULT:      -7.9      0.000      0.000
REMARK  7 active torsions:
REMARK  status: ('A' for Active; 'I' for Inactive)
REMARK    1  A    between atoms: C2_2  and  N1_3 
REMARK    2  A    between atoms: C4_7  and  N4_8 
REMARK    3  A    between atoms: N4_8  and  C5_9 
REMARK    4  A    between atoms: C13_17  and  P1_18 
REMARK    5  A    between atoms: P1_18  and  C14_19 
REMARK    6  A    between atoms: C14_19  and  N5_20 
REMARK    7  A    between atoms: C17_23  and  N6_24 
ROOT
HETATM    1  N1  UNL     1      21.982   0.356  53.370  1.00  0.00    -0.241 N 
HETATM    2  N2  UNL     1      22.120  -0.500  54.466  1.00  0.00    -0.161 NA
HETATM    3  C3  UNL     1      23.294  -0.998  54.764  1.00  0.00     0.258 A 
HETATM    4  N3  UNL     1      24.464  -0.705  54.010  1.00  0.00    -0.220 NA
HETATM    5  C4  UNL     1      24.389   0.081  52.988  1.00  0.00     0.158 A 
HETATM    6  C12 UNL     1      23.124   0.677  52.587  1.00  0.00     0.104 A 
HETATM    7  C13 UNL     1      23.074   1.472  51.547  1.00  0.00     0.041 C 
ENDROOT
BRANCH   1   8
HETATM    8  C2  UNL     1      20.715   0.905  53.034  1.00  0.00     0.108 C 
HETATM    9  C1  UNL     1      19.674   0.069  53.072  1.00  0.00     0.032 C 
ENDBRANCH   1   8
BRANCH   5  10
HETATM   10  N4  UNL     1      25.580   0.332  52.283  1.00  0.00    -0.339 N 
HETATM   11  H5  UNL     1      25.536   0.193  51.238  1.00  0.00     0.167 HD
BRANCH  10  12
HETATM   12  C5  UNL     1      26.806   0.742  52.862  1.00  0.00     0.034 A 
HETATM   13  C6  UNL     1      27.166   1.997  53.280  1.00  0.00     0.029 A 
HETATM   14  C7  UNL     1      28.373   2.329  53.828  1.00  0.00     0.003 A 
HETATM   15  C8  UNL     1      29.334   1.356  53.994  1.00  0.00     0.007 A 
HETATM   16  C9  UNL     1      29.041   0.070  53.594  1.00  0.00    -0.060 A 
HETATM   17  C10 UNL     1      30.059  -1.017  53.755  1.00  0.00     0.048 C 
HETATM   18  C11 UNL     1      27.811  -0.201  53.050  1.00  0.00     0.036 A 
ENDBRANCH  10  12
ENDBRANCH   5  10
BRANCH   7  19
HETATM   19  P1  UNL     1      21.571   2.296  50.921  1.00  0.00    -0.085 P 
HETATM   20  H14 UNL     1      20.830   1.461  50.018  1.00  0.00     0.063 HD
BRANCH  19  21
HETATM   21  C14 UNL     1      21.908   3.993  50.302  1.00  0.00     0.152 C 
BRANCH  21  22
HETATM   22  N5  UNL     1      23.262   4.385  50.585  1.00  0.00    -0.408 N 
HETATM   23  C15 UNL     1      24.091   4.559  49.436  1.00  0.00     0.119 C 
HETATM   24  C16 UNL     1      25.388   5.216  49.924  1.00  0.00     0.055 C 
HETATM   25  C17 UNL     1      25.005   6.665  50.200  1.00  0.00     0.221 C 
HETATM   26  C18 UNL     1      23.791   6.743  51.068  1.00  0.00     0.055 C 
HETATM   27  C19 UNL     1      23.402   5.392  51.586  1.00  0.00     0.119 C 
BRANCH  25  28
HETATM   28  N6  UNL     1      26.155   7.381  50.743  1.00  0.00     0.083 N 
HETATM   29  H22 UNL     1      27.003   6.803  50.491  1.00  0.00     0.313 HD
HETATM   30  H23 UNL     1      26.068   7.258  51.793  1.00  0.00     0.313 HD
ENDBRANCH  25  28
ENDBRANCH  21  22
ENDBRANCH  19  21
ENDBRANCH   7  19
TORSDOF 7
ENDMDL
MODEL 2
REMARK VINA RESULT:      -7.9      1.384      2.174
REMARK  7 active torsions:
REMARK  status: ('A' for Active; 'I' for Inactive)
REMARK    1  A    between atoms: C2_2  and  N1_3 
REMARK    2  A    between atoms: C4_7  and  N4_8 
REMARK    3  A    between atoms: N4_8  and  C5_9 
REMARK    4  A    between atoms: C13_17  and  P1_18 
REMARK    5  A    between atoms: P1_18  and  C14_19 
REMARK    6  A    between atoms: C14_19  and  N5_20 
REMARK    7  A    between atoms: C17_23  and  N6_24 
ROOT
HETATM    1  N1  UNL     1      21.516  -0.255  53.726  1.00  0.00    -0.241 N 
HETATM    2  N2  UNL     1      21.641  -1.039  54.876  1.00  0.00    -0.161 NA
HETATM    3  C3  UNL     1      22.830  -1.356  55.325  1.00  0.00     0.258 A 
HETATM    4  N3  UNL     1      24.028  -0.934  54.686  1.00  0.00    -0.220 NA
HETATM    5  C4  UNL     1      23.966  -0.207  53.620  1.00  0.00     0.158 A 
HETATM    6  C12 UNL     1      22.685   0.190  53.054  1.00  0.00     0.104 A 
HETATM    7  C13 UNL     1      22.649   0.929  51.972  1.00  0.00     0.041 C 
ENDROOT
BRANCH   1   8
HETATM    8  C2  UNL     1      20.233   0.099  53.226  1.00  0.00     0.108 C 
HETATM    9  C1  UNL     1      19.264  -0.809  53.375  1.00  0.00     0.032 C 
ENDBRANCH   1   8
BRANCH   5  10
HETATM   10  N4  UNL     1      25.184   0.179  53.034  1.00  0.00    -0.339 N 
HETATM   11  H5  UNL     1      25.197   1.130  52.579  1.00  0.00     0.167 HD
BRANCH  10  12
HETATM   12  C5  UNL     1      26.366  -0.602  53.005  1.00  0.00     0.034 A 
HETATM   13  C6  UNL     1      26.499  -1.921  52.658  1.00  0.00     0.029 A 
HETATM   14  C7  UNL     1      27.673  -2.621  52.656  1.00  0.00     0.003 A 
HETATM   15  C8  UNL     1      28.841  -1.990  53.026  1.00  0.00     0.007 A 
HETATM   16  C9  UNL     1      28.781  -0.661  53.389  1.00  0.00    -0.060 A 
HETATM   17  C10 UNL     1      30.028   0.062  53.798  1.00  0.00     0.048 C 
HETATM   18  C11 UNL     1      27.571  -0.013  53.370  1.00  0.00     0.036 A 
ENDBRANCH  10  12
ENDBRANCH   5  10
BRANCH   7  19
HETATM   19  P1  UNL     1      21.130   1.510  51.143  1.00  0.00    -0.085 P 
HETATM   20  H14 UNL     1      20.168   0.458  50.973  1.00  0.00     0.063 HD
BRANCH  19  21
HETATM   21  C14 UNL     1      21.488   2.483  49.627  1.00  0.00     0.152 C 
BRANCH  21  22
HETATM   22  N5  UNL     1      21.868   3.829  49.957  1.00  0.00    -0.408 N 
HETATM   23  C15 UNL     1      21.317   4.329  51.174  1.00  0.00     0.119 C 
HETATM   24  C16 UNL     1      22.036   5.651  51.473  1.00  0.00     0.055 C 
HETATM   25  C17 UNL     1      23.420   5.237  51.955  1.00  0.00     0.221 C 
HETATM   26  C18 UNL     1      24.054   4.275  51.003  1.00  0.00     0.055 C 
HETATM   27  C19 UNL     1      23.247   4.134  49.750  1.00  0.00     0.119 C 
BRANCH  25  28
HETATM   28  N6  UNL     1      24.229   6.426  52.205  1.00  0.00     0.083 N 
HETATM   29  H22 UNL     1      25.059   6.356  51.555  1.00  0.00     0.313 HD
HETATM   30  H23 UNL     1      24.645   6.263  53.167  1.00  0.00     0.313 HD
ENDBRANCH  25  28
ENDBRANCH  21  22
ENDBRANCH  19  21
ENDBRANCH   7  19
TORSDOF 7
ENDMDL
MODEL 3
REMARK VINA RESULT:      -7.8      2.019      6.017
REMARK  7 active torsions:
REMARK  status: ('A' for Active; 'I' for Inactive)
REMARK    1  A    between atoms: C2_2  and  N1_3 
REMARK    2  A    between atoms: C4_7  and  N4_8 
REMARK    3  A    between atoms: N4_8  and  C5_9 
REMARK    4  A    between atoms: C13_17  and  P1_18 
REMARK    5  A    between atoms: P1_18  and  C14_19 
REMARK    6  A    between atoms: C14_19  and  N5_20 
REMARK    7  A    between atoms: C17_23  and  N6_24 
ROOT
HETATM    1  N1  UNL     1      21.193   1.810  52.449  1.00  0.00    -0.241 N 
HETATM    2  N2  UNL     1      20.181   2.684  52.042  1.00  0.00    -0.161 NA
HETATM    3  C3  UNL     1      20.474   3.920  51.722  1.00  0.00     0.258 A 
HETATM    4  N3  UNL     1      21.800   4.430  51.771  1.00  0.00    -0.220 NA
HETATM    5  C4  UNL     1      22.771   3.663  52.141  1.00  0.00     0.158 A 
HETATM    6  C12 UNL     1      22.533   2.276  52.513  1.00  0.00     0.104 A 
HETATM    7  C13 UNL     1      23.535   1.517  52.884  1.00  0.00     0.041 C 
ENDROOT
BRANCH   1   8
HETATM    8  C2  UNL     1      20.892   0.466  52.799  1.00  0.00     0.108 C 
HETATM    9  C1  UNL     1      19.690   0.010  52.435  1.00  0.00     0.032 C 
ENDBRANCH   1   8
BRANCH   5  10
HETATM   10  N4  UNL     1      24.059   4.225  52.168  1.00  0.00    -0.339 N 
HETATM   11  H5  UNL     1      24.349   4.672  53.078  1.00  0.00     0.167 HD
BRANCH  10  12
HETATM   12  C5  UNL     1      24.972   4.239  51.084  1.00  0.00     0.034 A 
HETATM   13  C6  UNL     1      25.820   3.240  50.681  1.00  0.00     0.029 A 
HETATM   14  C7  UNL     1      26.684   3.319  49.625  1.00  0.00     0.003 A 
HETATM   15  C8  UNL     1      26.741   4.475  48.878  1.00  0.00     0.007 A 
HETATM   16  C9  UNL     1      25.915   5.523  49.229  1.00  0.00    -0.060 A 
HETATM   17  C10 UNL     1      25.947   6.799  48.444  1.00  0.00     0.048 C 
HETATM   18  C11 UNL     1      25.069   5.382  50.300  1.00  0.00     0.036 A 
ENDBRANCH  10  12
ENDBRANCH   5  10
BRANCH   7  19
HETATM   19  P1  UNL     1      23.404  -0.235  53.377  1.00  0.00    -0.085 P 
HETATM   20  H14 UNL     1      22.157  -0.524  54.028  1.00  0.00     0.063 HD
BRANCH  19  21
HETATM   21  C14 UNL     1      24.896  -0.826  54.270  1.00  0.00     0.152 C 
BRANCH  21  22
HETATM   22  N5  UNL     1      26.061  -0.081  53.875  1.00  0.00    -0.408 N 
HETATM   23  C15 UNL     1      26.852   0.416  54.954  1.00  0.00     0.119 C 
HETATM   24  C16 UNL     1      28.155   0.941  54.340  1.00  0.00     0.055 C 
HETATM   25  C17 UNL     1      28.945  -0.312  53.983  1.00  0.00     0.221 C 
HETATM   26  C18 UNL     1      28.111  -1.264  53.189  1.00  0.00     0.055 C 
HETATM   27  C19 UNL     1      26.803  -0.649  52.796  1.00  0.00     0.119 C 
BRANCH  25  28
HETATM   28  N6  UNL     1      30.189   0.065  53.318  1.00  0.00     0.083 N 
HETATM   29  H22 UNL     1      29.929   0.289  52.319  1.00  0.00     0.313 HD
HETATM   30  H23 UNL     1      30.731  -0.844  53.241  1.00  0.00     0.313 HD
ENDBRANCH  25  28
ENDBRANCH  21  22
ENDBRANCH  19  21
ENDBRANCH   7  19
TORSDOF 7
ENDMDL
MODEL 4
REMARK VINA RESULT:      -7.7      2.272      7.458
REMARK  7 active torsions:
REMARK  status: ('A' for Active; 'I' for Inactive)
REMARK    1  A    between atoms: C2_2  and  N1_3 
REMARK    2  A    between atoms: C4_7  and  N4_8 
REMARK    3  A    between atoms: N4_8  and  C5_9 
REMARK    4  A    between atoms: C13_17  and  P1_18 
REMARK    5  A    between atoms: P1_18  and  C14_19 
REMARK    6  A    between atoms: C14_19  and  N5_20 
REMARK    7  A    between atoms: C17_23  and  N6_24 
ROOT
HETATM    1  N1  UNL     1      25.298   4.687  49.834  1.00  0.00    -0.241 N 
HETATM    2  N2  UNL     1      24.690   5.681  49.063  1.00  0.00    -0.161 NA
HETATM    3  C3  UNL     1      23.434   5.991  49.268  1.00  0.00     0.258 A 
HETATM    4  N3  UNL     1      22.640   5.353  50.259  1.00  0.00    -0.220 NA
HETATM    5  C4  UNL     1      23.155   4.428  50.998  1.00  0.00     0.158 A 
HETATM    6  C12 UNL     1      24.543   4.021  50.837  1.00  0.00     0.104 A 
HETATM    7  C13 UNL     1      25.042   3.080  51.600  1.00  0.00     0.041 C 
ENDROOT
BRANCH   1   8
HETATM    8  C2  UNL     1      26.660   4.338  49.625  1.00  0.00     0.108 C 
HETATM    9  C1  UNL     1      27.302   4.998  48.657  1.00  0.00     0.032 C 
ENDBRANCH   1   8
BRANCH   5  10
HETATM   10  N4  UNL     1      22.318   3.834  51.960  1.00  0.00    -0.339 N 
HETATM   11  H5  UNL     1      22.071   4.435  52.791  1.00  0.00     0.167 HD
BRANCH  10  12
HETATM   12  C5  UNL     1      21.802   2.516  51.899  1.00  0.00     0.034 A 
HETATM   13  C6  UNL     1      21.235   1.880  50.825  1.00  0.00     0.029 A 
HETATM   14  C7  UNL     1      20.750   0.602  50.833  1.00  0.00     0.003 A 
HETATM   15  C8  UNL     1      20.815  -0.143  51.990  1.00  0.00     0.007 A 
HETATM   16  C9  UNL     1      21.373   0.435  53.110  1.00  0.00    -0.060 A 
HETATM   17  C10 UNL     1      21.462  -0.340  54.390  1.00  0.00     0.048 C 
HETATM   18  C11 UNL     1      21.843   1.723  53.039  1.00  0.00     0.036 A 
ENDBRANCH  10  12
ENDBRANCH   5  10
BRANCH   7  19
HETATM   19  P1  UNL     1      26.758   2.461  51.523  1.00  0.00    -0.085 P 
HETATM   20  H14 UNL     1      26.926   1.451  50.517  1.00  0.00     0.063 HD
BRANCH  19  21
HETATM   21  C14 UNL     1      27.417   2.019  53.179  1.00  0.00     0.152 C 
BRANCH  21  22
HETATM   22  N5  UNL     1      27.238   0.618  53.448  1.00  0.00    -0.408 N 
HETATM   23  C15 UNL     1      26.804  -0.158  52.332  1.00  0.00     0.119 C 
HETATM   24  C16 UNL     1      26.925  -1.630  52.745  1.00  0.00     0.055 C 
HETATM   25  C17 UNL     1      28.421  -1.919  52.707  1.00  0.00     0.221 C 
HETATM   26  C18 UNL     1      29.186  -0.893  53.479  1.00  0.00     0.055 C 
HETATM   27  C19 UNL     1      28.268   0.019  54.234  1.00  0.00     0.119 C 
BRANCH  25  28
HETATM   28  N6  UNL     1      28.667  -3.286  53.156  1.00  0.00     0.083 N 
HETATM   29  H22 UNL     1      28.630  -3.888  52.289  1.00  0.00     0.313 HD
HETATM   30  H23 UNL     1      27.787  -3.551  53.686  1.00  0.00     0.313 HD
ENDBRANCH  25  28
ENDBRANCH  21  22
ENDBRANCH  19  21
ENDBRANCH   7  19
TORSDOF 7
ENDMDL
MODEL 5
REMARK VINA RESULT:      -7.6      2.125      5.562
REMARK  7 active torsions:
REMARK  status: ('A' for Active; 'I' for Inactive)
REMARK    1  A    between atoms: C2_2  and  N1_3 
REMARK    2  A    between atoms: C4_7  and  N4_8 
REMARK    3  A    between atoms: N4_8  and  C5_9 
REMARK    4  A    between atoms: C13_17  and  P1_18 
REMARK    5  A    between atoms: P1_18  and  C14_19 
REMARK    6  A    between atoms: C14_19  and  N5_20 
REMARK    7  A    between atoms: C17_23  and  N6_24 
ROOT
HETATM    1  N1  UNL     1      26.918   1.268  53.773  1.00  0.00    -0.241 N 
HETATM    2  N2  UNL     1      27.254   0.710  55.009  1.00  0.00    -0.161 NA
HETATM    3  C3  UNL     1      26.532  -0.263  55.506  1.00  0.00     0.258 A 
HETATM    4  N3  UNL     1      25.397  -0.793  54.836  1.00  0.00    -0.220 NA
HETATM    5  C4  UNL     1      25.043  -0.312  53.690  1.00  0.00     0.158 A 
HETATM    6  C12 UNL     1      25.790   0.771  53.067  1.00  0.00     0.104 A 
HETATM    7  C13 UNL     1      25.413   1.241  51.903  1.00  0.00     0.041 C 
ENDROOT
BRANCH   1   8
HETATM    8  C2  UNL     1      27.691   2.325  53.220  1.00  0.00     0.108 C 
HETATM    9  C1  UNL     1      28.921   2.487  53.716  1.00  0.00     0.032 C 
ENDBRANCH   1   8
BRANCH   5  10
HETATM   10  N4  UNL     1      23.912  -0.878  53.077  1.00  0.00    -0.339 N 
HETATM   11  H5  UNL     1      24.077  -1.766  52.533  1.00  0.00     0.167 HD
BRANCH  10  12
HETATM   12  C5  UNL     1      22.598  -0.349  53.130  1.00  0.00     0.034 A 
HETATM   13  C6  UNL     1      21.819  -0.131  54.236  1.00  0.00     0.029 A 
HETATM   14  C7  UNL     1      20.552   0.380  54.218  1.00  0.00     0.003 A 
HETATM   15  C8  UNL     1      19.972   0.717  53.015  1.00  0.00     0.007 A 
HETATM   16  C9  UNL     1      20.699   0.523  51.860  1.00  0.00    -0.060 A 
HETATM   17  C10 UNL     1      20.104   0.875  50.530  1.00  0.00     0.048 C 
HETATM   18  C11 UNL     1      21.967   0.006  51.943  1.00  0.00     0.036 A 
ENDBRANCH  10  12
ENDBRANCH   5  10
BRANCH   7  19
HETATM   19  P1  UNL     1      26.240   2.589  50.993  1.00  0.00    -0.085 P 
HETATM   20  H14 UNL     1      27.465   2.997  51.621  1.00  0.00     0.063 HD
BRANCH  19  21
HETATM   21  C14 UNL     1      25.092   3.961  50.577  1.00  0.00     0.152 C 
BRANCH  21  22
HETATM   22  N5  UNL     1      23.751   3.655  50.995  1.00  0.00    -0.408 N 
HETATM   23  C15 UNL     1      23.215   4.531  51.986  1.00  0.00     0.119 C 
HETATM   24  C16 UNL     1      21.720   4.204  52.101  1.00  0.00     0.055 C 
HETATM   25  C17 UNL     1      21.098   4.806  50.847  1.00  0.00     0.221 C 
HETATM   26  C18 UNL     1      21.834   4.372  49.621  1.00  0.00     0.055 C 
HETATM   27  C19 UNL     1      22.851   3.319  49.938  1.00  0.00     0.119 C 
BRANCH  25  28
HETATM   28  N6  UNL     1      19.672   4.493  50.810  1.00  0.00     0.083 N 
HETATM   29  H22 UNL     1      19.470   3.949  51.692  1.00  0.00     0.313 HD
HETATM   30  H23 UNL     1      19.582   3.769  50.039  1.00  0.00     0.313 HD
ENDBRANCH  25  28
ENDBRANCH  21  22
ENDBRANCH  19  21
ENDBRANCH   7  19
TORSDOF 7
ENDMDL
MODEL 6
REMARK VINA RESULT:      -7.6      2.305      6.300
REMARK  7 active torsions:
REMARK  status: ('A' for Active; 'I' for Inactive)
REMARK    1  A    between atoms: C2_2  and  N1_3 
REMARK    2  A    between atoms: C4_7  and  N4_8 
REMARK    3  A    between atoms: N4_8  and  C5_9 
REMARK    4  A    between atoms: C13_17  and  P1_18 
REMARK    5  A    between atoms: P1_18  and  C14_19 
REMARK    6  A    between atoms: C14_19  and  N5_20 
REMARK    7  A    between atoms: C17_23  and  N6_24 
ROOT
HETATM    1  N1  UNL     1      22.159   1.269  50.369  1.00  0.00    -0.241 N 
HETATM    2  N2  UNL     1      21.575   1.664  49.163  1.00  0.00    -0.161 NA
HETATM    3  C3  UNL     1      22.148   2.586  48.430  1.00  0.00     0.258 A 
HETATM    4  N3  UNL     1      23.363   3.219  48.808  1.00  0.00    -0.220 NA
HETATM    5  C4  UNL     1      23.943   2.890  49.914  1.00  0.00     0.158 A 
HETATM    6  C12 UNL     1      23.374   1.875  50.788  1.00  0.00     0.104 A 
HETATM    7  C13 UNL     1      23.982   1.557  51.905  1.00  0.00     0.041 C 
ENDROOT
BRANCH   1   8
HETATM    8  C2  UNL     1      21.550   0.270  51.177  1.00  0.00     0.108 C 
HETATM    9  C1  UNL     1      20.221   0.330  51.298  1.00  0.00     0.032 C 
ENDBRANCH   1   8
BRANCH   5  10
HETATM   10  N4  UNL     1      25.141   3.552  50.233  1.00  0.00    -0.339 N 
HETATM   11  H5  UNL     1      25.657   3.191  51.079  1.00  0.00     0.167 HD
BRANCH  10  12
HETATM   12  C5  UNL     1      25.690   4.647  49.521  1.00  0.00     0.034 A 
HETATM   13  C6  UNL     1      25.056   5.793  49.115  1.00  0.00     0.029 A 
HETATM   14  C7  UNL     1      25.644   6.815  48.424  1.00  0.00     0.003 A 
HETATM   15  C8  UNL     1      26.977   6.730  48.087  1.00  0.00     0.007 A 
HETATM   16  C9  UNL     1      27.677   5.603  48.463  1.00  0.00    -0.060 A 
HETATM   17  C10 UNL     1      29.128   5.470  48.115  1.00  0.00     0.048 C 
HETATM   18  C11 UNL     1      27.030   4.610  49.156  1.00  0.00     0.036 A 
ENDBRANCH  10  12
ENDBRANCH   5  10
BRANCH   7  19
HETATM   19  P1  UNL     1      23.400   0.309  53.103  1.00  0.00    -0.085 P 
HETATM   20  H14 UNL     1      22.437   0.846  54.022  1.00  0.00     0.063 HD
BRANCH  19  21
HETATM   21  C14 UNL     1      24.785  -0.610  53.885  1.00  0.00     0.152 C 
BRANCH  21  22
HETATM   22  N5  UNL     1      26.035   0.070  53.681  1.00  0.00    -0.408 N 
HETATM   23  C15 UNL     1      26.756   0.376  54.874  1.00  0.00     0.119 C 
HETATM   24  C16 UNL     1      28.148   0.851  54.439  1.00  0.00     0.055 C 
HETATM   25  C17 UNL     1      28.870  -0.420  54.007  1.00  0.00     0.221 C 
HETATM   26  C18 UNL     1      28.045  -1.204  53.039  1.00  0.00     0.055 C 
HETATM   27  C19 UNL     1      26.831  -0.438  52.611  1.00  0.00     0.119 C 
BRANCH  25  28
HETATM   28  N6  UNL     1      30.196  -0.081  53.499  1.00  0.00     0.083 N 
HETATM   29  H22 UNL     1      30.211  -0.396  52.491  1.00  0.00     0.313 HD
HETATM   30  H23 UNL     1      30.846  -0.763  53.988  1.00  0.00     0.313 HD
ENDBRANCH  25  28
ENDBRANCH  21  22
ENDBRANCH  19  21
ENDBRANCH   7  19
TORSDOF 7
ENDMDL
MODEL 7
REMARK VINA RESULT:      -7.5      2.449      6.518
REMARK  7 active torsions:
REMARK  status: ('A' for Active; 'I' for Inactive)
REMARK    1  A    between atoms: C2_2  and  N1_3 
REMARK    2  A    between atoms: C4_7  and  N4_8 
REMARK    3  A    between atoms: N4_8  and  C5_9 
REMARK    4  A    between atoms: C13_17  and  P1_18 
REMARK    5  A    between atoms: P1_18  and  C14_19 
REMARK    6  A    between atoms: C14_19  and  N5_20 
REMARK    7  A    between atoms: C17_23  and  N6_24 
ROOT
HETATM    1  N1  UNL     1      22.428   2.472  49.520  1.00  0.00    -0.241 N 
HETATM    2  N2  UNL     1      21.806   2.733  48.297  1.00  0.00    -0.161 NA
HETATM    3  C3  UNL     1      22.121   3.808  47.619  1.00  0.00     0.258 A 
HETATM    4  N3  UNL     1      23.086   4.746  48.075  1.00  0.00    -0.220 NA
HETATM    5  C4  UNL     1      23.691   4.551  49.200  1.00  0.00     0.158 A 
HETATM    6  C12 UNL     1      23.400   3.382  50.017  1.00  0.00     0.104 A 
HETATM    7  C13 UNL     1      24.028   3.206  51.153  1.00  0.00     0.041 C 
ENDROOT
BRANCH   1   8
HETATM    8  C2  UNL     1      22.099   1.309  50.269  1.00  0.00     0.108 C 
HETATM    9  C1  UNL     1      20.972   0.679  49.925  1.00  0.00     0.032 C 
ENDBRANCH   1   8
BRANCH   5  10
HETATM   10  N4  UNL     1      24.635   5.514  49.597  1.00  0.00    -0.339 N 
HETATM   11  H5  UNL     1      24.316   6.196  50.335  1.00  0.00     0.167 HD
BRANCH  10  12
HETATM   12  C5  UNL     1      25.951   5.634  49.085  1.00  0.00     0.034 A 
HETATM   13  C6  UNL     1      26.945   4.691  49.080  1.00  0.00     0.029 A 
HETATM   14  C7  UNL     1      28.201   4.873  48.572  1.00  0.00     0.003 A 
HETATM   15  C8  UNL     1      28.537   6.085  48.009  1.00  0.00     0.007 A 
HETATM   16  C9  UNL     1      27.584   7.081  47.981  1.00  0.00    -0.060 A 
HETATM   17  C10 UNL     1      27.910   8.414  47.378  1.00  0.00     0.048 C 
HETATM   18  C11 UNL     1      26.341   6.837  48.507  1.00  0.00     0.036 A 
ENDBRANCH  10  12
ENDBRANCH   5  10
BRANCH   7  19
HETATM   19  P1  UNL     1      23.779   1.796  52.287  1.00  0.00    -0.085 P 
HETATM   20  H14 UNL     1      23.391   2.220  53.603  1.00  0.00     0.063 HD
BRANCH  19  21
HETATM   21  C14 UNL     1      25.176   0.605  52.239  1.00  0.00     0.152 C 
BRANCH  21  22
HETATM   22  N5  UNL     1      26.064   0.807  53.351  1.00  0.00    -0.408 N 
HETATM   23  C15 UNL     1      27.084  -0.181  53.495  1.00  0.00     0.119 C 
HETATM   24  C16 UNL     1      28.062   0.345  54.553  1.00  0.00     0.055 C 
HETATM   25  C17 UNL     1      28.848   1.439  53.840  1.00  0.00     0.221 C 
HETATM   26  C18 UNL     1      27.930   2.407  53.168  1.00  0.00     0.055 C 
HETATM   27  C19 UNL     1      26.501   2.153  53.537  1.00  0.00     0.119 C 
BRANCH  25  28
HETATM   28  N6  UNL     1      29.771   2.068  54.779  1.00  0.00     0.083 N 
HETATM   29  H22 UNL     1      29.223   2.833  55.259  1.00  0.00     0.313 HD
HETATM   30  H23 UNL     1      30.454   2.596  54.161  1.00  0.00     0.313 HD
ENDBRANCH  25  28
ENDBRANCH  21  22
ENDBRANCH  19  21
ENDBRANCH   7  19
TORSDOF 7
ENDMDL
MODEL 8
REMARK VINA RESULT:      -7.5      2.204      5.727
REMARK  7 active torsions:
REMARK  status: ('A' for Active; 'I' for Inactive)
REMARK    1  A    between atoms: C2_2  and  N1_3 
REMARK    2  A    between atoms: C4_7  and  N4_8 
REMARK    3  A    between atoms: N4_8  and  C5_9 
REMARK    4  A    between atoms: C13_17  and  P1_18 
REMARK    5  A    between atoms: P1_18  and  C14_19 
REMARK    6  A    between atoms: C14_19  and  N5_20 
REMARK    7  A    between atoms: C17_23  and  N6_24 
ROOT
HETATM    1  N1  UNL     1      24.374   3.559  50.099  1.00  0.00    -0.241 N 
HETATM    2  N2  UNL     1      25.477   3.856  49.294  1.00  0.00    -0.161 NA
HETATM    3  C3  UNL     1      26.684   3.546  49.697  1.00  0.00     0.258 A 
HETATM    4  N3  UNL     1      26.935   2.909  50.943  1.00  0.00    -0.220 NA
HETATM    5  C4  UNL     1      25.949   2.613  51.724  1.00  0.00     0.158 A 
HETATM    6  C12 UNL     1      24.576   2.923  51.353  1.00  0.00     0.104 A 
HETATM    7  C13 UNL     1      23.594   2.612  52.162  1.00  0.00     0.041 C 
ENDROOT
BRANCH   1   8
HETATM    8  C2  UNL     1      23.057   3.889  49.675  1.00  0.00     0.108 C 
HETATM    9  C1  UNL     1      22.868   4.009  48.358  1.00  0.00     0.032 C 
ENDBRANCH   1   8
BRANCH   5  10
HETATM   10  N4  UNL     1      26.261   1.984  52.942  1.00  0.00    -0.339 N 
HETATM   11  H5  UNL     1      25.624   2.205  53.752  1.00  0.00     0.167 HD
BRANCH  10  12
HETATM   12  C5  UNL     1      27.349   1.101  53.155  1.00  0.00     0.034 A 
HETATM   13  C6  UNL     1      28.611   1.405  53.593  1.00  0.00     0.029 A 
HETATM   14  C7  UNL     1      29.621   0.503  53.774  1.00  0.00     0.003 A 
HETATM   15  C8  UNL     1      29.397  -0.830  53.509  1.00  0.00     0.007 A 
HETATM   16  C9  UNL     1      28.148  -1.208  53.064  1.00  0.00    -0.060 A 
HETATM   17  C10 UNL     1      27.863  -2.648  52.762  1.00  0.00     0.048 C 
HETATM   18  C11 UNL     1      27.175  -0.255  52.901  1.00  0.00     0.036 A 
ENDBRANCH  10  12
ENDBRANCH   5  10
BRANCH   7  19
HETATM   19  P1  UNL     1      21.825   2.930  51.842  1.00  0.00    -0.085 P 
HETATM   20  H14 UNL     1      21.156   3.479  52.988  1.00  0.00     0.063 HD
BRANCH  19  21
HETATM   21  C14 UNL     1      20.982   1.490  51.073  1.00  0.00     0.152 C 
BRANCH  21  22
HETATM   22  N5  UNL     1      19.791   1.142  51.799  1.00  0.00    -0.408 N 
HETATM   23  C15 UNL     1      18.875   0.309  51.088  1.00  0.00     0.119 C 
HETATM   24  C16 UNL     1      17.823  -0.154  52.103  1.00  0.00     0.055 C 
HETATM   25  C17 UNL     1      18.537  -1.202  52.948  1.00  0.00     0.221 C 
HETATM   26  C18 UNL     1      19.842  -0.682  53.456  1.00  0.00     0.055 C 
HETATM   27  C19 UNL     1      20.001   0.778  53.163  1.00  0.00     0.119 C 
BRANCH  25  28
HETATM   28  N6  UNL     1      17.646  -1.669  54.005  1.00  0.00     0.083 N 
HETATM   29  H22 UNL     1      16.773  -2.012  53.519  1.00  0.00     0.313 HD
HETATM   30  H23 UNL     1      17.331  -0.781  54.494  1.00  0.00     0.313 HD
ENDBRANCH  25  28
ENDBRANCH  21  22
ENDBRANCH  19  21
ENDBRANCH   7  19
TORSDOF 7
ENDMDL
MODEL 9
REMARK VINA RESULT:      -7.5      1.206      1.606
REMARK  7 active torsions:
REMARK  status: ('A' for Active; 'I' for Inactive)
REMARK    1  A    between atoms: C2_2  and  N1_3 
REMARK    2  A    between atoms: C4_7  and  N4_8 
REMARK    3  A    between atoms: N4_8  and  C5_9 
REMARK    4  A    between atoms: C13_17  and  P1_18 
REMARK    5  A    between atoms: P1_18  and  C14_19 
REMARK    6  A    between atoms: C14_19  and  N5_20 
REMARK    7  A    between atoms: C17_23  and  N6_24 
ROOT
HETATM    1  N1  UNL     1      21.594   0.772  53.274  1.00  0.00    -0.241 N 
HETATM    2  N2  UNL     1      21.256   0.094  54.449  1.00  0.00    -0.161 NA
HETATM    3  C3  UNL     1      22.113  -0.730  54.999  1.00  0.00     0.258 A 
HETATM    4  N3  UNL     1      23.400  -0.976  54.448  1.00  0.00    -0.220 NA
HETATM    5  C4  UNL     1      23.761  -0.375  53.363  1.00  0.00     0.158 A 
HETATM    6  C12 UNL     1      22.870   0.557  52.688  1.00  0.00     0.104 A 
HETATM    7  C13 UNL     1      23.260   1.156  51.589  1.00  0.00     0.041 C 
ENDROOT
BRANCH   1   8
HETATM    8  C2  UNL     1      20.676   1.670  52.665  1.00  0.00     0.108 C 
HETATM    9  C1  UNL     1      19.471   1.177  52.364  1.00  0.00     0.032 C 
ENDBRANCH   1   8
BRANCH   5  10
HETATM   10  N4  UNL     1      25.046  -0.659  52.868  1.00  0.00    -0.339 N 
HETATM   11  H5  UNL     1      25.119  -1.492  52.225  1.00  0.00     0.167 HD
BRANCH  10  12
HETATM   12  C5  UNL     1      26.223   0.070  53.169  1.00  0.00     0.034 A 
HETATM   13  C6  UNL     1      26.344   1.413  53.416  1.00  0.00     0.029 A 
HETATM   14  C7  UNL     1      27.516   2.059  53.696  1.00  0.00     0.003 A 
HETATM   15  C8  UNL     1      28.691   1.343  53.746  1.00  0.00     0.007 A 
HETATM   16  C9  UNL     1      28.643  -0.013  53.507  1.00  0.00    -0.060 A 
HETATM   17  C10 UNL     1      29.900  -0.829  53.551  1.00  0.00     0.048 C 
HETATM   18  C11 UNL     1      27.436  -0.605  53.230  1.00  0.00     0.036 A 
ENDBRANCH  10  12
ENDBRANCH   5  10
BRANCH   7  19
HETATM   19  P1  UNL     1      22.265   2.347  50.628  1.00  0.00    -0.085 P 
HETATM   20  H14 UNL     1      22.186   1.993  49.239  1.00  0.00     0.063 HD
BRANCH  19  21
HETATM   21  C14 UNL     1      22.750   4.088  50.955  1.00  0.00     0.152 C 
BRANCH  21  22
HETATM   22  N5  UNL     1      23.694   4.553  49.975  1.00  0.00    -0.408 N 
HETATM   23  C15 UNL     1      24.509   5.647  50.396  1.00  0.00     0.119 C 
HETATM   24  C16 UNL     1      25.601   5.817  49.332  1.00  0.00     0.055 C 
HETATM   25  C17 UNL     1      26.560   4.658  49.577  1.00  0.00     0.221 C 
HETATM   26  C18 UNL     1      25.825   3.359  49.648  1.00  0.00     0.055 C 
HETATM   27  C19 UNL     1      24.386   3.524  49.268  1.00  0.00     0.119 C 
BRANCH  25  28
HETATM   28  N6  UNL     1      27.615   4.675  48.568  1.00  0.00     0.083 N 
HETATM   29  H22 UNL     1      28.509   4.894  49.086  1.00  0.00     0.313 HD
HETATM   30  H23 UNL     1      27.426   5.554  48.005  1.00  0.00     0.313 HD
ENDBRANCH  25  28
ENDBRANCH  21  22
ENDBRANCH  19  21
ENDBRANCH   7  19
TORSDOF 7
ENDMDL
