MODEL 1
REMARK VINA RESULT:      -9.0      0.000      0.000
REMARK  2 active torsions:
REMARK  status: ('A' for Active; 'I' for Inactive)
REMARK    1  A    between atoms: C4_5  and  C5_6 
REMARK    2  A    between atoms: C6_7  and  C7_8 
ROOT
HETATM    1  C1  UNL     1      17.546  -1.502  52.719  1.00  0.00     0.019 C 
HETATM    2  C2  UNL     1      18.602  -1.029  53.047  1.00  0.00    -0.065 C 
HETATM    3  C3  UNL     1      19.865  -0.460  53.414  1.00  0.00     0.086 C 
HETATM    4 CL1  UNL     1      20.930  -1.244  54.539  1.00  0.00    -0.074 Cl
HETATM    5  C4  UNL     1      20.213   0.689  52.872  1.00  0.00     0.033 C 
ENDROOT
BRANCH   5   6
HETATM    6  C5  UNL     1      21.486   1.323  53.203  1.00  0.00    -0.001 C 
HETATM    7  C6  UNL     1      22.624   1.252  52.542  1.00  0.00    -0.017 C 
BRANCH   7   8
HETATM    8  C7  UNL     1      23.892   1.922  52.928  1.00  0.00     0.048 C 
HETATM    9  C8  UNL     1      24.630   1.152  53.950  1.00  0.00     0.060 C 
HETATM   10  C9  UNL     1      24.995  -0.223  53.628  1.00  0.00     0.090 C 
HETATM   11  N1  UNL     1      26.131  -0.758  54.018  1.00  0.00    -0.275 NA
HETATM   12  C10 UNL     1      27.006   0.101  54.790  1.00  0.00     0.143 C 
HETATM   13  C11 UNL     1      27.735   0.794  53.891  1.00  0.00     0.059 C 
HETATM   14  C12 UNL     1      28.787   1.811  53.636  1.00  0.00     0.172 C 
HETATM   15  N4  UNL     1      27.690   0.713  52.447  1.00  0.00    -0.285 N 
HETATM   16  N2  UNL     1      28.163   2.653  52.623  1.00  0.00    -0.212 NA
HETATM   17  N3  UNL     1      27.112   1.926  52.089  1.00  0.00    -0.218 N 
HETATM   18  H12 UNL     1      27.832   3.519  53.101  1.00  0.00     0.149 HD
HETATM   19  C13 UNL     1      25.965   2.401  51.442  1.00  0.00     0.076 A 
HETATM   20  C14 UNL     1      26.362   2.958  50.244  1.00  0.00     0.033 A 
HETATM   21  C18 UNL     1      24.631   2.402  51.762  1.00  0.00    -0.020 A 
HETATM   22  C15 UNL     1      25.490   3.534  49.308  1.00  0.00     0.002 A 
HETATM   23  C16 UNL     1      24.152   3.527  49.646  1.00  0.00     0.001 A 
HETATM   24  C17 UNL     1      23.767   2.968  50.847  1.00  0.00     0.010 A 
HETATM   25  H13 UNL     1      28.070  -0.165  52.007  1.00  0.00     0.188 HD
ENDBRANCH   7   8
ENDBRANCH   5   6
TORSDOF 2
ENDMDL
MODEL 2
REMARK VINA RESULT:      -8.3      3.603      7.258
REMARK  2 active torsions:
REMARK  status: ('A' for Active; 'I' for Inactive)
REMARK    1  A    between atoms: C4_5  and  C5_6 
REMARK    2  A    between atoms: C6_7  and  C7_8 
ROOT
HETATM    1  C1  UNL     1      29.793  -0.586  53.760  1.00  0.00     0.019 C 
HETATM    2  C2  UNL     1      28.664  -0.185  53.862  1.00  0.00    -0.065 C 
HETATM    3  C3  UNL     1      27.326   0.315  53.977  1.00  0.00     0.086 C 
HETATM    4 CL1  UNL     1      26.322  -0.061  55.342  1.00  0.00    -0.074 Cl
HETATM    5  C4  UNL     1      26.861   1.081  53.012  1.00  0.00     0.033 C 
ENDROOT
BRANCH   5   6
HETATM    6  C5  UNL     1      25.506   1.624  53.067  1.00  0.00    -0.001 C 
HETATM    7  C6  UNL     1      24.417   1.149  52.499  1.00  0.00    -0.017 C 
BRANCH   7   8
HETATM    8  C7  UNL     1      23.061   1.747  52.591  1.00  0.00     0.048 C 
HETATM    9  C8  UNL     1      22.765   2.617  51.435  1.00  0.00     0.060 C 
HETATM   10  C9  UNL     1      22.842   2.023  50.105  1.00  0.00     0.090 C 
HETATM   11  N1  UNL     1      22.012   2.353  49.139  1.00  0.00    -0.275 NA
HETATM   12  C10 UNL     1      21.010   3.345  49.473  1.00  0.00     0.143 C 
HETATM   13  C11 UNL     1      19.980   2.665  50.016  1.00  0.00     0.059 C 
HETATM   14  C12 UNL     1      18.624   2.703  50.623  1.00  0.00     0.172 C 
HETATM   15  N4  UNL     1      19.858   1.239  50.225  1.00  0.00    -0.285 N 
HETATM   16  N2  UNL     1      18.791   1.865  51.803  1.00  0.00    -0.212 NA
HETATM   17  N3  UNL     1      19.944   1.122  51.609  1.00  0.00    -0.218 N 
HETATM   18  H12 UNL     1      18.873   2.500  52.626  1.00  0.00     0.149 HD
HETATM   19  C13 UNL     1      20.770   0.528  52.571  1.00  0.00     0.076 A 
HETATM   20  C14 UNL     1      20.055  -0.492  53.162  1.00  0.00     0.033 A 
HETATM   21  C18 UNL     1      22.057   0.762  52.985  1.00  0.00    -0.020 A 
HETATM   22  C15 UNL     1      20.552  -1.329  54.173  1.00  0.00     0.002 A 
HETATM   23  C16 UNL     1      21.847  -1.080  54.578  1.00  0.00     0.001 A 
HETATM   24  C17 UNL     1      22.552  -0.057  53.979  1.00  0.00     0.010 A 
HETATM   25  H13 UNL     1      19.739   0.640  49.368  1.00  0.00     0.188 HD
ENDBRANCH   7   8
ENDBRANCH   5   6
TORSDOF 2
ENDMDL
MODEL 3
REMARK VINA RESULT:      -8.0      2.776      5.326
REMARK  2 active torsions:
REMARK  status: ('A' for Active; 'I' for Inactive)
REMARK    1  A    between atoms: C4_5  and  C5_6 
REMARK    2  A    between atoms: C6_7  and  C7_8 
ROOT
HETATM    1  C1  UNL     1      22.215   8.249  50.034  1.00  0.00     0.019 C 
HETATM    2  C2  UNL     1      22.717   7.162  49.926  1.00  0.00    -0.065 C 
HETATM    3  C3  UNL     1      23.337   5.875  49.810  1.00  0.00     0.086 C 
HETATM    4 CL1  UNL     1      23.290   4.966  48.332  1.00  0.00    -0.074 Cl
HETATM    5  C4  UNL     1      23.956   5.382  50.863  1.00  0.00     0.033 C 
ENDROOT
BRANCH   5   6
HETATM    6  C5  UNL     1      24.608   4.076  50.812  1.00  0.00    -0.001 C 
HETATM    7  C6  UNL     1      24.861   3.256  51.810  1.00  0.00    -0.017 C 
BRANCH   7   8
HETATM    8  C7  UNL     1      25.530   1.935  51.697  1.00  0.00     0.048 C 
HETATM    9  C8  UNL     1      26.972   2.021  52.004  1.00  0.00     0.060 C 
HETATM   10  C9  UNL     1      27.353   2.542  53.313  1.00  0.00     0.090 C 
HETATM   11  N1  UNL     1      28.382   2.071  53.984  1.00  0.00    -0.275 NA
HETATM   12  C10 UNL     1      29.119   0.999  53.347  1.00  0.00     0.143 C 
HETATM   13  C11 UNL     1      28.481  -0.141  53.684  1.00  0.00     0.059 C 
HETATM   14  C12 UNL     1      28.406  -1.622  53.582  1.00  0.00     0.172 C 
HETATM   15  N4  UNL     1      27.310  -0.301  54.517  1.00  0.00    -0.285 N 
HETATM   16  N2  UNL     1      27.000  -1.838  53.269  1.00  0.00    -0.212 NA
HETATM   17  N3  UNL     1      26.329  -0.673  53.603  1.00  0.00    -0.218 N 
HETATM   18  H12 UNL     1      26.937  -2.043  52.248  1.00  0.00     0.149 HD
HETATM   19  C13 UNL     1      25.107  -0.200  53.111  1.00  0.00     0.076 A 
HETATM   20  C14 UNL     1      24.119  -1.052  53.559  1.00  0.00     0.033 A 
HETATM   21  C18 UNL     1      24.753   0.874  52.334  1.00  0.00    -0.020 A 
HETATM   22  C15 UNL     1      22.753  -0.902  53.279  1.00  0.00     0.002 A 
HETATM   23  C16 UNL     1      22.414   0.183  52.496  1.00  0.00     0.001 A 
HETATM   24  C17 UNL     1      23.411   1.028  52.054  1.00  0.00     0.010 A 
HETATM   25  H13 UNL     1      27.429  -0.120  55.547  1.00  0.00     0.188 HD
ENDBRANCH   7   8
ENDBRANCH   5   6
TORSDOF 2
ENDMDL
MODEL 4
REMARK VINA RESULT:      -7.9      3.229      6.683
REMARK  2 active torsions:
REMARK  status: ('A' for Active; 'I' for Inactive)
REMARK    1  A    between atoms: C4_5  and  C5_6 
REMARK    2  A    between atoms: C6_7  and  C7_8 
ROOT
HETATM    1  C1  UNL     1      26.214   7.509  47.350  1.00  0.00     0.019 C 
HETATM    2  C2  UNL     1      25.839   7.007  48.376  1.00  0.00    -0.065 C 
HETATM    3  C3  UNL     1      25.379   6.392  49.586  1.00  0.00     0.086 C 
HETATM    4 CL1  UNL     1      24.784   7.330  50.920  1.00  0.00    -0.074 Cl
HETATM    5  C4  UNL     1      25.416   5.079  49.672  1.00  0.00     0.033 C 
ENDROOT
BRANCH   5   6
HETATM    6  C5  UNL     1      24.963   4.389  50.877  1.00  0.00    -0.001 C 
HETATM    7  C6  UNL     1      24.872   3.092  51.085  1.00  0.00    -0.017 C 
BRANCH   7   8
HETATM    8  C7  UNL     1      24.402   2.446  52.337  1.00  0.00     0.048 C 
HETATM    9  C8  UNL     1      22.928   2.417  52.419  1.00  0.00     0.060 C 
HETATM   10  C9  UNL     1      22.203   1.755  51.340  1.00  0.00     0.090 C 
HETATM   11  N1  UNL     1      21.110   1.055  51.554  1.00  0.00    -0.275 NA
HETATM   12  C10 UNL     1      20.664   0.978  52.931  1.00  0.00     0.143 C 
HETATM   13  C11 UNL     1      21.335  -0.054  53.481  1.00  0.00     0.059 C 
HETATM   14  C12 UNL     1      21.600  -0.889  54.682  1.00  0.00     0.172 C 
HETATM   15  N4  UNL     1      22.298  -0.934  52.856  1.00  0.00    -0.285 N 
HETATM   16  N2  UNL     1      23.056  -0.933  54.712  1.00  0.00    -0.212 NA
HETATM   17  N3  UNL     1      23.495  -0.554  53.454  1.00  0.00    -0.218 N 
HETATM   18  H12 UNL     1      23.371  -0.266  55.449  1.00  0.00     0.149 HD
HETATM   19  C13 UNL     1      24.735  -0.015  53.090  1.00  0.00     0.076 A 
HETATM   20  C14 UNL     1      25.686  -0.997  53.271  1.00  0.00     0.033 A 
HETATM   21  C18 UNL     1      25.130   1.211  52.619  1.00  0.00    -0.020 A 
HETATM   22  C15 UNL     1      27.054  -0.837  53.005  1.00  0.00     0.002 A 
HETATM   23  C16 UNL     1      27.435   0.402  52.532  1.00  0.00     0.001 A 
HETATM   24  C17 UNL     1      26.475   1.376  52.355  1.00  0.00     0.010 A 
HETATM   25  H13 UNL     1      21.928  -1.616  52.145  1.00  0.00     0.188 HD
ENDBRANCH   7   8
ENDBRANCH   5   6
TORSDOF 2
ENDMDL
MODEL 5
REMARK VINA RESULT:      -7.6      6.441      9.095
REMARK  2 active torsions:
REMARK  status: ('A' for Active; 'I' for Inactive)
REMARK    1  A    between atoms: C4_5  and  C5_6 
REMARK    2  A    between atoms: C6_7  and  C7_8 
ROOT
HETATM    1  C1  UNL     1      23.931   2.389  51.044  1.00  0.00     0.019 C 
HETATM    2  C2  UNL     1      24.482   3.371  50.623  1.00  0.00    -0.065 C 
HETATM    3  C3  UNL     1      25.161   4.530  50.122  1.00  0.00     0.086 C 
HETATM    4 CL1  UNL     1      24.826   6.121  50.730  1.00  0.00    -0.074 Cl
HETATM    5  C4  UNL     1      26.060   4.365  49.174  1.00  0.00     0.033 C 
ENDROOT
BRANCH   5   6
HETATM    6  C5  UNL     1      26.788   5.504  48.620  1.00  0.00    -0.001 C 
HETATM    7  C6  UNL     1      28.090   5.704  48.601  1.00  0.00    -0.017 C 
BRANCH   7   8
HETATM    8  C7  UNL     1      28.776   6.887  48.021  1.00  0.00     0.048 C 
HETATM    9  C8  UNL     1      27.993   8.125  48.214  1.00  0.00     0.060 C 
HETATM   10  C9  UNL     1      27.652   8.502  49.581  1.00  0.00     0.090 C 
HETATM   11  N1  UNL     1      27.625   9.756  49.978  1.00  0.00    -0.275 NA
HETATM   12  C10 UNL     1      27.958  10.747  48.975  1.00  0.00     0.143 C 
HETATM   13  C11 UNL     1      29.302  10.855  48.991  1.00  0.00     0.059 C 
HETATM   14  C12 UNL     1      30.522  11.497  48.436  1.00  0.00     0.172 C 
HETATM   15  N4  UNL     1      30.248  10.154  49.831  1.00  0.00    -0.285 N 
HETATM   16  N2  UNL     1      31.390  10.352  48.195  1.00  0.00    -0.212 NA
HETATM   17  N3  UNL     1      30.879   9.297  48.935  1.00  0.00    -0.218 N 
HETATM   18  H12 UNL     1      31.366  10.154  47.171  1.00  0.00     0.149 HD
HETATM   19  C13 UNL     1      31.049   7.924  48.725  1.00  0.00     0.076 A 
HETATM   20  C14 UNL     1      32.373   7.624  48.967  1.00  0.00     0.033 A 
HETATM   21  C18 UNL     1      30.197   6.912  48.359  1.00  0.00    -0.020 A 
HETATM   22  C15 UNL     1      32.928   6.340  48.868  1.00  0.00     0.002 A 
HETATM   23  C16 UNL     1      32.058   5.334  48.499  1.00  0.00     0.001 A 
HETATM   24  C17 UNL     1      30.736   5.646  48.259  1.00  0.00     0.010 A 
HETATM   25  H13 UNL     1      30.263  10.413  50.851  1.00  0.00     0.188 HD
ENDBRANCH   7   8
ENDBRANCH   5   6
TORSDOF 2
ENDMDL
MODEL 6
REMARK VINA RESULT:      -7.6      3.561      6.973
REMARK  2 active torsions:
REMARK  status: ('A' for Active; 'I' for Inactive)
REMARK    1  A    between atoms: C4_5  and  C5_6 
REMARK    2  A    between atoms: C6_7  and  C7_8 
ROOT
HETATM    1  C1  UNL     1      29.412   8.460  47.666  1.00  0.00     0.019 C 
HETATM    2  C2  UNL     1      28.600   7.611  47.926  1.00  0.00    -0.065 C 
HETATM    3  C3  UNL     1      27.646   6.584  48.221  1.00  0.00     0.086 C 
HETATM    4 CL1  UNL     1      25.936   6.874  48.149  1.00  0.00    -0.074 Cl
HETATM    5  C4  UNL     1      28.096   5.391  48.553  1.00  0.00     0.033 C 
ENDROOT
BRANCH   5   6
HETATM    6  C5  UNL     1      27.177   4.300  48.866  1.00  0.00    -0.001 C 
HETATM    7  C6  UNL     1      26.637   4.001  50.030  1.00  0.00    -0.017 C 
BRANCH   7   8
HETATM    8  C7  UNL     1      25.706   2.874  50.289  1.00  0.00     0.048 C 
HETATM    9  C8  UNL     1      26.399   1.715  50.886  1.00  0.00     0.060 C 
HETATM   10  C9  UNL     1      27.114   1.928  52.140  1.00  0.00     0.090 C 
HETATM   11  N1  UNL     1      27.154   1.019  53.089  1.00  0.00    -0.275 NA
HETATM   12  C10 UNL     1      26.442  -0.214  52.819  1.00  0.00     0.143 C 
HETATM   13  C11 UNL     1      25.165   0.004  53.193  1.00  0.00     0.059 C 
HETATM   14  C12 UNL     1      23.783  -0.524  53.327  1.00  0.00     0.172 C 
HETATM   15  N4  UNL     1      24.590   1.202  53.764  1.00  0.00    -0.285 N 
HETATM   16  N2  UNL     1      22.985   0.553  52.755  1.00  0.00    -0.212 NA
HETATM   17  N3  UNL     1      23.789   1.681  52.733  1.00  0.00    -0.218 N 
HETATM   18  H12 UNL     1      22.707   0.256  51.794  1.00  0.00     0.149 HD
HETATM   19  C13 UNL     1      23.682   2.810  51.913  1.00  0.00     0.076 A 
HETATM   20  C14 UNL     1      22.529   3.478  52.270  1.00  0.00     0.033 A 
HETATM   21  C18 UNL     1      24.462   3.326  50.909  1.00  0.00    -0.020 A 
HETATM   22  C15 UNL     1      22.084   4.668  51.675  1.00  0.00     0.002 A 
HETATM   23  C16 UNL     1      22.880   5.173  50.668  1.00  0.00     0.001 A 
HETATM   24  C17 UNL     1      24.030   4.497  50.319  1.00  0.00     0.010 A 
HETATM   25  H13 UNL     1      24.870   1.442  54.750  1.00  0.00     0.188 HD
ENDBRANCH   7   8
ENDBRANCH   5   6
TORSDOF 2
ENDMDL
MODEL 7
REMARK VINA RESULT:      -7.5      3.894      7.648
REMARK  2 active torsions:
REMARK  status: ('A' for Active; 'I' for Inactive)
REMARK    1  A    between atoms: C4_5  and  C5_6 
REMARK    2  A    between atoms: C6_7  and  C7_8 
ROOT
HETATM    1  C1  UNL     1      29.100   5.937  47.819  1.00  0.00     0.019 C 
HETATM    2  C2  UNL     1      28.072   5.779  48.423  1.00  0.00    -0.065 C 
HETATM    3  C3  UNL     1      26.839   5.575  49.124  1.00  0.00     0.086 C 
HETATM    4 CL1  UNL     1      25.932   6.898  49.786  1.00  0.00    -0.074 Cl
HETATM    5  C4  UNL     1      26.396   4.342  49.261  1.00  0.00     0.033 C 
ENDROOT
BRANCH   5   6
HETATM    6  C5  UNL     1      25.146   4.064  49.965  1.00  0.00    -0.001 C 
HETATM    7  C6  UNL     1      24.813   2.978  50.630  1.00  0.00    -0.017 C 
BRANCH   7   8
HETATM    8  C7  UNL     1      23.522   2.751  51.328  1.00  0.00     0.048 C 
HETATM    9  C8  UNL     1      22.369   2.943  50.426  1.00  0.00     0.060 C 
HETATM   10  C9  UNL     1      22.311   2.123  49.221  1.00  0.00     0.090 C 
HETATM   11  N1  UNL     1      21.178   1.656  48.743  1.00  0.00    -0.275 NA
HETATM   12  C10 UNL     1      19.983   2.003  49.486  1.00  0.00     0.143 C 
HETATM   13  C11 UNL     1      19.865   1.072  50.454  1.00  0.00     0.059 C 
HETATM   14  C12 UNL     1      19.100   0.553  51.618  1.00  0.00     0.172 C 
HETATM   15  N4  UNL     1      20.724  -0.062  50.718  1.00  0.00    -0.285 N 
HETATM   16  N2  UNL     1      20.151   0.324  52.600  1.00  0.00    -0.212 NA
HETATM   17  N3  UNL     1      21.351   0.298  51.907  1.00  0.00    -0.218 N 
HETATM   18  H12 UNL     1      20.116   1.113  53.282  1.00  0.00     0.149 HD
HETATM   19  C13 UNL     1      22.640   0.552  52.388  1.00  0.00     0.076 A 
HETATM   20  C14 UNL     1      22.970  -0.466  53.258  1.00  0.00     0.033 A 
HETATM   21  C18 UNL     1      23.555   1.548  52.157  1.00  0.00    -0.020 A 
HETATM   22  C15 UNL     1      24.193  -0.565  53.938  1.00  0.00     0.002 A 
HETATM   23  C16 UNL     1      25.101   0.444  53.695  1.00  0.00     0.001 A 
HETATM   24  C17 UNL     1      24.761   1.457  52.823  1.00  0.00     0.010 A 
HETATM   25  H13 UNL     1      20.699  -0.851  50.022  1.00  0.00     0.188 HD
ENDBRANCH   7   8
ENDBRANCH   5   6
TORSDOF 2
ENDMDL
MODEL 8
REMARK VINA RESULT:      -7.3      2.968      4.726
REMARK  2 active torsions:
REMARK  status: ('A' for Active; 'I' for Inactive)
REMARK    1  A    between atoms: C4_5  and  C5_6 
REMARK    2  A    between atoms: C6_7  and  C7_8 
ROOT
HETATM    1  C1  UNL     1      15.225   4.021  51.124  1.00  0.00     0.019 C 
HETATM    2  C2  UNL     1      16.245   3.445  50.853  1.00  0.00    -0.065 C 
HETATM    3  C3  UNL     1      17.474   2.777  50.543  1.00  0.00     0.086 C 
HETATM    4 CL1  UNL     1      17.791   2.132  48.962  1.00  0.00    -0.074 Cl
HETATM    5  C4  UNL     1      18.377   2.658  51.493  1.00  0.00     0.033 C 
ENDROOT
BRANCH   5   6
HETATM    6  C5  UNL     1      19.651   1.988  51.243  1.00  0.00    -0.001 C 
HETATM    7  C6  UNL     1      20.586   1.669  52.114  1.00  0.00    -0.017 C 
BRANCH   7   8
HETATM    8  C7  UNL     1      21.866   0.986  51.799  1.00  0.00     0.048 C 
HETATM    9  C8  UNL     1      22.813   1.885  51.110  1.00  0.00     0.060 C 
HETATM   10  C9  UNL     1      23.186   3.122  51.788  1.00  0.00     0.090 C 
HETATM   11  N1  UNL     1      24.400   3.623  51.718  1.00  0.00    -0.275 NA
HETATM   12  C10 UNL     1      25.353   2.873  50.925  1.00  0.00     0.143 C 
HETATM   13  C11 UNL     1      25.872   1.942  51.752  1.00  0.00     0.059 C 
HETATM   14  C12 UNL     1      26.808   0.803  51.939  1.00  0.00     0.172 C 
HETATM   15  N4  UNL     1      25.575   1.719  53.150  1.00  0.00    -0.285 N 
HETATM   16  N2  UNL     1      25.971  -0.174  52.622  1.00  0.00    -0.212 NA
HETATM   17  N3  UNL     1      24.880   0.514  53.128  1.00  0.00    -0.218 N 
HETATM   18  H12 UNL     1      25.686  -0.886  51.915  1.00  0.00     0.149 HD
HETATM   19  C13 UNL     1      23.613   0.017  53.457  1.00  0.00     0.076 A 
HETATM   20  C14 UNL     1      23.760  -0.814  54.547  1.00  0.00     0.033 A 
HETATM   21  C18 UNL     1      22.360   0.205  52.932  1.00  0.00    -0.020 A 
HETATM   22  C15 UNL     1      22.707  -1.495  55.175  1.00  0.00     0.002 A 
HETATM   23  C16 UNL     1      21.453  -1.296  54.635  1.00  0.00     0.001 A 
HETATM   24  C17 UNL     1      21.318  -0.462  53.544  1.00  0.00     0.010 A 
HETATM   25  H13 UNL     1      25.915   2.445  53.832  1.00  0.00     0.188 HD
ENDBRANCH   7   8
ENDBRANCH   5   6
TORSDOF 2
ENDMDL
MODEL 9
REMARK VINA RESULT:      -7.2      4.185      6.071
REMARK  2 active torsions:
REMARK  status: ('A' for Active; 'I' for Inactive)
REMARK    1  A    between atoms: C4_5  and  C5_6 
REMARK    2  A    between atoms: C6_7  and  C7_8 
ROOT
HETATM    1  C1  UNL     1      22.373  -1.040  54.836  1.00  0.00     0.019 C 
HETATM    2  C2  UNL     1      22.606  -0.312  53.907  1.00  0.00    -0.065 C 
HETATM    3  C3  UNL     1      22.863   0.545  52.788  1.00  0.00     0.086 C 
HETATM    4 CL1  UNL     1      24.466   0.782  52.166  1.00  0.00    -0.074 Cl
HETATM    5  C4  UNL     1      21.843   1.162  52.227  1.00  0.00     0.033 C 
ENDROOT
BRANCH   5   6
HETATM    6  C5  UNL     1      22.036   2.050  51.083  1.00  0.00    -0.001 C 
HETATM    7  C6  UNL     1      22.698   3.187  51.040  1.00  0.00    -0.017 C 
BRANCH   7   8
HETATM    8  C7  UNL     1      22.861   4.050  49.843  1.00  0.00     0.048 C 
HETATM    9  C8  UNL     1      21.899   5.171  49.839  1.00  0.00     0.060 C 
HETATM   10  C9  UNL     1      21.916   6.079  50.981  1.00  0.00     0.090 C 
HETATM   11  N1  UNL     1      21.708   7.372  50.854  1.00  0.00    -0.275 NA
HETATM   12  C10 UNL     1      21.462   7.847  49.508  1.00  0.00     0.143 C 
HETATM   13  C11 UNL     1      22.676   8.070  48.965  1.00  0.00     0.059 C 
HETATM   14  C12 UNL     1      23.470   8.509  47.788  1.00  0.00     0.172 C 
HETATM   15  N4  UNL     1      23.977   7.897  49.574  1.00  0.00    -0.285 N 
HETATM   16  N2  UNL     1      24.472   7.457  47.683  1.00  0.00    -0.212 NA
HETATM   17  N3  UNL     1      24.489   6.794  48.899  1.00  0.00    -0.218 N 
HETATM   18  H12 UNL     1      24.182   6.828  46.903  1.00  0.00     0.149 HD
HETATM   19  C13 UNL     1      24.915   5.489  49.174  1.00  0.00     0.076 A 
HETATM   20  C14 UNL     1      26.280   5.446  48.984  1.00  0.00     0.033 A 
HETATM   21  C18 UNL     1      24.266   4.348  49.573  1.00  0.00    -0.020 A 
HETATM   22  C15 UNL     1      27.073   4.304  49.171  1.00  0.00     0.002 A 
HETATM   23  C16 UNL     1      26.404   3.166  49.571  1.00  0.00     0.001 A 
HETATM   24  C17 UNL     1      25.039   3.220  49.759  1.00  0.00     0.010 A 
HETATM   25  H13 UNL     1      24.243   8.579  50.332  1.00  0.00     0.188 HD
ENDBRANCH   7   8
ENDBRANCH   5   6
TORSDOF 2
ENDMDL
