MODEL 1
REMARK VINA RESULT:      -9.1      0.000      0.000
REMARK  4 active torsions:
REMARK  status: ('A' for Active; 'I' for Inactive)
REMARK    1  A    between atoms: N1_1  and  C1_2 
REMARK    2  A    between atoms: C3_5  and  C4_6 
REMARK    3  A    between atoms: C11_16  and  C12_17 
REMARK    4  A    between atoms: C12_17  and  N6_18 
ROOT
HETATM    1  C1  UNL     1      27.127   0.136  54.228  1.00  0.00     0.147 A 
HETATM    2  N2  UNL     1      26.535  -0.476  55.284  1.00  0.00    -0.239 NA
HETATM    3  C2  UNL     1      25.204  -0.754  55.243  1.00  0.00     0.151 A 
HETATM    4  C3  UNL     1      24.463  -0.413  54.132  1.00  0.00     0.086 A 
HETATM    5  N5  UNL     1      25.076   0.192  53.103  1.00  0.00    -0.246 NA
HETATM    6  C11 UNL     1      26.411   0.489  53.105  1.00  0.00     0.097 A 
ENDROOT
BRANCH   6   7
HETATM    7  C12 UNL     1      26.988   1.176  51.932  1.00  0.00     0.202 C 
BRANCH   7   8
HETATM    8  N6  UNL     1      26.879   2.581  52.076  1.00  0.00    -0.133 NA
HETATM    9  N7  UNL     1      26.838   3.271  50.897  1.00  0.00    -0.299 N 
HETATM   10  C13 UNL     1      25.472   3.523  50.545  1.00  0.00     0.072 A 
HETATM   11  H13 UNL     1      27.765   3.502  50.462  1.00  0.00     0.183 HD
HETATM   12  C14 UNL     1      24.985   3.870  49.318  1.00  0.00     0.033 A 
HETATM   13  C18 UNL     1      24.785   3.334  51.719  1.00  0.00     0.072 A 
HETATM   14  C15 UNL     1      23.607   4.053  49.266  1.00  0.00     0.002 A 
HETATM   15  C16 UNL     1      22.824   3.884  50.404  1.00  0.00     0.002 A 
HETATM   16  C17 UNL     1      23.409   3.528  51.616  1.00  0.00     0.033 A 
HETATM   17  N8  UNL     1      25.716   2.975  52.763  1.00  0.00    -0.299 N 
HETATM   18  H18 UNL     1      25.399   3.060  53.769  1.00  0.00     0.183 HD
ENDBRANCH   7   8
ENDBRANCH   6   7
BRANCH   1  19
HETATM   19  N1  UNL     1      28.504   0.373  54.326  1.00  0.00    -0.382 N 
HETATM   20  H1  UNL     1      29.039   0.844  55.078  1.00  0.00     0.157 HD
HETATM   21  H2  UNL     1      28.904  -0.049  53.433  1.00  0.00     0.157 HD
ENDBRANCH   1  19
BRANCH   4  22
HETATM   22  C4  UNL     1      23.037  -0.692  54.036  1.00  0.00     0.012 A 
HETATM   23  C5  UNL     1      22.440  -1.522  54.959  1.00  0.00     0.132 A 
HETATM   24  N3  UNL     1      21.123  -1.789  54.886  1.00  0.00    -0.242 NA
HETATM   25  C6  UNL     1      20.305  -1.285  53.939  1.00  0.00     0.129 A 
HETATM   26  C7  UNL     1      20.854  -0.434  52.973  1.00  0.00    -0.010 A 
HETATM   27  N4  UNL     1      18.929  -1.365  53.597  1.00  0.00    -0.374 N 
HETATM   28  C8  UNL     1      22.210  -0.172  53.065  1.00  0.00     0.026 A 
HETATM   29  C9  UNL     1      19.829   0.037  52.003  1.00  0.00     0.062 C 
HETATM   30  C10 UNL     1      18.531  -0.301  52.698  1.00  0.00     0.126 C 
HETATM   31  H10 UNL     1      18.303  -2.131  53.979  1.00  0.00     0.161 HD
ENDBRANCH   4  22
TORSDOF 4
ENDMDL
MODEL 2
REMARK VINA RESULT:      -9.1      1.759      4.645
REMARK  4 active torsions:
REMARK  status: ('A' for Active; 'I' for Inactive)
REMARK    1  A    between atoms: N1_1  and  C1_2 
REMARK    2  A    between atoms: C3_5  and  C4_6 
REMARK    3  A    between atoms: C11_16  and  C12_17 
REMARK    4  A    between atoms: C12_17  and  N6_18 
ROOT
HETATM    1  C1  UNL     1      24.223   3.882  51.299  1.00  0.00     0.147 A 
HETATM    2  N2  UNL     1      22.908   4.084  51.037  1.00  0.00    -0.239 NA
HETATM    3  C2  UNL     1      21.988   3.177  51.464  1.00  0.00     0.151 A 
HETATM    4  C3  UNL     1      22.395   2.058  52.159  1.00  0.00     0.086 A 
HETATM    5  N5  UNL     1      23.704   1.885  52.402  1.00  0.00    -0.246 NA
HETATM    6  C11 UNL     1      24.658   2.772  51.990  1.00  0.00     0.097 A 
ENDROOT
BRANCH   6   7
HETATM    7  C12 UNL     1      26.076   2.481  52.290  1.00  0.00     0.202 C 
BRANCH   7   8
HETATM    8  N6  UNL     1      26.199   1.863  53.558  1.00  0.00    -0.133 NA
HETATM    9  N7  UNL     1      26.063   0.503  53.543  1.00  0.00    -0.299 N 
HETATM   10  C13 UNL     1      27.362  -0.100  53.479  1.00  0.00     0.072 A 
HETATM   11  H13 UNL     1      25.082   0.134  53.585  1.00  0.00     0.183 HD
HETATM   12  C14 UNL     1      27.663  -1.380  53.113  1.00  0.00     0.033 A 
HETATM   13  C18 UNL     1      28.215   0.904  53.868  1.00  0.00     0.072 A 
HETATM   14  C15 UNL     1      29.017  -1.695  53.143  1.00  0.00     0.002 A 
HETATM   15  C16 UNL     1      29.960  -0.744  53.524  1.00  0.00     0.002 A 
HETATM   16  C17 UNL     1      29.560   0.541  53.882  1.00  0.00     0.033 A 
HETATM   17  N8  UNL     1      27.449   2.092  54.162  1.00  0.00    -0.299 N 
HETATM   18  H18 UNL     1      27.910   2.860  54.728  1.00  0.00     0.183 HD
ENDBRANCH   7   8
ENDBRANCH   6   7
BRANCH   1  19
HETATM   19  N1  UNL     1      25.115   4.865  50.852  1.00  0.00    -0.382 N 
HETATM   20  H1  UNL     1      24.924   5.732  50.318  1.00  0.00     0.157 HD
HETATM   21  H2  UNL     1      26.066   4.526  51.189  1.00  0.00     0.157 HD
ENDBRANCH   1  19
BRANCH   4  22
HETATM   22  C4  UNL     1      21.452   1.059  52.640  1.00  0.00     0.012 A 
HETATM   23  C5  UNL     1      21.766   0.302  53.748  1.00  0.00     0.132 A 
HETATM   24  N3  UNL     1      20.905  -0.624  54.208  1.00  0.00    -0.242 NA
HETATM   25  C6  UNL     1      19.707  -0.882  53.646  1.00  0.00     0.129 A 
HETATM   26  C7  UNL     1      19.331  -0.144  52.518  1.00  0.00    -0.010 A 
HETATM   27  N4  UNL     1      18.611  -1.756  53.876  1.00  0.00    -0.374 N 
HETATM   28  C8  UNL     1      20.229   0.803  52.060  1.00  0.00     0.026 A 
HETATM   29  C9  UNL     1      17.988  -0.544  52.016  1.00  0.00     0.062 C 
HETATM   30  C10 UNL     1      17.417  -1.325  53.176  1.00  0.00     0.126 C 
HETATM   31  H10 UNL     1      18.700  -2.611  54.497  1.00  0.00     0.161 HD
ENDBRANCH   4  22
TORSDOF 4
ENDMDL
MODEL 3
REMARK VINA RESULT:      -9.0      1.443      2.058
REMARK  4 active torsions:
REMARK  status: ('A' for Active; 'I' for Inactive)
REMARK    1  A    between atoms: N1_1  and  C1_2 
REMARK    2  A    between atoms: C3_5  and  C4_6 
REMARK    3  A    between atoms: C11_16  and  C12_17 
REMARK    4  A    between atoms: C12_17  and  N6_18 
ROOT
HETATM    1  C1  UNL     1      27.420   0.585  53.583  1.00  0.00     0.147 A 
HETATM    2  N2  UNL     1      27.047  -0.477  54.340  1.00  0.00    -0.239 NA
HETATM    3  C2  UNL     1      25.732  -0.817  54.423  1.00  0.00     0.151 A 
HETATM    4  C3  UNL     1      24.786  -0.082  53.742  1.00  0.00     0.086 A 
HETATM    5  N5  UNL     1      25.185   0.965  53.002  1.00  0.00    -0.246 NA
HETATM    6  C11 UNL     1      26.496   1.338  52.893  1.00  0.00     0.097 A 
ENDROOT
BRANCH   6   7
HETATM    7  C12 UNL     1      26.832   2.518  52.070  1.00  0.00     0.202 C 
BRANCH   7   8
HETATM    8  N6  UNL     1      25.972   2.603  50.947  1.00  0.00    -0.133 NA
HETATM    9  N7  UNL     1      25.128   3.677  50.957  1.00  0.00    -0.299 N 
HETATM   10  C13 UNL     1      25.709   4.740  50.190  1.00  0.00     0.072 A 
HETATM   11  H13 UNL     1      24.233   3.560  51.491  1.00  0.00     0.183 HD
HETATM   12  C14 UNL     1      25.373   6.062  50.222  1.00  0.00     0.033 A 
HETATM   13  C18 UNL     1      26.667   4.116  49.429  1.00  0.00     0.072 A 
HETATM   14  C15 UNL     1      26.107   6.874  49.364  1.00  0.00     0.002 A 
HETATM   15  C16 UNL     1      27.101   6.335  48.552  1.00  0.00     0.002 A 
HETATM   16  C17 UNL     1      27.376   4.970  48.586  1.00  0.00     0.033 A 
HETATM   17  N8  UNL     1      26.668   2.704  49.728  1.00  0.00    -0.299 N 
HETATM   18  H18 UNL     1      27.144   2.047  49.048  1.00  0.00     0.183 HD
ENDBRANCH   7   8
ENDBRANCH   6   7
BRANCH   1  19
HETATM   19  N1  UNL     1      28.791   0.867  53.521  1.00  0.00    -0.382 N 
HETATM   20  H1  UNL     1      29.563   0.293  53.135  1.00  0.00     0.157 HD
HETATM   21  H2  UNL     1      28.879   1.828  53.969  1.00  0.00     0.157 HD
ENDBRANCH   1  19
BRANCH   4  22
HETATM   22  C4  UNL     1      23.368  -0.405  53.795  1.00  0.00     0.012 A 
HETATM   23  C5  UNL     1      22.875  -1.148  54.846  1.00  0.00     0.132 A 
HETATM   24  N3  UNL     1      21.567  -1.454  54.912  1.00  0.00    -0.242 NA
HETATM   25  C6  UNL     1      20.658  -1.074  53.991  1.00  0.00     0.129 A 
HETATM   26  C7  UNL     1      21.098  -0.316  52.900  1.00  0.00    -0.010 A 
HETATM   27  N4  UNL     1      19.262  -1.225  53.775  1.00  0.00    -0.374 N 
HETATM   28  C8  UNL     1      22.446  -0.011  52.850  1.00  0.00     0.026 A 
HETATM   29  C9  UNL     1      19.982   0.024  51.975  1.00  0.00     0.062 C 
HETATM   30  C10 UNL     1      18.757  -0.272  52.808  1.00  0.00     0.126 C 
HETATM   31  H10 UNL     1      18.696  -1.962  54.286  1.00  0.00     0.161 HD
ENDBRANCH   4  22
TORSDOF 4
ENDMDL
MODEL 4
REMARK VINA RESULT:      -8.7      2.787      5.773
REMARK  4 active torsions:
REMARK  status: ('A' for Active; 'I' for Inactive)
REMARK    1  A    between atoms: N1_1  and  C1_2 
REMARK    2  A    between atoms: C3_5  and  C4_6 
REMARK    3  A    between atoms: C11_16  and  C12_17 
REMARK    4  A    between atoms: C12_17  and  N6_18 
ROOT
HETATM    1  C1  UNL     1      21.414   2.993  52.248  1.00  0.00     0.147 A 
HETATM    2  N2  UNL     1      21.352   1.693  52.631  1.00  0.00    -0.239 NA
HETATM    3  C2  UNL     1      22.493   1.039  52.980  1.00  0.00     0.151 A 
HETATM    4  C3  UNL     1      23.703   1.696  52.943  1.00  0.00     0.086 A 
HETATM    5  N5  UNL     1      23.733   2.982  52.559  1.00  0.00    -0.246 NA
HETATM    6  C11 UNL     1      22.610   3.675  52.200  1.00  0.00     0.097 A 
ENDROOT
BRANCH   6   7
HETATM    7  C12 UNL     1      22.750   5.081  51.772  1.00  0.00     0.202 C 
BRANCH   7   8
HETATM    8  N6  UNL     1      24.088   5.517  51.926  1.00  0.00    -0.133 NA
HETATM    9  N7  UNL     1      24.929   5.139  50.917  1.00  0.00    -0.299 N 
HETATM   10  C13 UNL     1      25.030   6.203  49.962  1.00  0.00     0.072 A 
HETATM   11  H13 UNL     1      25.351   4.182  50.999  1.00  0.00     0.183 HD
HETATM   12  C14 UNL     1      25.477   6.120  48.675  1.00  0.00     0.033 A 
HETATM   13  C18 UNL     1      24.576   7.306  50.644  1.00  0.00     0.072 A 
HETATM   14  C15 UNL     1      25.466   7.320  47.973  1.00  0.00     0.002 A 
HETATM   15  C16 UNL     1      25.023   8.494  48.577  1.00  0.00     0.002 A 
HETATM   16  C17 UNL     1      24.583   8.483  49.898  1.00  0.00     0.033 A 
HETATM   17  N8  UNL     1      24.207   6.919  51.985  1.00  0.00    -0.299 N 
HETATM   18  H18 UNL     1      24.099   7.678  52.714  1.00  0.00     0.183 HD
ENDBRANCH   7   8
ENDBRANCH   6   7
BRANCH   1  19
HETATM   19  N1  UNL     1      20.201   3.614  51.924  1.00  0.00    -0.382 N 
HETATM   20  H1  UNL     1      19.615   3.510  51.076  1.00  0.00     0.157 HD
HETATM   21  H2  UNL     1      19.997   4.239  52.761  1.00  0.00     0.157 HD
ENDBRANCH   1  19
BRANCH   4  22
HETATM   22  C4  UNL     1      24.952   1.043  53.309  1.00  0.00     0.012 A 
HETATM   23  C5  UNL     1      24.941  -0.274  53.712  1.00  0.00     0.132 A 
HETATM   24  N3  UNL     1      26.085  -0.894  54.053  1.00  0.00    -0.242 NA
HETATM   25  C6  UNL     1      27.297  -0.302  54.030  1.00  0.00     0.129 A 
HETATM   26  C7  UNL     1      27.372   1.037  53.629  1.00  0.00    -0.010 A 
HETATM   27  N4  UNL     1      28.641  -0.660  54.316  1.00  0.00    -0.374 N 
HETATM   28  C8  UNL     1      26.185   1.657  53.282  1.00  0.00     0.026 A 
HETATM   29  C9  UNL     1      28.771   1.545  53.657  1.00  0.00     0.062 C 
HETATM   30  C10 UNL     1      29.586   0.276  53.743  1.00  0.00     0.126 C 
HETATM   31  H10 UNL     1      28.879  -1.522  54.886  1.00  0.00     0.161 HD
ENDBRANCH   4  22
TORSDOF 4
ENDMDL
MODEL 5
REMARK VINA RESULT:      -8.7      2.365      5.660
REMARK  4 active torsions:
REMARK  status: ('A' for Active; 'I' for Inactive)
REMARK    1  A    between atoms: N1_1  and  C1_2 
REMARK    2  A    between atoms: C3_5  and  C4_6 
REMARK    3  A    between atoms: C11_16  and  C12_17 
REMARK    4  A    between atoms: C12_17  and  N6_18 
ROOT
HETATM    1  C1  UNL     1      21.104   2.306  52.037  1.00  0.00     0.147 A 
HETATM    2  N2  UNL     1      21.137   1.123  52.700  1.00  0.00    -0.239 NA
HETATM    3  C2  UNL     1      22.321   0.648  53.171  1.00  0.00     0.151 A 
HETATM    4  C3  UNL     1      23.480   1.366  52.972  1.00  0.00     0.086 A 
HETATM    5  N5  UNL     1      23.416   2.532  52.311  1.00  0.00    -0.246 NA
HETATM    6  C11 UNL     1      22.247   3.044  51.822  1.00  0.00     0.097 A 
ENDROOT
BRANCH   6   7
HETATM    7  C12 UNL     1      22.284   4.327  51.090  1.00  0.00     0.202 C 
BRANCH   7   8
HETATM    8  N6  UNL     1      22.564   4.108  49.719  1.00  0.00    -0.133 NA
HETATM    9  N7  UNL     1      23.084   5.189  49.065  1.00  0.00    -0.299 N 
HETATM   10  C13 UNL     1      24.514   5.086  49.045  1.00  0.00     0.072 A 
HETATM   11  H13 UNL     1      22.392   5.885  48.695  1.00  0.00     0.183 HD
HETATM   12  C14 UNL     1      25.412   6.084  48.803  1.00  0.00     0.033 A 
HETATM   13  C18 UNL     1      24.756   3.762  49.322  1.00  0.00     0.072 A 
HETATM   14  C15 UNL     1      26.746   5.695  48.847  1.00  0.00     0.002 A 
HETATM   15  C16 UNL     1      27.093   4.375  49.120  1.00  0.00     0.002 A 
HETATM   16  C17 UNL     1      26.107   3.421  49.355  1.00  0.00     0.033 A 
HETATM   17  N8  UNL     1      23.499   3.077  49.507  1.00  0.00    -0.299 N 
HETATM   18  H18 UNL     1      23.492   2.019  49.456  1.00  0.00     0.183 HD
ENDBRANCH   7   8
ENDBRANCH   6   7
BRANCH   1  19
HETATM   19  N1  UNL     1      19.849   2.750  51.599  1.00  0.00    -0.382 N 
HETATM   20  H1  UNL     1      19.128   2.247  51.050  1.00  0.00     0.157 HD
HETATM   21  H2  UNL     1      19.786   3.749  51.961  1.00  0.00     0.157 HD
ENDBRANCH   1  19
BRANCH   4  22
HETATM   22  C4  UNL     1      24.772   0.903  53.458  1.00  0.00     0.012 A 
HETATM   23  C5  UNL     1      24.865  -0.315  54.096  1.00  0.00     0.132 A 
HETATM   24  N3  UNL     1      26.051  -0.759  54.550  1.00  0.00    -0.242 NA
HETATM   25  C6  UNL     1      27.208  -0.077  54.424  1.00  0.00     0.129 A 
HETATM   26  C7  UNL     1      27.177   1.167  53.784  1.00  0.00    -0.010 A 
HETATM   27  N4  UNL     1      28.572  -0.257  54.777  1.00  0.00    -0.374 N 
HETATM   28  C8  UNL     1      25.948   1.607  53.324  1.00  0.00     0.026 A 
HETATM   29  C9  UNL     1      28.526   1.793  53.724  1.00  0.00     0.062 C 
HETATM   30  C10 UNL     1      29.445   0.638  54.045  1.00  0.00     0.126 C 
HETATM   31  H10 UNL     1      28.871  -0.977  55.497  1.00  0.00     0.161 HD
ENDBRANCH   4  22
TORSDOF 4
ENDMDL
MODEL 6
REMARK VINA RESULT:      -8.7      2.036      5.860
REMARK  4 active torsions:
REMARK  status: ('A' for Active; 'I' for Inactive)
REMARK    1  A    between atoms: N1_1  and  C1_2 
REMARK    2  A    between atoms: C3_5  and  C4_6 
REMARK    3  A    between atoms: C11_16  and  C12_17 
REMARK    4  A    between atoms: C12_17  and  N6_18 
ROOT
HETATM    1  C1  UNL     1      21.446  -1.069  54.110  1.00  0.00     0.147 A 
HETATM    2  N2  UNL     1      22.262  -1.427  55.133  1.00  0.00    -0.239 NA
HETATM    3  C2  UNL     1      23.584  -1.108  55.083  1.00  0.00     0.151 A 
HETATM    4  C3  UNL     1      24.088  -0.426  53.998  1.00  0.00     0.086 A 
HETATM    5  N5  UNL     1      23.257  -0.086  53.000  1.00  0.00    -0.246 NA
HETATM    6  C11 UNL     1      21.923  -0.387  53.012  1.00  0.00     0.097 A 
ENDROOT
BRANCH   6   7
HETATM    7  C12 UNL     1      21.095   0.012  51.856  1.00  0.00     0.202 C 
BRANCH   7   8
HETATM    8  N6  UNL     1      20.811   1.399  51.904  1.00  0.00    -0.133 NA
HETATM    9  N7  UNL     1      21.907   2.198  52.073  1.00  0.00    -0.299 N 
HETATM   10  C13 UNL     1      22.357   2.660  50.793  1.00  0.00     0.072 A 
HETATM   11  H13 UNL     1      22.225   2.345  53.062  1.00  0.00     0.183 HD
HETATM   12  C14 UNL     1      23.579   3.183  50.486  1.00  0.00     0.033 A 
HETATM   13  C18 UNL     1      21.279   2.452  49.967  1.00  0.00     0.072 A 
HETATM   14  C15 UNL     1      23.740   3.550  49.154  1.00  0.00     0.002 A 
HETATM   15  C16 UNL     1      22.705   3.379  48.239  1.00  0.00     0.002 A 
HETATM   16  C17 UNL     1      21.489   2.835  48.643  1.00  0.00     0.033 A 
HETATM   17  N8  UNL     1      20.198   1.876  50.730  1.00  0.00    -0.299 N 
HETATM   18  H18 UNL     1      19.222   1.906  50.320  1.00  0.00     0.183 HD
ENDBRANCH   7   8
ENDBRANCH   6   7
BRANCH   1  19
HETATM   19  N1  UNL     1      20.092  -1.407  54.234  1.00  0.00    -0.382 N 
HETATM   20  H1  UNL     1      19.660  -2.234  54.684  1.00  0.00     0.157 HD
HETATM   21  H2  UNL     1      19.580  -0.607  53.753  1.00  0.00     0.157 HD
ENDBRANCH   1  19
BRANCH   4  22
HETATM   22  C4  UNL     1      25.493  -0.058  53.897  1.00  0.00     0.012 A 
HETATM   23  C5  UNL     1      25.874   1.248  54.113  1.00  0.00     0.132 A 
HETATM   24  N3  UNL     1      27.168   1.605  54.026  1.00  0.00    -0.242 NA
HETATM   25  C6  UNL     1      28.167   0.748  53.732  1.00  0.00     0.129 A 
HETATM   26  C7  UNL     1      27.842  -0.594  53.503  1.00  0.00    -0.010 A 
HETATM   27  N4  UNL     1      29.577   0.801  53.571  1.00  0.00    -0.374 N 
HETATM   28  C8  UNL     1      26.507  -0.942  53.597  1.00  0.00     0.026 A 
HETATM   29  C9  UNL     1      29.048  -1.410  53.192  1.00  0.00     0.062 C 
HETATM   30  C10 UNL     1      30.181  -0.515  53.633  1.00  0.00     0.126 C 
HETATM   31  H10 UNL     1      30.088   1.720  53.426  1.00  0.00     0.161 HD
ENDBRANCH   4  22
TORSDOF 4
ENDMDL
MODEL 7
REMARK VINA RESULT:      -8.4      3.110      5.952
REMARK  4 active torsions:
REMARK  status: ('A' for Active; 'I' for Inactive)
REMARK    1  A    between atoms: N1_1  and  C1_2 
REMARK    2  A    between atoms: C3_5  and  C4_6 
REMARK    3  A    between atoms: C11_16  and  C12_17 
REMARK    4  A    between atoms: C12_17  and  N6_18 
ROOT
HETATM    1  C1  UNL     1      22.256   5.645  51.475  1.00  0.00     0.147 A 
HETATM    2  N2  UNL     1      21.500   4.618  51.938  1.00  0.00    -0.239 NA
HETATM    3  C2  UNL     1      22.097   3.450  52.298  1.00  0.00     0.151 A 
HETATM    4  C3  UNL     1      23.464   3.314  52.192  1.00  0.00     0.086 A 
HETATM    5  N5  UNL     1      24.186   4.347  51.730  1.00  0.00    -0.246 NA
HETATM    6  C11 UNL     1      23.625   5.536  51.357  1.00  0.00     0.097 A 
ENDROOT
BRANCH   6   7
HETATM    7  C12 UNL     1      24.503   6.606  50.841  1.00  0.00     0.202 C 
BRANCH   7   8
HETATM    8  N6  UNL     1      24.597   6.534  49.430  1.00  0.00    -0.133 NA
HETATM    9  N7  UNL     1      25.383   7.497  48.862  1.00  0.00    -0.299 N 
HETATM   10  C13 UNL     1      26.700   6.972  48.658  1.00  0.00     0.072 A 
HETATM   11  H13 UNL     1      24.920   8.419  48.670  1.00  0.00     0.183 HD
HETATM   12  C14 UNL     1      27.848   7.678  48.440  1.00  0.00     0.033 A 
HETATM   13  C18 UNL     1      26.531   5.611  48.732  1.00  0.00     0.072 A 
HETATM   14  C15 UNL     1      28.990   6.903  48.273  1.00  0.00     0.002 A 
HETATM   15  C16 UNL     1      28.921   5.514  48.332  1.00  0.00     0.002 A 
HETATM   16  C17 UNL     1      27.704   4.877  48.559  1.00  0.00     0.033 A 
HETATM   17  N8  UNL     1      25.140   5.316  48.977  1.00  0.00    -0.299 N 
HETATM   18  H18 UNL     1      24.795   4.332  48.793  1.00  0.00     0.183 HD
ENDBRANCH   7   8
ENDBRANCH   6   7
BRANCH   1  19
HETATM   19  N1  UNL     1      21.582   6.827  51.144  1.00  0.00    -0.382 N 
HETATM   20  H1  UNL     1      21.686   7.431  50.308  1.00  0.00     0.157 HD
HETATM   21  H2  UNL     1      20.913   6.982  51.957  1.00  0.00     0.157 HD
ENDBRANCH   1  19
BRANCH   4  22
HETATM   22  C4  UNL     1      24.153   2.087  52.567  1.00  0.00     0.012 A 
HETATM   23  C5  UNL     1      23.423   0.993  52.978  1.00  0.00     0.132 A 
HETATM   24  N3  UNL     1      24.042  -0.149  53.326  1.00  0.00    -0.242 NA
HETATM   25  C6  UNL     1      25.380  -0.315  53.305  1.00  0.00     0.129 A 
HETATM   26  C7  UNL     1      26.176   0.761  52.896  1.00  0.00    -0.010 A 
HETATM   27  N4  UNL     1      26.310  -1.349  53.598  1.00  0.00    -0.374 N 
HETATM   28  C8  UNL     1      25.520   1.927  52.542  1.00  0.00     0.026 A 
HETATM   29  C9  UNL     1      27.625   0.422  52.927  1.00  0.00     0.062 C 
HETATM   30  C10 UNL     1      27.614  -1.085  53.023  1.00  0.00     0.126 C 
HETATM   31  H10 UNL     1      26.038  -2.197  54.174  1.00  0.00     0.161 HD
ENDBRANCH   4  22
TORSDOF 4
ENDMDL
MODEL 8
REMARK VINA RESULT:      -8.4      2.863      8.030
REMARK  4 active torsions:
REMARK  status: ('A' for Active; 'I' for Inactive)
REMARK    1  A    between atoms: N1_1  and  C1_2 
REMARK    2  A    between atoms: C3_5  and  C4_6 
REMARK    3  A    between atoms: C11_16  and  C12_17 
REMARK    4  A    between atoms: C12_17  and  N6_18 
ROOT
HETATM    1  C1  UNL     1      22.706   2.728  51.633  1.00  0.00     0.147 A 
HETATM    2  N2  UNL     1      22.240   3.887  51.103  1.00  0.00    -0.239 NA
HETATM    3  C2  UNL     1      23.080   4.690  50.395  1.00  0.00     0.151 A 
HETATM    4  C3  UNL     1      24.398   4.325  50.221  1.00  0.00     0.086 A 
HETATM    5  N5  UNL     1      24.830   3.173  50.758  1.00  0.00    -0.246 NA
HETATM    6  C11 UNL     1      24.018   2.339  51.475  1.00  0.00     0.097 A 
ENDROOT
BRANCH   6   7
HETATM    7  C12 UNL     1      24.594   1.103  52.044  1.00  0.00     0.202 C 
BRANCH   7   8
HETATM    8  N6  UNL     1      24.944   1.298  53.403  1.00  0.00    -0.133 NA
HETATM    9  N7  UNL     1      25.617   0.254  53.971  1.00  0.00    -0.299 N 
HETATM   10  C13 UNL     1      27.026   0.507  53.904  1.00  0.00     0.072 A 
HETATM   11  H13 UNL     1      25.027  -0.526  54.353  1.00  0.00     0.183 HD
HETATM   12  C14 UNL     1      28.037  -0.399  54.042  1.00  0.00     0.033 A 
HETATM   13  C18 UNL     1      27.110   1.859  53.673  1.00  0.00     0.072 A 
HETATM   14  C15 UNL     1      29.318   0.131  53.930  1.00  0.00     0.002 A 
HETATM   15  C16 UNL     1      29.507   1.491  53.696  1.00  0.00     0.002 A 
HETATM   16  C17 UNL     1      28.413   2.343  53.568  1.00  0.00     0.033 A 
HETATM   17  N8  UNL     1      25.779   2.413  53.601  1.00  0.00    -0.299 N 
HETATM   18  H18 UNL     1      25.666   3.461  53.700  1.00  0.00     0.183 HD
ENDBRANCH   7   8
ENDBRANCH   6   7
BRANCH   1  19
HETATM   19  N1  UNL     1      21.784   1.937  52.330  1.00  0.00    -0.382 N 
HETATM   20  H1  UNL     1      21.256   2.150  53.196  1.00  0.00     0.157 HD
HETATM   21  H2  UNL     1      21.734   1.037  51.764  1.00  0.00     0.157 HD
ENDBRANCH   1  19
BRANCH   4  22
HETATM   22  C4  UNL     1      25.336   5.146  49.470  1.00  0.00     0.012 A 
HETATM   23  C5  UNL     1      24.923   6.354  48.950  1.00  0.00     0.132 A 
HETATM   24  N3  UNL     1      25.778   7.126  48.255  1.00  0.00    -0.242 NA
HETATM   25  C6  UNL     1      27.064   6.798  48.016  1.00  0.00     0.129 A 
HETATM   26  C7  UNL     1      27.542   5.583  48.520  1.00  0.00    -0.010 A 
HETATM   27  N4  UNL     1      28.181   7.367  47.347  1.00  0.00    -0.374 N 
HETATM   28  C8  UNL     1      26.649   4.803  49.232  1.00  0.00     0.026 A 
HETATM   29  C9  UNL     1      28.974   5.366  48.174  1.00  0.00     0.062 C 
HETATM   30  C10 UNL     1      29.426   6.741  47.743  1.00  0.00     0.126 C 
HETATM   31  H10 UNL     1      28.069   8.157  46.648  1.00  0.00     0.161 HD
ENDBRANCH   4  22
TORSDOF 4
ENDMDL
MODEL 9
REMARK VINA RESULT:      -8.1      5.074     10.218
REMARK  4 active torsions:
REMARK  status: ('A' for Active; 'I' for Inactive)
REMARK    1  A    between atoms: N1_1  and  C1_2 
REMARK    2  A    between atoms: C3_5  and  C4_6 
REMARK    3  A    between atoms: C11_16  and  C12_17 
REMARK    4  A    between atoms: C12_17  and  N6_18 
ROOT
HETATM    1  C1  UNL     1      26.271   5.737  48.699  1.00  0.00     0.147 A 
HETATM    2  N2  UNL     1      26.805   6.850  48.137  1.00  0.00    -0.239 NA
HETATM    3  C2  UNL     1      28.132   6.883  47.837  1.00  0.00     0.151 A 
HETATM    4  C3  UNL     1      28.926   5.790  48.106  1.00  0.00     0.086 A 
HETATM    5  N5  UNL     1      28.370   4.703  48.663  1.00  0.00    -0.246 NA
HETATM    6  C11 UNL     1      27.042   4.630  48.979  1.00  0.00     0.097 A 
ENDROOT
BRANCH   6   7
HETATM    7  C12 UNL     1      26.528   3.396  49.609  1.00  0.00     0.202 C 
BRANCH   7   8
HETATM    8  N6  UNL     1      26.385   3.575  51.007  1.00  0.00    -0.133 NA
HETATM    9  N7  UNL     1      25.155   3.242  51.500  1.00  0.00    -0.299 N 
HETATM   10  C13 UNL     1      25.193   1.899  51.999  1.00  0.00     0.072 A 
HETATM   11  H13 UNL     1      24.416   3.985  51.444  1.00  0.00     0.183 HD
HETATM   12  C14 UNL     1      24.132   1.082  52.256  1.00  0.00     0.033 A 
HETATM   13  C18 UNL     1      26.534   1.640  52.153  1.00  0.00     0.072 A 
HETATM   14  C15 UNL     1      24.466  -0.180  52.737  1.00  0.00     0.002 A 
HETATM   15  C16 UNL     1      25.798  -0.537  52.927  1.00  0.00     0.002 A 
HETATM   16  C17 UNL     1      26.819   0.364  52.637  1.00  0.00     0.033 A 
HETATM   17  N8  UNL     1      27.292   2.802  51.755  1.00  0.00    -0.299 N 
HETATM   18  H18 UNL     1      28.303   2.871  52.064  1.00  0.00     0.183 HD
ENDBRANCH   7   8
ENDBRANCH   6   7
BRANCH   1  19
HETATM   19  N1  UNL     1      24.895   5.759  48.960  1.00  0.00    -0.382 N 
HETATM   20  H1  UNL     1      24.385   5.499  49.824  1.00  0.00     0.157 HD
HETATM   21  H2  UNL     1      24.464   6.115  48.054  1.00  0.00     0.157 HD
ENDBRANCH   1  19
BRANCH   4  22
HETATM   22  C4  UNL     1      30.350   5.773  47.803  1.00  0.00     0.012 A 
HETATM   23  C5  UNL     1      31.073   6.945  47.851  1.00  0.00     0.132 A 
HETATM   24  N3  UNL     1      32.389   6.947  47.575  1.00  0.00    -0.242 NA
HETATM   25  C6  UNL     1      33.090   5.844  47.240  1.00  0.00     0.129 A 
HETATM   26  C7  UNL     1      32.410   4.623  47.175  1.00  0.00    -0.010 A 
HETATM   27  N4  UNL     1      34.431   5.520  46.904  1.00  0.00    -0.374 N 
HETATM   28  C8  UNL     1      31.057   4.641  47.462  1.00  0.00     0.026 A 
HETATM   29  C9  UNL     1      33.316   3.505  46.793  1.00  0.00     0.062 C 
HETATM   30  C10 UNL     1      34.688   4.098  47.010  1.00  0.00     0.126 C 
HETATM   31  H10 UNL     1      35.129   6.264  46.616  1.00  0.00     0.161 HD
ENDBRANCH   4  22
TORSDOF 4
ENDMDL
