MODEL 1
REMARK VINA RESULT:      -9.0      0.000      0.000
REMARK  2 active torsions:
REMARK  status: ('A' for Active; 'I' for Inactive)
REMARK    1  A    between atoms: C16_22  and  N5_23 
REMARK    2  A    between atoms: N5_23  and  C17_24 
ROOT
HETATM    1  O1  UNL     1      24.520   6.681  51.521  1.00  0.00    -0.128 OA
HETATM    2  C1  UNL     1      23.802   6.036  52.291  1.00  0.00     0.433 A 
HETATM    3  C2  UNL     1      22.734   5.162  52.282  1.00  0.00    -0.026 C 
HETATM    4  C3  UNL     1      21.881   4.455  52.255  1.00  0.00    -0.100 C 
HETATM    5  C4  UNL     1      20.790   3.545  52.194  1.00  0.00     0.124 C 
HETATM    6  C5  UNL     1      20.753   3.080  50.673  1.00  0.00     0.285 C 
HETATM    7  N1  UNL     1      21.982   2.432  50.382  1.00  0.00     0.102 NA
HETATM    8  C6  UNL     1      21.736   0.957  50.353  1.00  0.00     0.299 C 
HETATM    9  C7  UNL     1      21.101   0.589  49.054  1.00  0.00     0.198 C 
HETATM   10  O2  UNL     1      21.744   1.073  47.939  1.00  0.00    -0.387 OA
HETATM   11  C8  UNL     1      21.884   2.452  48.034  1.00  0.00     0.208 C 
HETATM   12  C9  UNL     1      22.771   2.717  49.262  1.00  0.00     0.283 C 
HETATM   13  C10 UNL     1      23.622   3.830  49.054  1.00  0.00     0.027 C 
HETATM   14  C11 UNL     1      23.907   5.060  48.440  1.00  0.00     0.074 C 
HETATM   15  C12 UNL     1      23.701   6.218  49.257  1.00  0.00     0.265 C 
HETATM   16  N2  UNL     1      23.540   7.500  48.791  1.00  0.00    -0.233 NA
HETATM   17  C13 UNL     1      24.625   8.153  48.308  1.00  0.00     0.138 C 
HETATM   18  C14 UNL     1      25.877   7.573  48.521  1.00  0.00     0.137 C 
HETATM   19  N3  UNL     1      26.651   6.491  48.337  1.00  0.00    -0.253 NA
HETATM   20  C15 UNL     1      26.411   5.377  49.044  1.00  0.00     0.234 C 
HETATM   21  N4  UNL     1      26.127   4.190  49.541  1.00  0.00    -0.224 NA
HETATM   22  C16 UNL     1      24.861   3.783  49.743  1.00  0.00     0.138 C 
HETATM   23  N6  UNL     1      23.704   6.093  50.764  1.00  0.00     0.149 N 
HETATM   24  H20 UNL     1      22.839   5.693  50.218  1.00  0.00     0.332 HD
ENDROOT
BRANCH  22  25
HETATM   25  N5  UNL     1      25.052   3.179  51.021  1.00  0.00    -0.340 N 
HETATM   26  H16 UNL     1      24.861   3.946  51.739  1.00  0.00     0.167 HD
BRANCH  25  27
HETATM   27  C17 UNL     1      25.387   1.951  51.676  1.00  0.00     0.035 A 
HETATM   28  C18 UNL     1      26.628   1.359  51.499  1.00  0.00     0.032 A 
HETATM   29  C19 UNL     1      26.868   0.200  52.163  1.00  0.00     0.046 A 
HETATM   30  C20 UNL     1      25.920  -0.345  52.963  1.00  0.00     0.138 A 
HETATM   31  F1  UNL     1      26.295  -1.501  53.560  1.00  0.00    -0.204 F 
HETATM   32  C21 UNL     1      24.690   0.200  53.165  1.00  0.00     0.074 A 
HETATM   33 CL1  UNL     1      23.556  -0.623  54.236  1.00  0.00    -0.081 Cl
HETATM   34  C22 UNL     1      24.436   1.381  52.494  1.00  0.00     0.056 A 
ENDBRANCH  25  27
ENDBRANCH  22  25
TORSDOF 2
ENDMDL
MODEL 2
REMARK VINA RESULT:      -8.6      0.961      1.279
REMARK  2 active torsions:
REMARK  status: ('A' for Active; 'I' for Inactive)
REMARK    1  A    between atoms: C16_22  and  N5_23 
REMARK    2  A    between atoms: N5_23  and  C17_24 
ROOT
HETATM    1  O1  UNL     1      24.688   6.766  51.214  1.00  0.00    -0.128 OA
HETATM    2  C1  UNL     1      23.847   6.273  51.971  1.00  0.00     0.433 A 
HETATM    3  C2  UNL     1      22.721   5.476  51.951  1.00  0.00    -0.026 C 
HETATM    4  C3  UNL     1      21.823   4.828  51.915  1.00  0.00    -0.100 C 
HETATM    5  C4  UNL     1      20.677   3.989  51.843  1.00  0.00     0.124 C 
HETATM    6  C5  UNL     1      20.759   3.336  50.396  1.00  0.00     0.285 C 
HETATM    7  N1  UNL     1      21.958   2.579  50.323  1.00  0.00     0.102 NA
HETATM    8  C6  UNL     1      21.601   1.130  50.447  1.00  0.00     0.299 C 
HETATM    9  C7  UNL     1      21.076   0.640  49.139  1.00  0.00     0.198 C 
HETATM   10  O2  UNL     1      21.864   0.934  48.052  1.00  0.00    -0.387 OA
HETATM   11  C8  UNL     1      22.101   2.302  47.994  1.00  0.00     0.208 C 
HETATM   12  C9  UNL     1      22.876   2.665  49.271  1.00  0.00     0.283 C 
HETATM   13  C10 UNL     1      23.828   3.685  49.026  1.00  0.00     0.027 C 
HETATM   14  C11 UNL     1      24.269   4.805  48.303  1.00  0.00     0.074 C 
HETATM   15  C12 UNL     1      24.070   6.069  48.946  1.00  0.00     0.265 C 
HETATM   16  N2  UNL     1      24.057   7.288  48.313  1.00  0.00    -0.233 NA
HETATM   17  C13 UNL     1      25.234   7.803  47.877  1.00  0.00     0.138 C 
HETATM   18  C14 UNL     1      26.409   7.175  48.297  1.00  0.00     0.137 C 
HETATM   19  N3  UNL     1      27.111   6.032  48.332  1.00  0.00    -0.253 NA
HETATM   20  C15 UNL     1      26.715   5.035  49.138  1.00  0.00     0.234 C 
HETATM   21  N4  UNL     1      26.291   3.943  49.740  1.00  0.00    -0.224 NA
HETATM   22  C16 UNL     1      24.983   3.648  49.849  1.00  0.00     0.138 C 
HETATM   23  N6  UNL     1      23.910   6.140  50.448  1.00  0.00     0.149 N 
HETATM   24  H20 UNL     1      23.077   5.729  49.861  1.00  0.00     0.332 HD
ENDROOT
BRANCH  22  25
HETATM   25  N5  UNL     1      24.994   3.203  51.203  1.00  0.00    -0.340 N 
HETATM   26  H16 UNL     1      24.893   4.081  51.802  1.00  0.00     0.167 HD
BRANCH  25  27
HETATM   27  C17 UNL     1      25.081   2.039  52.032  1.00  0.00     0.035 A 
HETATM   28  C18 UNL     1      24.026   1.657  52.846  1.00  0.00     0.032 A 
HETATM   29  C19 UNL     1      24.187   0.536  53.594  1.00  0.00     0.046 A 
HETATM   30  C20 UNL     1      25.341  -0.170  53.537  1.00  0.00     0.138 A 
HETATM   31  F1  UNL     1      25.363  -1.263  54.337  1.00  0.00    -0.204 F 
HETATM   32  C21 UNL     1      26.402   0.167  52.755  1.00  0.00     0.074 A 
HETATM   33 CL1  UNL     1      27.843  -0.850  52.784  1.00  0.00    -0.081 Cl
HETATM   34  C22 UNL     1      26.248   1.306  51.989  1.00  0.00     0.056 A 
ENDBRANCH  25  27
ENDBRANCH  22  25
TORSDOF 2
ENDMDL
MODEL 3
REMARK VINA RESULT:      -8.5      2.598      5.913
REMARK  2 active torsions:
REMARK  status: ('A' for Active; 'I' for Inactive)
REMARK    1  A    between atoms: C16_22  and  N5_23 
REMARK    2  A    between atoms: N5_23  and  C17_24 
ROOT
HETATM    1  O1  UNL     1      19.935   1.070  49.511  1.00  0.00    -0.128 OA
HETATM    2  C1  UNL     1      21.170   1.063  49.502  1.00  0.00     0.433 A 
HETATM    3  C2  UNL     1      22.246   1.904  49.310  1.00  0.00    -0.026 C 
HETATM    4  C3  UNL     1      23.097   2.596  49.159  1.00  0.00    -0.100 C 
HETATM    5  C4  UNL     1      24.174   3.507  48.968  1.00  0.00     0.124 C 
HETATM    6  C5  UNL     1      23.499   4.942  49.090  1.00  0.00     0.285 C 
HETATM    7  N1  UNL     1      22.950   5.059  50.394  1.00  0.00     0.102 NA
HETATM    8  C6  UNL     1      23.857   5.931  51.205  1.00  0.00     0.299 C 
HETATM    9  C7  UNL     1      23.614   7.359  50.848  1.00  0.00     0.198 C 
HETATM   10  O2  UNL     1      22.295   7.746  50.872  1.00  0.00    -0.387 OA
HETATM   11  C8  UNL     1      21.542   6.910  50.056  1.00  0.00     0.208 C 
HETATM   12  C9  UNL     1      21.649   5.500  50.658  1.00  0.00     0.283 C 
HETATM   13  C10 UNL     1      20.437   4.781  50.508  1.00  0.00     0.027 C 
HETATM   14  C11 UNL     1      19.240   4.522  49.823  1.00  0.00     0.074 C 
HETATM   15  C12 UNL     1      19.253   3.364  48.979  1.00  0.00     0.265 C 
HETATM   16  N2  UNL     1      18.378   3.124  47.948  1.00  0.00    -0.233 NA
HETATM   17  C13 UNL     1      17.103   2.772  48.249  1.00  0.00     0.138 C 
HETATM   18  C14 UNL     1      16.818   2.454  49.579  1.00  0.00     0.137 C 
HETATM   19  N3  UNL     1      16.829   2.876  50.853  1.00  0.00    -0.253 NA
HETATM   20  C15 UNL     1      17.996   2.987  51.505  1.00  0.00     0.234 C 
HETATM   21  N4  UNL     1      19.097   3.315  52.150  1.00  0.00    -0.224 NA
HETATM   22  C16 UNL     1      20.171   3.823  51.520  1.00  0.00     0.138 C 
HETATM   23  N6  UNL     1      20.250   2.255  49.228  1.00  0.00     0.149 N 
HETATM   24  H20 UNL     1      20.624   3.198  48.806  1.00  0.00     0.332 HD
ENDROOT
BRANCH  22  25
HETATM   25  N5  UNL     1      21.172   3.072  52.204  1.00  0.00    -0.340 N 
HETATM   26  H16 UNL     1      22.015   3.720  52.292  1.00  0.00     0.167 HD
BRANCH  25  27
HETATM   27  C17 UNL     1      21.449   1.804  52.807  1.00  0.00     0.035 A 
HETATM   28  C18 UNL     1      20.434   1.022  53.335  1.00  0.00     0.032 A 
HETATM   29  C19 UNL     1      20.782  -0.170  53.882  1.00  0.00     0.046 A 
HETATM   30  C20 UNL     1      22.077  -0.567  53.903  1.00  0.00     0.138 A 
HETATM   31  F1  UNL     1      22.278  -1.776  54.479  1.00  0.00    -0.204 F 
HETATM   32  C21 UNL     1      23.105   0.166  53.398  1.00  0.00     0.074 A 
HETATM   33 CL1  UNL     1      24.744  -0.479  53.496  1.00  0.00    -0.081 Cl
HETATM   34  C22 UNL     1      22.762   1.382  52.838  1.00  0.00     0.056 A 
ENDBRANCH  25  27
ENDBRANCH  22  25
TORSDOF 2
ENDMDL
MODEL 4
REMARK VINA RESULT:      -8.0      5.727      8.537
REMARK  2 active torsions:
REMARK  status: ('A' for Active; 'I' for Inactive)
REMARK    1  A    between atoms: C16_22  and  N5_23 
REMARK    2  A    between atoms: N5_23  and  C17_24 
ROOT
HETATM    1  O1  UNL     1      31.678   8.335  49.703  1.00  0.00    -0.128 OA
HETATM    2  C1  UNL     1      30.858   9.240  49.888  1.00  0.00     0.433 A 
HETATM    3  C2  UNL     1      29.994  10.062  49.195  1.00  0.00    -0.026 C 
HETATM    4  C3  UNL     1      29.300  10.708  48.622  1.00  0.00    -0.100 C 
HETATM    5  C4  UNL     1      28.412  11.522  47.865  1.00  0.00     0.124 C 
HETATM    6  C5  UNL     1      28.317  10.792  46.455  1.00  0.00     0.285 C 
HETATM    7  N1  UNL     1      27.776   9.496  46.667  1.00  0.00     0.102 NA
HETATM    8  C6  UNL     1      26.345   9.512  46.231  1.00  0.00     0.299 C 
HETATM    9  C7  UNL     1      26.283   9.421  44.744  1.00  0.00     0.198 C 
HETATM   10  O2  UNL     1      27.026   8.402  44.195  1.00  0.00    -0.387 OA
HETATM   11  C8  UNL     1      28.346   8.498  44.618  1.00  0.00     0.208 C 
HETATM   12  C9  UNL     1      28.328   8.322  46.145  1.00  0.00     0.283 C 
HETATM   13  C10 UNL     1      29.473   7.620  46.597  1.00  0.00     0.027 C 
HETATM   14  C11 UNL     1      30.817   7.241  46.454  1.00  0.00     0.074 C 
HETATM   15  C12 UNL     1      31.747   7.947  47.283  1.00  0.00     0.265 C 
HETATM   16  N2  UNL     1      33.100   8.035  47.063  1.00  0.00    -0.233 NA
HETATM   17  C13 UNL     1      33.866   6.942  47.300  1.00  0.00     0.138 C 
HETATM   18  C14 UNL     1      33.272   5.869  47.968  1.00  0.00     0.137 C 
HETATM   19  N3  UNL     1      32.277   4.968  47.967  1.00  0.00    -0.253 NA
HETATM   20  C15 UNL     1      31.023   5.364  48.234  1.00  0.00     0.234 C 
HETATM   21  N4  UNL     1      29.749   5.693  48.286  1.00  0.00    -0.224 NA
HETATM   22  C16 UNL     1      29.286   6.846  47.771  1.00  0.00     0.138 C 
HETATM   23  N6  UNL     1      31.271   8.626  48.548  1.00  0.00     0.149 N 
HETATM   24  H20 UNL     1      30.997   9.081  47.587  1.00  0.00     0.332 HD
ENDROOT
BRANCH  22  25
HETATM   25  N5  UNL     1      28.401   7.194  48.834  1.00  0.00    -0.340 N 
HETATM   26  H16 UNL     1      29.023   7.411  49.674  1.00  0.00     0.167 HD
BRANCH  25  27
HETATM   27  C17 UNL     1      27.021   7.363  49.176  1.00  0.00     0.035 A 
HETATM   28  C18 UNL     1      26.600   8.430  49.953  1.00  0.00     0.032 A 
HETATM   29  C19 UNL     1      25.273   8.521  50.224  1.00  0.00     0.046 A 
HETATM   30  C20 UNL     1      24.407   7.596  49.746  1.00  0.00     0.138 A 
HETATM   31  F1  UNL     1      23.116   7.812  50.095  1.00  0.00    -0.204 F 
HETATM   32  C21 UNL     1      24.775   6.534  48.980  1.00  0.00     0.074 A 
HETATM   33 CL1  UNL     1      23.534   5.408  48.428  1.00  0.00    -0.081 Cl
HETATM   34  C22 UNL     1      26.124   6.432  48.698  1.00  0.00     0.056 A 
ENDBRANCH  25  27
ENDBRANCH  22  25
TORSDOF 2
ENDMDL
MODEL 5
REMARK VINA RESULT:      -8.0      4.113      7.041
REMARK  2 active torsions:
REMARK  status: ('A' for Active; 'I' for Inactive)
REMARK    1  A    between atoms: C16_22  and  N5_23 
REMARK    2  A    between atoms: N5_23  and  C17_24 
ROOT
HETATM    1  O1  UNL     1      20.567   4.039  51.072  1.00  0.00    -0.128 OA
HETATM    2  C1  UNL     1      20.814   5.240  50.930  1.00  0.00     0.433 A 
HETATM    3  C2  UNL     1      21.877   6.119  50.882  1.00  0.00    -0.026 C 
HETATM    4  C3  UNL     1      22.743   6.807  50.839  1.00  0.00    -0.100 C 
HETATM    5  C4  UNL     1      23.872   7.670  50.782  1.00  0.00     0.124 C 
HETATM    6  C5  UNL     1      25.105   6.689  50.564  1.00  0.00     0.285 C 
HETATM    7  N1  UNL     1      24.912   6.008  49.333  1.00  0.00     0.102 NA
HETATM    8  C6  UNL     1      25.820   6.622  48.314  1.00  0.00     0.299 C 
HETATM    9  C7  UNL     1      27.205   6.106  48.516  1.00  0.00     0.198 C 
HETATM   10  O2  UNL     1      27.306   4.737  48.606  1.00  0.00    -0.387 OA
HETATM   11  C8  UNL     1      26.465   4.266  49.606  1.00  0.00     0.208 C 
HETATM   12  C9  UNL     1      25.033   4.623  49.177  1.00  0.00     0.283 C 
HETATM   13  C10 UNL     1      24.112   3.618  49.563  1.00  0.00     0.027 C 
HETATM   14  C11 UNL     1      23.718   2.576  50.418  1.00  0.00     0.074 C 
HETATM   15  C12 UNL     1      22.725   2.921  51.391  1.00  0.00     0.265 C 
HETATM   16  N2  UNL     1      22.467   2.221  52.544  1.00  0.00    -0.233 NA
HETATM   17  C13 UNL     1      21.821   1.032  52.448  1.00  0.00     0.138 C 
HETATM   18  C14 UNL     1      21.258   0.701  51.213  1.00  0.00     0.137 C 
HETATM   19  N3  UNL     1      21.478   0.501  49.905  1.00  0.00    -0.253 NA
HETATM   20  C15 UNL     1      21.728   1.549  49.106  1.00  0.00     0.234 C 
HETATM   21  N4  UNL     1      22.174   2.486  48.295  1.00  0.00    -0.224 NA
HETATM   22  C16 UNL     1      22.979   3.476  48.720  1.00  0.00     0.138 C 
HETATM   23  N6  UNL     1      21.820   4.111  51.163  1.00  0.00     0.149 N 
HETATM   24  H20 UNL     1      22.871   4.306  51.414  1.00  0.00     0.332 HD
ENDROOT
BRANCH  22  25
HETATM   25  N5  UNL     1      22.356   4.550  48.018  1.00  0.00    -0.340 N 
HETATM   26  H16 UNL     1      21.840   5.123  48.757  1.00  0.00     0.167 HD
BRANCH  25  27
HETATM   27  C17 UNL     1      22.182   5.131  46.721  1.00  0.00     0.035 A 
HETATM   28  C18 UNL     1      22.648   6.404  46.437  1.00  0.00     0.032 A 
HETATM   29  C19 UNL     1      22.449   6.877  45.180  1.00  0.00     0.046 A 
HETATM   30  C20 UNL     1      21.815   6.121  44.252  1.00  0.00     0.138 A 
HETATM   31  F1  UNL     1      21.685   6.718  43.044  1.00  0.00    -0.204 F 
HETATM   32  C21 UNL     1      21.341   4.868  44.486  1.00  0.00     0.074 A 
HETATM   33 CL1  UNL     1      20.536   4.000  43.179  1.00  0.00    -0.081 Cl
HETATM   34  C22 UNL     1      21.539   4.377  45.762  1.00  0.00     0.056 A 
ENDBRANCH  25  27
ENDBRANCH  22  25
TORSDOF 2
ENDMDL
MODEL 6
REMARK VINA RESULT:      -7.9      5.753      9.376
REMARK  2 active torsions:
REMARK  status: ('A' for Active; 'I' for Inactive)
REMARK    1  A    between atoms: C16_22  and  N5_23 
REMARK    2  A    between atoms: N5_23  and  C17_24 
ROOT
HETATM    1  O1  UNL     1      28.100  10.952  45.644  1.00  0.00    -0.128 OA
HETATM    2  C1  UNL     1      28.419   9.965  44.975  1.00  0.00     0.433 A 
HETATM    3  C2  UNL     1      29.489   9.124  44.746  1.00  0.00    -0.026 C 
HETATM    4  C3  UNL     1      30.356   8.455  44.581  1.00  0.00    -0.100 C 
HETATM    5  C4  UNL     1      31.481   7.606  44.392  1.00  0.00     0.124 C 
HETATM    6  C5  UNL     1      32.426   7.926  45.630  1.00  0.00     0.285 C 
HETATM    7  N1  UNL     1      31.723   7.593  46.818  1.00  0.00     0.102 NA
HETATM    8  C6  UNL     1      32.266   6.298  47.333  1.00  0.00     0.299 C 
HETATM    9  C7  UNL     1      33.559   6.551  48.033  1.00  0.00     0.198 C 
HETATM   10  O2  UNL     1      33.523   7.558  48.969  1.00  0.00    -0.387 OA
HETATM   11  C8  UNL     1      33.052   8.728  48.387  1.00  0.00     0.208 C 
HETATM   12  C9  UNL     1      31.614   8.438  47.927  1.00  0.00     0.283 C 
HETATM   13  C10 UNL     1      30.783   9.576  48.079  1.00  0.00     0.027 C 
HETATM   14  C11 UNL     1      30.605  10.967  48.139  1.00  0.00     0.074 C 
HETATM   15  C12 UNL     1      30.080  11.571  46.951  1.00  0.00     0.265 C 
HETATM   16  N2  UNL     1      30.176  12.903  46.629  1.00  0.00    -0.233 NA
HETATM   17  C13 UNL     1      29.403  13.789  47.307  1.00  0.00     0.138 C 
HETATM   18  C14 UNL     1      28.396  13.274  48.126  1.00  0.00     0.137 C 
HETATM   19  N3  UNL     1      28.103  12.476  49.164  1.00  0.00    -0.253 NA
HETATM   20  C15 UNL     1      28.169  11.144  49.016  1.00  0.00     0.234 C 
HETATM   21  N4  UNL     1      28.399   9.847  49.020  1.00  0.00    -0.224 NA
HETATM   22  C16 UNL     1      29.414   9.298  48.329  1.00  0.00     0.138 C 
HETATM   23  N6  UNL     1      29.301  10.740  45.957  1.00  0.00     0.149 N 
HETATM   24  H20 UNL     1      30.387  10.587  46.015  1.00  0.00     0.332 HD
ENDROOT
BRANCH  22  25
HETATM   25  N5  UNL     1      28.711   8.172  47.809  1.00  0.00    -0.340 N 
HETATM   26  H16 UNL     1      28.761   8.260  46.746  1.00  0.00     0.167 HD
BRANCH  25  27
HETATM   27  C17 UNL     1      27.990   6.992  48.181  1.00  0.00     0.035 A 
HETATM   28  C18 UNL     1      28.618   5.759  48.251  1.00  0.00     0.032 A 
HETATM   29  C19 UNL     1      27.864   4.693  48.619  1.00  0.00     0.046 A 
HETATM   30  C20 UNL     1      26.548   4.845  48.904  1.00  0.00     0.138 A 
HETATM   31  F1  UNL     1      25.920   3.698  49.255  1.00  0.00    -0.204 F 
HETATM   32  C21 UNL     1      25.891   6.034  48.849  1.00  0.00     0.074 A 
HETATM   33 CL1  UNL     1      24.173   6.080  49.248  1.00  0.00    -0.081 Cl
HETATM   34  C22 UNL     1      26.650   7.126  48.475  1.00  0.00     0.056 A 
ENDBRANCH  25  27
ENDBRANCH  22  25
TORSDOF 2
ENDMDL
MODEL 7
REMARK VINA RESULT:      -7.9      4.504      7.176
REMARK  2 active torsions:
REMARK  status: ('A' for Active; 'I' for Inactive)
REMARK    1  A    between atoms: C16_22  and  N5_23 
REMARK    2  A    between atoms: N5_23  and  C17_24 
ROOT
HETATM    1  O1  UNL     1      29.636   9.731  49.433  1.00  0.00    -0.128 OA
HETATM    2  C1  UNL     1      28.442   9.920  49.683  1.00  0.00     0.433 A 
HETATM    3  C2  UNL     1      27.239  10.164  49.053  1.00  0.00    -0.026 C 
HETATM    4  C3  UNL     1      26.282  10.351  48.529  1.00  0.00    -0.100 C 
HETATM    5  C4  UNL     1      25.064  10.585  47.833  1.00  0.00     0.124 C 
HETATM    6  C5  UNL     1      25.391  10.190  46.327  1.00  0.00     0.285 C 
HETATM    7  N1  UNL     1      25.745   8.815  46.301  1.00  0.00     0.102 NA
HETATM    8  C6  UNL     1      24.582   8.045  45.760  1.00  0.00     0.299 C 
HETATM    9  C7  UNL     1      24.549   8.184  44.274  1.00  0.00     0.198 C 
HETATM   10  O2  UNL     1      25.740   7.920  43.642  1.00  0.00    -0.387 OA
HETATM   11  C8  UNL     1      26.747   8.713  44.178  1.00  0.00     0.208 C 
HETATM   12  C9  UNL     1      26.879   8.311  45.656  1.00  0.00     0.283 C 
HETATM   13  C10 UNL     1      28.227   8.369  46.089  1.00  0.00     0.027 C 
HETATM   14  C11 UNL     1      29.524   8.898  45.999  1.00  0.00     0.074 C 
HETATM   15  C12 UNL     1      29.862   9.870  46.995  1.00  0.00     0.265 C 
HETATM   16  N2  UNL     1      30.883  10.784  46.899  1.00  0.00    -0.233 NA
HETATM   17  C13 UNL     1      32.159  10.344  47.032  1.00  0.00     0.138 C 
HETATM   18  C14 UNL     1      32.348   9.036  47.484  1.00  0.00     0.137 C 
HETATM   19  N3  UNL     1      32.097   7.736  47.270  1.00  0.00    -0.253 NA
HETATM   20  C15 UNL     1      30.865   7.253  47.492  1.00  0.00     0.234 C 
HETATM   21  N4  UNL     1      29.651   6.741  47.491  1.00  0.00    -0.224 NA
HETATM   22  C16 UNL     1      28.574   7.454  47.117  1.00  0.00     0.138 C 
HETATM   23  N6  UNL     1      29.107   9.908  48.305  1.00  0.00     0.149 N 
HETATM   24  H20 UNL     1      28.589  10.261  47.403  1.00  0.00     0.332 HD
ENDROOT
BRANCH  22  25
HETATM   25  N5  UNL     1      27.687   7.022  48.146  1.00  0.00    -0.340 N 
HETATM   26  H16 UNL     1      27.588   7.849  48.815  1.00  0.00     0.167 HD
BRANCH  25  27
HETATM   27  C17 UNL     1      26.893   5.918  48.593  1.00  0.00     0.035 A 
HETATM   28  C18 UNL     1      27.465   4.686  48.866  1.00  0.00     0.032 A 
HETATM   29  C19 UNL     1      26.643   3.695  49.293  1.00  0.00     0.046 A 
HETATM   30  C20 UNL     1      25.315   3.918  49.443  1.00  0.00     0.138 A 
HETATM   31  F1  UNL     1      24.616   2.841  49.874  1.00  0.00    -0.204 F 
HETATM   32  C21 UNL     1      24.710   5.109  49.188  1.00  0.00     0.074 A 
HETATM   33 CL1  UNL     1      22.968   5.252  49.428  1.00  0.00    -0.081 Cl
HETATM   34  C22 UNL     1      25.539   6.125  48.752  1.00  0.00     0.056 A 
ENDBRANCH  25  27
ENDBRANCH  22  25
TORSDOF 2
ENDMDL
MODEL 8
REMARK VINA RESULT:      -7.9      9.540     11.897
REMARK  2 active torsions:
REMARK  status: ('A' for Active; 'I' for Inactive)
REMARK    1  A    between atoms: C16_22  and  N5_23 
REMARK    2  A    between atoms: N5_23  and  C17_24 
ROOT
HETATM    1  O1  UNL     1      32.688  10.339  47.023  1.00  0.00    -0.128 OA
HETATM    2  C1  UNL     1      33.849   9.946  47.171  1.00  0.00     0.433 A 
HETATM    3  C2  UNL     1      34.565   8.881  47.680  1.00  0.00    -0.026 C 
HETATM    4  C3  UNL     1      35.122   8.015  48.086  1.00  0.00    -0.100 C 
HETATM    5  C4  UNL     1      35.815   6.888  48.610  1.00  0.00     0.124 C 
HETATM    6  C5  UNL     1      34.692   5.771  48.755  1.00  0.00     0.285 C 
HETATM    7  N1  UNL     1      34.171   5.502  47.461  1.00  0.00     0.102 NA
HETATM    8  C6  UNL     1      34.745   4.203  46.989  1.00  0.00     0.299 C 
HETATM    9  C7  UNL     1      34.017   3.077  47.643  1.00  0.00     0.198 C 
HETATM   10  O2  UNL     1      32.646   3.148  47.561  1.00  0.00    -0.387 OA
HETATM   11  C8  UNL     1      32.204   4.366  48.064  1.00  0.00     0.208 C 
HETATM   12  C9  UNL     1      32.806   5.455  47.161  1.00  0.00     0.283 C 
HETATM   13  C10 UNL     1      31.911   6.542  46.996  1.00  0.00     0.027 C 
HETATM   14  C11 UNL     1      30.858   7.346  47.459  1.00  0.00     0.074 C 
HETATM   15  C12 UNL     1      31.245   8.615  48.000  1.00  0.00     0.265 C 
HETATM   16  N2  UNL     1      30.478   9.387  48.838  1.00  0.00    -0.233 NA
HETATM   17  C13 UNL     1      29.411  10.042  48.318  1.00  0.00     0.138 C 
HETATM   18  C14 UNL     1      29.289  10.076  46.927  1.00  0.00     0.137 C 
HETATM   19  N3  UNL     1      29.189   9.356  45.799  1.00  0.00    -0.253 NA
HETATM   20  C15 UNL     1      30.264   8.705  45.330  1.00  0.00     0.234 C 
HETATM   21  N4  UNL     1      31.202   7.881  44.911  1.00  0.00    -0.224 NA
HETATM   22  C16 UNL     1      32.018   7.235  45.763  1.00  0.00     0.138 C 
HETATM   23  N6  UNL     1      32.569   9.233  47.612  1.00  0.00     0.149 N 
HETATM   24  H20 UNL     1      32.585   8.365  48.285  1.00  0.00     0.332 HD
ENDROOT
BRANCH  22  25
HETATM   25  N5  UNL     1      33.235   7.412  45.040  1.00  0.00    -0.340 N 
HETATM   26  H16 UNL     1      33.815   8.104  45.610  1.00  0.00     0.167 HD
BRANCH  25  27
HETATM   27  C17 UNL     1      33.947   7.006  43.867  1.00  0.00     0.035 A 
HETATM   28  C18 UNL     1      34.970   7.782  43.344  1.00  0.00     0.032 A 
HETATM   29  C19 UNL     1      35.599   7.320  42.234  1.00  0.00     0.046 A 
HETATM   30  C20 UNL     1      35.231   6.145  41.670  1.00  0.00     0.138 A 
HETATM   31  F1  UNL     1      35.943   5.809  40.569  1.00  0.00    -0.204 F 
HETATM   32  C21 UNL     1      34.234   5.352  42.148  1.00  0.00     0.074 A 
HETATM   33 CL1  UNL     1      33.863   3.846  41.309  1.00  0.00    -0.081 Cl
HETATM   34  C22 UNL     1      33.587   5.813  43.279  1.00  0.00     0.056 A 
ENDBRANCH  25  27
ENDBRANCH  22  25
TORSDOF 2
ENDMDL
MODEL 9
REMARK VINA RESULT:      -7.8      3.558      6.367
REMARK  2 active torsions:
REMARK  status: ('A' for Active; 'I' for Inactive)
REMARK    1  A    between atoms: C16_22  and  N5_23 
REMARK    2  A    between atoms: N5_23  and  C17_24 
ROOT
HETATM    1  O1  UNL     1      22.366   1.664  49.031  1.00  0.00    -0.128 OA
HETATM    2  C1  UNL     1      22.480   2.205  47.927  1.00  0.00     0.433 A 
HETATM    3  C2  UNL     1      22.118   3.353  47.253  1.00  0.00    -0.026 C 
HETATM    4  C3  UNL     1      21.825   4.284  46.730  1.00  0.00    -0.100 C 
HETATM    5  C4  UNL     1      21.442   5.492  46.083  1.00  0.00     0.124 C 
HETATM    6  C5  UNL     1      21.005   6.452  47.273  1.00  0.00     0.285 C 
HETATM    7  N1  UNL     1      22.133   6.652  48.112  1.00  0.00     0.102 NA
HETATM    8  C6  UNL     1      22.684   8.015  47.834  1.00  0.00     0.299 C 
HETATM    9  C7  UNL     1      21.844   9.036  48.526  1.00  0.00     0.198 C 
HETATM   10  O2  UNL     1      21.608   8.786  49.857  1.00  0.00    -0.387 OA
HETATM   11  C8  UNL     1      21.055   7.521  50.011  1.00  0.00     0.208 C 
HETATM   12  C9  UNL     1      22.106   6.520  49.505  1.00  0.00     0.283 C 
HETATM   13  C10 UNL     1      22.093   5.327  50.268  1.00  0.00     0.027 C 
HETATM   14  C11 UNL     1      21.423   4.391  51.072  1.00  0.00     0.074 C 
HETATM   15  C12 UNL     1      21.027   3.183  50.412  1.00  0.00     0.265 C 
HETATM   16  N2  UNL     1      20.058   2.317  50.856  1.00  0.00    -0.233 NA
HETATM   17  C13 UNL     1      20.337   1.528  51.924  1.00  0.00     0.138 C 
HETATM   18  C14 UNL     1      21.662   1.480  52.363  1.00  0.00     0.137 C 
HETATM   19  N3  UNL     1      22.713   2.181  52.816  1.00  0.00    -0.253 NA
HETATM   20  C15 UNL     1      23.398   2.967  51.972  1.00  0.00     0.234 C 
HETATM   21  N4  UNL     1      23.997   3.908  51.270  1.00  0.00    -0.224 NA
HETATM   22  C16 UNL     1      23.338   4.654  50.366  1.00  0.00     0.138 C 
HETATM   23  N6  UNL     1      21.731   2.744  49.148  1.00  0.00     0.149 N 
HETATM   24  H20 UNL     1      21.053   3.606  49.085  1.00  0.00     0.332 HD
ENDROOT
BRANCH  22  25
HETATM   25  N5  UNL     1      24.329   4.638  49.340  1.00  0.00    -0.340 N 
HETATM   26  H16 UNL     1      23.935   4.022  48.562  1.00  0.00     0.167 HD
BRANCH  25  27
HETATM   27  C17 UNL     1      25.620   5.138  48.978  1.00  0.00     0.035 A 
HETATM   28  C18 UNL     1      26.744   4.329  49.029  1.00  0.00     0.032 A 
HETATM   29  C19 UNL     1      27.929   4.879  48.661  1.00  0.00     0.046 A 
HETATM   30  C20 UNL     1      27.994   6.172  48.262  1.00  0.00     0.138 A 
HETATM   31  F1  UNL     1      29.238   6.587  47.925  1.00  0.00    -0.204 F 
HETATM   32  C21 UNL     1      26.918   7.002  48.196  1.00  0.00     0.074 A 
HETATM   33 CL1  UNL     1      27.155   8.665  47.657  1.00  0.00    -0.081 Cl
HETATM   34  C22 UNL     1      25.707   6.452  48.568  1.00  0.00     0.056 A 
ENDBRANCH  25  27
ENDBRANCH  22  25
TORSDOF 2
ENDMDL
