MODEL 1
REMARK VINA RESULT:      -7.2      0.000      0.000
REMARK  8 active torsions:
REMARK  status: ('A' for Active; 'I' for Inactive)
REMARK    1  A    between atoms: C3_3  and  C5_5 
REMARK    2  A    between atoms: C5_5  and  C6_6 
REMARK    3  A    between atoms: C6_6  and  N1_7 
REMARK    4  A    between atoms: N1_7  and  C7_8 
REMARK    5  A    between atoms: C15_21  and  C17_23 
REMARK    6  A    between atoms: C17_23  and  O4_24 
REMARK    7  A    between atoms: O4_24  and  C18_25 
REMARK    8  A    between atoms: C18_25  and  P1_26 
ROOT
HETATM    1  C1  UNL     1      16.105   0.526  48.909  1.00  0.00     0.012 C 
HETATM    2  C2  UNL     1      16.491   0.056  49.931  1.00  0.00    -0.109 C 
HETATM    3  C3  UNL     1      16.958  -0.517  51.198  1.00  0.00     0.084 C 
HETATM    4  C4  UNL     1      15.881  -0.377  52.270  1.00  0.00     0.027 C 
ENDROOT
BRANCH   3   5
HETATM    5  C5  UNL     1      18.148   0.168  51.662  1.00  0.00     0.007 C 
BRANCH   5   6
HETATM    6  C6  UNL     1      19.214   0.768  52.158  1.00  0.00     0.087 C 
BRANCH   6   7
HETATM    7  N1  UNL     1      20.373   1.304  52.736  1.00  0.00    -0.350 N 
HETATM    8  H8  UNL     1      20.259   2.353  52.583  1.00  0.00     0.166 HD
BRANCH   7   9
HETATM    9  C7  UNL     1      21.294   0.397  53.325  1.00  0.00     0.144 A 
HETATM   10  N2  UNL     1      20.668  -0.648  53.910  1.00  0.00    -0.223 NA
HETATM   11  C8  UNL     1      21.426  -1.594  54.510  1.00  0.00     0.236 A 
HETATM   12  N3  UNL     1      22.782  -1.537  54.550  1.00  0.00    -0.241 NA
HETATM   13  C9  UNL     1      23.447  -0.517  53.983  1.00  0.00     0.074 A 
HETATM   14  C10 UNL     1      22.664   0.436  53.378  1.00  0.00     0.073 A 
HETATM   15  C19 UNL     1      24.767  -0.504  54.029  1.00  0.00     0.045 C 
HETATM   16  C11 UNL     1      23.049   1.541  52.772  1.00  0.00     0.117 C 
HETATM   17  O1  UNL     1      22.033   2.372  52.242  1.00  0.00    -0.347 OA
HETATM   18  C14 UNL     1      24.394   2.138  52.514  1.00  0.00     0.320 C 
HETATM   19  C12 UNL     1      22.523   3.284  51.234  1.00  0.00     0.201 C 
HETATM   20  C13 UNL     1      23.662   2.718  50.448  1.00  0.00     0.198 C 
HETATM   21  O2  UNL     1      24.593   1.980  51.161  1.00  0.00    -0.353 OA
HETATM   22  O3  UNL     1      25.345   1.746  53.371  1.00  0.00    -0.338 OA
HETATM   23  C15 UNL     1      25.744   0.471  53.497  1.00  0.00     0.102 C 
HETATM   24  C16 UNL     1      26.420  -0.035  52.233  1.00  0.00     0.053 C 
BRANCH  23  25
HETATM   25  C17 UNL     1      26.856   0.494  54.567  1.00  0.00     0.216 C 
BRANCH  25  26
HETATM   26  O4  UNL     1      27.861   1.409  54.265  1.00  0.00    -0.359 OA
BRANCH  26  27
HETATM   27  C18 UNL     1      29.180   0.981  54.321  1.00  0.00     0.141 C 
BRANCH  27  28
HETATM   28  P1  UNL     1      29.631  -0.516  53.831  1.00  0.00    -0.050 P 
HETATM   29  H21 UNL     1      30.962  -1.049  53.961  1.00  0.00     0.068 HD
ENDBRANCH  27  28
ENDBRANCH  26  27
ENDBRANCH  25  26
ENDBRANCH  23  25
ENDBRANCH   7   9
ENDBRANCH   6   7
ENDBRANCH   5   6
ENDBRANCH   3   5
TORSDOF 8
ENDMDL
MODEL 2
REMARK VINA RESULT:      -6.9      3.431      7.836
REMARK  8 active torsions:
REMARK  status: ('A' for Active; 'I' for Inactive)
REMARK    1  A    between atoms: C3_3  and  C5_5 
REMARK    2  A    between atoms: C5_5  and  C6_6 
REMARK    3  A    between atoms: C6_6  and  N1_7 
REMARK    4  A    between atoms: N1_7  and  C7_8 
REMARK    5  A    between atoms: C15_21  and  C17_23 
REMARK    6  A    between atoms: C17_23  and  O4_24 
REMARK    7  A    between atoms: O4_24  and  C18_25 
REMARK    8  A    between atoms: C18_25  and  P1_26 
ROOT
HETATM    1  C1  UNL     1      29.139  -2.431  53.184  1.00  0.00     0.012 C 
HETATM    2  C2  UNL     1      28.906  -1.270  53.287  1.00  0.00    -0.109 C 
HETATM    3  C3  UNL     1      28.615   0.161  53.426  1.00  0.00     0.084 C 
HETATM    4  C4  UNL     1      28.725   0.582  54.889  1.00  0.00     0.027 C 
ENDROOT
BRANCH   3   5
HETATM    5  C5  UNL     1      27.272   0.458  52.970  1.00  0.00     0.007 C 
BRANCH   5   6
HETATM    6  C6  UNL     1      26.072   0.710  52.482  1.00  0.00     0.087 C 
BRANCH   6   7
HETATM    7  N1  UNL     1      24.835   1.087  51.940  1.00  0.00    -0.350 N 
HETATM    8  H8  UNL     1      25.107   1.747  51.148  1.00  0.00     0.166 HD
BRANCH   7   9
HETATM    9  C7  UNL     1      23.665   0.533  52.525  1.00  0.00     0.144 A 
HETATM   10  N2  UNL     1      23.949  -0.202  53.623  1.00  0.00    -0.223 NA
HETATM   11  C8  UNL     1      22.925  -0.789  54.283  1.00  0.00     0.236 A 
HETATM   12  N3  UNL     1      21.630  -0.671  53.892  1.00  0.00    -0.241 NA
HETATM   13  C9  UNL     1      21.301   0.049  52.807  1.00  0.00     0.074 A 
HETATM   14  C10 UNL     1      22.351   0.638  52.146  1.00  0.00     0.073 A 
HETATM   15  C19 UNL     1      20.029   0.154  52.466  1.00  0.00     0.045 C 
HETATM   16  C11 UNL     1      22.316   1.372  51.051  1.00  0.00     0.117 C 
HETATM   17  O1  UNL     1      23.553   1.850  50.557  1.00  0.00    -0.347 OA
HETATM   18  C14 UNL     1      21.195   1.828  50.175  1.00  0.00     0.320 C 
HETATM   19  C12 UNL     1      23.402   2.978  49.667  1.00  0.00     0.201 C 
HETATM   20  C13 UNL     1      22.231   3.839  50.017  1.00  0.00     0.198 C 
HETATM   21  O2  UNL     1      21.083   3.177  50.423  1.00  0.00    -0.353 OA
HETATM   22  O3  UNL     1      20.104   1.054  50.226  1.00  0.00    -0.338 OA
HETATM   23  C15 UNL     1      19.384   0.870  51.344  1.00  0.00     0.102 C 
HETATM   24  C16 UNL     1      18.716   2.157  51.801  1.00  0.00     0.053 C 
BRANCH  23  25
HETATM   25  C17 UNL     1      18.224  -0.062  50.934  1.00  0.00     0.216 C 
BRANCH  25  26
HETATM   26  O4  UNL     1      17.790  -0.861  51.989  1.00  0.00    -0.359 OA
BRANCH  26  27
HETATM   27  C18 UNL     1      16.434  -1.144  52.086  1.00  0.00     0.141 C 
BRANCH  27  28
HETATM   28  P1  UNL     1      15.342  -0.019  52.556  1.00  0.00    -0.050 P 
HETATM   29  H21 UNL     1      14.644  -0.036  53.816  1.00  0.00     0.068 HD
ENDBRANCH  27  28
ENDBRANCH  26  27
ENDBRANCH  25  26
ENDBRANCH  23  25
ENDBRANCH   7   9
ENDBRANCH   6   7
ENDBRANCH   5   6
ENDBRANCH   3   5
TORSDOF 8
ENDMDL
MODEL 3
REMARK VINA RESULT:      -6.9      4.307      8.085
REMARK  8 active torsions:
REMARK  status: ('A' for Active; 'I' for Inactive)
REMARK    1  A    between atoms: C3_3  and  C5_5 
REMARK    2  A    between atoms: C5_5  and  C6_6 
REMARK    3  A    between atoms: C6_6  and  N1_7 
REMARK    4  A    between atoms: N1_7  and  C7_8 
REMARK    5  A    between atoms: C15_21  and  C17_23 
REMARK    6  A    between atoms: C17_23  and  O4_24 
REMARK    7  A    between atoms: O4_24  and  C18_25 
REMARK    8  A    between atoms: C18_25  and  P1_26 
ROOT
HETATM    1  C1  UNL     1      30.848   5.563  47.985  1.00  0.00     0.012 C 
HETATM    2  C2  UNL     1      29.669   5.712  47.954  1.00  0.00    -0.109 C 
HETATM    3  C3  UNL     1      28.215   5.904  47.924  1.00  0.00     0.084 C 
HETATM    4  C4  UNL     1      27.862   7.331  48.333  1.00  0.00     0.027 C 
ENDROOT
BRANCH   3   5
HETATM    5  C5  UNL     1      27.559   4.996  48.843  1.00  0.00     0.007 C 
BRANCH   5   6
HETATM    6  C6  UNL     1      26.917   4.229  49.705  1.00  0.00     0.087 C 
BRANCH   6   7
HETATM    7  N1  UNL     1      26.333   3.417  50.687  1.00  0.00    -0.350 N 
HETATM    8  H8  UNL     1      27.103   3.325  51.418  1.00  0.00     0.166 HD
BRANCH   7   9
HETATM    9  C7  UNL     1      24.996   2.986  50.473  1.00  0.00     0.144 A 
HETATM   10  N2  UNL     1      24.484   3.483  49.325  1.00  0.00    -0.223 NA
HETATM   11  C8  UNL     1      23.215   3.151  48.995  1.00  0.00     0.236 A 
HETATM   12  N3  UNL     1      22.438   2.344  49.763  1.00  0.00    -0.241 NA
HETATM   13  C9  UNL     1      22.906   1.828  50.912  1.00  0.00     0.074 A 
HETATM   14  C10 UNL     1      24.195   2.175  51.235  1.00  0.00     0.073 A 
HETATM   15  C19 UNL     1      22.127   1.035  51.624  1.00  0.00     0.045 C 
HETATM   16  C11 UNL     1      24.886   1.833  52.304  1.00  0.00     0.117 C 
HETATM   17  O1  UNL     1      26.203   2.343  52.410  1.00  0.00    -0.347 OA
HETATM   18  C14 UNL     1      24.563   0.982  53.489  1.00  0.00     0.320 C 
HETATM   19  C12 UNL     1      27.025   1.588  53.327  1.00  0.00     0.201 C 
HETATM   20  C13 UNL     1      26.664   0.138  53.367  1.00  0.00     0.198 C 
HETATM   21  O2  UNL     1      25.311  -0.160  53.315  1.00  0.00    -0.353 OA
HETATM   22  O3  UNL     1      23.255   0.880  53.754  1.00  0.00    -0.338 OA
HETATM   23  C15 UNL     1      22.371   0.334  52.904  1.00  0.00     0.102 C 
HETATM   24  C16 UNL     1      22.631  -1.149  52.699  1.00  0.00     0.053 C 
BRANCH  23  25
HETATM   25  C17 UNL     1      21.009   0.409  53.627  1.00  0.00     0.216 C 
BRANCH  25  26
HETATM   26  O4  UNL     1      20.210  -0.701  53.365  1.00  0.00    -0.359 OA
BRANCH  26  27
HETATM   27  C18 UNL     1      18.881  -0.490  53.026  1.00  0.00     0.141 C 
BRANCH  27  28
HETATM   28  P1  UNL     1      18.430  -0.017  51.524  1.00  0.00    -0.050 P 
HETATM   29  H21 UNL     1      18.882  -0.637  50.305  1.00  0.00     0.068 HD
ENDBRANCH  27  28
ENDBRANCH  26  27
ENDBRANCH  25  26
ENDBRANCH  23  25
ENDBRANCH   7   9
ENDBRANCH   6   7
ENDBRANCH   5   6
ENDBRANCH   3   5
TORSDOF 8
ENDMDL
MODEL 4
REMARK VINA RESULT:      -6.6      3.590      8.255
REMARK  8 active torsions:
REMARK  status: ('A' for Active; 'I' for Inactive)
REMARK    1  A    between atoms: C3_3  and  C5_5 
REMARK    2  A    between atoms: C5_5  and  C6_6 
REMARK    3  A    between atoms: C6_6  and  N1_7 
REMARK    4  A    between atoms: N1_7  and  C7_8 
REMARK    5  A    between atoms: C15_21  and  C17_23 
REMARK    6  A    between atoms: C17_23  and  O4_24 
REMARK    7  A    between atoms: O4_24  and  C18_25 
REMARK    8  A    between atoms: C18_25  and  P1_26 
ROOT
HETATM    1  C1  UNL     1      29.506  -1.790  53.457  1.00  0.00     0.012 C 
HETATM    2  C2  UNL     1      29.144  -0.659  53.407  1.00  0.00    -0.109 C 
HETATM    3  C3  UNL     1      28.698   0.738  53.358  1.00  0.00     0.084 C 
HETATM    4  C4  UNL     1      29.186   1.492  54.592  1.00  0.00     0.027 C 
ENDROOT
BRANCH   3   5
HETATM    5  C5  UNL     1      27.251   0.813  53.326  1.00  0.00     0.007 C 
BRANCH   5   6
HETATM    6  C6  UNL     1      25.931   0.829  53.354  1.00  0.00     0.087 C 
BRANCH   6   7
HETATM    7  N1  UNL     1      24.535   0.742  53.438  1.00  0.00    -0.350 N 
HETATM    8  H8  UNL     1      24.378   0.197  54.341  1.00  0.00     0.166 HD
BRANCH   7   9
HETATM    9  C7  UNL     1      23.775   1.355  52.406  1.00  0.00     0.144 A 
HETATM   10  N2  UNL     1      24.562   1.983  51.505  1.00  0.00    -0.223 NA
HETATM   11  C8  UNL     1      23.968   2.610  50.464  1.00  0.00     0.236 A 
HETATM   12  N3  UNL     1      22.622   2.634  50.286  1.00  0.00    -0.241 NA
HETATM   13  C9  UNL     1      21.801   2.024  51.157  1.00  0.00     0.074 A 
HETATM   14  C10 UNL     1      22.418   1.392  52.210  1.00  0.00     0.073 A 
HETATM   15  C19 UNL     1      20.498   2.055  50.942  1.00  0.00     0.045 C 
HETATM   16  C11 UNL     1      21.858   0.743  53.210  1.00  0.00     0.117 C 
HETATM   17  O1  UNL     1      22.724   0.193  54.186  1.00  0.00    -0.347 OA
HETATM   18  C14 UNL     1      20.434   0.449  53.556  1.00  0.00     0.320 C 
HETATM   19  C12 UNL     1      22.100  -0.853  54.964  1.00  0.00     0.201 C 
HETATM   20  C13 UNL     1      21.089  -1.629  54.184  1.00  0.00     0.198 C 
HETATM   21  O2  UNL     1      20.287  -0.899  53.321  1.00  0.00    -0.353 OA
HETATM   22  O3  UNL     1      19.552   1.310  53.036  1.00  0.00    -0.338 OA
HETATM   23  C15 UNL     1      19.377   1.479  51.715  1.00  0.00     0.102 C 
HETATM   24  C16 UNL     1      18.819   0.227  51.058  1.00  0.00     0.053 C 
BRANCH  23  25
HETATM   25  C17 UNL     1      18.260   2.536  51.582  1.00  0.00     0.216 C 
BRANCH  25  26
HETATM   26  O4  UNL     1      18.669   3.646  50.848  1.00  0.00    -0.359 OA
BRANCH  26  27
HETATM   27  C18 UNL     1      17.703   4.381  50.174  1.00  0.00     0.141 C 
BRANCH  27  28
HETATM   28  P1  UNL     1      17.694   4.515  48.542  1.00  0.00    -0.050 P 
HETATM   29  H21 UNL     1      16.530   4.326  47.715  1.00  0.00     0.068 HD
ENDBRANCH  27  28
ENDBRANCH  26  27
ENDBRANCH  25  26
ENDBRANCH  23  25
ENDBRANCH   7   9
ENDBRANCH   6   7
ENDBRANCH   5   6
ENDBRANCH   3   5
TORSDOF 8
ENDMDL
MODEL 5
REMARK VINA RESULT:      -6.4      5.293      8.463
REMARK  8 active torsions:
REMARK  status: ('A' for Active; 'I' for Inactive)
REMARK    1  A    between atoms: C3_3  and  C5_5 
REMARK    2  A    between atoms: C5_5  and  C6_6 
REMARK    3  A    between atoms: C6_6  and  N1_7 
REMARK    4  A    between atoms: N1_7  and  C7_8 
REMARK    5  A    between atoms: C15_21  and  C17_23 
REMARK    6  A    between atoms: C17_23  and  O4_24 
REMARK    7  A    between atoms: O4_24  and  C18_25 
REMARK    8  A    between atoms: C18_25  and  P1_26 
ROOT
HETATM    1  C1  UNL     1      27.086  -2.243  52.407  1.00  0.00     0.012 C 
HETATM    2  C2  UNL     1      27.363  -1.179  52.861  1.00  0.00    -0.109 C 
HETATM    3  C3  UNL     1      27.695   0.132  53.428  1.00  0.00     0.084 C 
HETATM    4  C4  UNL     1      27.044   0.295  54.799  1.00  0.00     0.027 C 
ENDROOT
BRANCH   3   5
HETATM    5  C5  UNL     1      27.214   1.198  52.571  1.00  0.00     0.007 C 
BRANCH   5   6
HETATM    6  C6  UNL     1      26.840   2.210  51.812  1.00  0.00     0.087 C 
BRANCH   6   7
HETATM    7  N1  UNL     1      26.489   3.228  50.914  1.00  0.00    -0.350 N 
HETATM    8  H8  UNL     1      27.332   3.281  50.264  1.00  0.00     0.166 HD
BRANCH   7   9
HETATM    9  C7  UNL     1      25.222   3.849  51.086  1.00  0.00     0.144 A 
HETATM   10  N2  UNL     1      24.535   3.314  52.120  1.00  0.00    -0.223 NA
HETATM   11  C8  UNL     1      23.309   3.812  52.399  1.00  0.00     0.236 A 
HETATM   12  N3  UNL     1      22.743   4.822  51.689  1.00  0.00    -0.241 NA
HETATM   13  C9  UNL     1      23.389   5.383  50.654  1.00  0.00     0.074 A 
HETATM   14  C10 UNL     1      24.633   4.867  50.381  1.00  0.00     0.073 A 
HETATM   15  C19 UNL     1      22.813   6.374  49.997  1.00  0.00     0.045 C 
HETATM   16  C11 UNL     1      25.464   5.211  49.419  1.00  0.00     0.117 C 
HETATM   17  O1  UNL     1      26.688   4.504  49.342  1.00  0.00    -0.347 OA
HETATM   18  C14 UNL     1      25.389   6.237  48.335  1.00  0.00     0.320 C 
HETATM   19  C12 UNL     1      27.699   5.214  48.592  1.00  0.00     0.201 C 
HETATM   20  C13 UNL     1      27.576   6.698  48.716  1.00  0.00     0.198 C 
HETATM   21  O2  UNL     1      26.287   7.209  48.710  1.00  0.00    -0.353 OA
HETATM   22  O3  UNL     1      24.143   6.586  47.992  1.00  0.00    -0.338 OA
HETATM   23  C15 UNL     1      23.281   7.169  48.841  1.00  0.00     0.102 C 
HETATM   24  C16 UNL     1      23.750   8.554  49.257  1.00  0.00     0.053 C 
BRANCH  23  25
HETATM   25  C17 UNL     1      21.997   7.408  48.019  1.00  0.00     0.216 C 
BRANCH  25  26
HETATM   26  O4  UNL     1      21.171   6.288  47.992  1.00  0.00    -0.359 OA
BRANCH  26  27
HETATM   27  C18 UNL     1      21.065   5.576  46.804  1.00  0.00     0.141 C 
BRANCH  27  28
HETATM   28  P1  UNL     1      21.695   4.075  46.630  1.00  0.00    -0.050 P 
HETATM   29  H21 UNL     1      22.440   3.632  45.480  1.00  0.00     0.068 HD
ENDBRANCH  27  28
ENDBRANCH  26  27
ENDBRANCH  25  26
ENDBRANCH  23  25
ENDBRANCH   7   9
ENDBRANCH   6   7
ENDBRANCH   5   6
ENDBRANCH   3   5
TORSDOF 8
ENDMDL
MODEL 6
REMARK VINA RESULT:      -6.2      9.618     12.603
REMARK  8 active torsions:
REMARK  status: ('A' for Active; 'I' for Inactive)
REMARK    1  A    between atoms: C3_3  and  C5_5 
REMARK    2  A    between atoms: C5_5  and  C6_6 
REMARK    3  A    between atoms: C6_6  and  N1_7 
REMARK    4  A    between atoms: N1_7  and  C7_8 
REMARK    5  A    between atoms: C15_21  and  C17_23 
REMARK    6  A    between atoms: C17_23  and  O4_24 
REMARK    7  A    between atoms: O4_24  and  C18_25 
REMARK    8  A    between atoms: C18_25  and  P1_26 
ROOT
HETATM    1  C1  UNL     1      32.068   1.132  46.713  1.00  0.00     0.012 C 
HETATM    2  C2  UNL     1      32.682   2.148  46.772  1.00  0.00    -0.109 C 
HETATM    3  C3  UNL     1      33.443   3.399  46.856  1.00  0.00     0.084 C 
HETATM    4  C4  UNL     1      34.617   3.240  47.819  1.00  0.00     0.027 C 
ENDROOT
BRANCH   3   5
HETATM    5  C5  UNL     1      32.606   4.478  47.340  1.00  0.00     0.007 C 
BRANCH   5   6
HETATM    6  C6  UNL     1      31.802   5.456  47.715  1.00  0.00     0.087 C 
BRANCH   6   7
HETATM    7  N1  UNL     1      31.024   6.568  48.064  1.00  0.00    -0.350 N 
HETATM    8  H8  UNL     1      31.744   7.349  48.158  1.00  0.00     0.166 HD
BRANCH   7   9
HETATM    9  C7  UNL     1      29.620   6.380  48.177  1.00  0.00     0.144 A 
HETATM   10  N2  UNL     1      29.303   5.090  48.423  1.00  0.00    -0.223 NA
HETATM   11  C8  UNL     1      27.996   4.766  48.556  1.00  0.00     0.236 A 
HETATM   12  N3  UNL     1      26.995   5.678  48.453  1.00  0.00    -0.241 NA
HETATM   13  C9  UNL     1      27.264   6.971  48.209  1.00  0.00     0.074 A 
HETATM   14  C10 UNL     1      28.595   7.285  48.076  1.00  0.00     0.073 A 
HETATM   15  C19 UNL     1      26.265   7.832  48.132  1.00  0.00     0.045 C 
HETATM   16  C11 UNL     1      29.132   8.459  47.813  1.00  0.00     0.117 C 
HETATM   17  O1  UNL     1      30.543   8.513  47.708  1.00  0.00    -0.347 OA
HETATM   18  C14 UNL     1      28.544   9.815  47.590  1.00  0.00     0.320 C 
HETATM   19  C12 UNL     1      31.068   9.849  47.875  1.00  0.00     0.201 C 
HETATM   20  C13 UNL     1      30.249  10.678  48.810  1.00  0.00     0.198 C 
HETATM   21  O2  UNL     1      28.874  10.530  48.718  1.00  0.00    -0.353 OA
HETATM   22  O3  UNL     1      27.275   9.801  47.164  1.00  0.00    -0.338 OA
HETATM   23  C15 UNL     1      26.262   9.290  47.882  1.00  0.00     0.102 C 
HETATM   24  C16 UNL     1      26.018  10.084  49.155  1.00  0.00     0.053 C 
BRANCH  23  25
HETATM   25  C17 UNL     1      25.000   9.510  47.022  1.00  0.00     0.216 C 
BRANCH  25  26
HETATM   26  O4  UNL     1      24.733   8.427  46.188  1.00  0.00    -0.359 OA
BRANCH  26  27
HETATM   27  C18 UNL     1      24.640   8.656  44.821  1.00  0.00     0.141 C 
BRANCH  27  28
HETATM   28  P1  UNL     1      25.957   8.662  43.848  1.00  0.00    -0.050 P 
HETATM   29  H21 UNL     1      25.950   8.257  42.466  1.00  0.00     0.068 HD
ENDBRANCH  27  28
ENDBRANCH  26  27
ENDBRANCH  25  26
ENDBRANCH  23  25
ENDBRANCH   7   9
ENDBRANCH   6   7
ENDBRANCH   5   6
ENDBRANCH   3   5
TORSDOF 8
ENDMDL
MODEL 7
REMARK VINA RESULT:      -6.2      4.000      7.125
REMARK  8 active torsions:
REMARK  status: ('A' for Active; 'I' for Inactive)
REMARK    1  A    between atoms: C3_3  and  C5_5 
REMARK    2  A    between atoms: C5_5  and  C6_6 
REMARK    3  A    between atoms: C6_6  and  N1_7 
REMARK    4  A    between atoms: N1_7  and  C7_8 
REMARK    5  A    between atoms: C15_21  and  C17_23 
REMARK    6  A    between atoms: C17_23  and  O4_24 
REMARK    7  A    between atoms: O4_24  and  C18_25 
REMARK    8  A    between atoms: C18_25  and  P1_26 
ROOT
HETATM    1  C1  UNL     1      22.529   6.960  46.547  1.00  0.00     0.012 C 
HETATM    2  C2  UNL     1      23.405   7.003  47.349  1.00  0.00    -0.109 C 
HETATM    3  C3  UNL     1      24.495   7.053  48.330  1.00  0.00     0.084 C 
HETATM    4  C4  UNL     1      25.806   7.425  47.644  1.00  0.00     0.027 C 
ENDROOT
BRANCH   3   5
HETATM    5  C5  UNL     1      24.669   5.765  48.969  1.00  0.00     0.007 C 
BRANCH   5   6
HETATM    6  C6  UNL     1      24.784   4.559  49.495  1.00  0.00     0.087 C 
BRANCH   6   7
HETATM    7  N1  UNL     1      24.830   3.242  49.973  1.00  0.00    -0.350 N 
HETATM    8  H8  UNL     1      25.838   3.139  50.306  1.00  0.00     0.166 HD
BRANCH   7   9
HETATM    9  C7  UNL     1      23.636   2.476  49.903  1.00  0.00     0.144 A 
HETATM   10  N2  UNL     1      23.050   2.564  48.689  1.00  0.00    -0.223 NA
HETATM   11  C8  UNL     1      21.902   1.880  48.482  1.00  0.00     0.236 A 
HETATM   12  N3  UNL     1      21.316   1.113  49.437  1.00  0.00    -0.241 NA
HETATM   13  C9  UNL     1      21.863   0.996  50.658  1.00  0.00     0.074 A 
HETATM   14  C10 UNL     1      23.028   1.697  50.855  1.00  0.00     0.073 A 
HETATM   15  C19 UNL     1      21.273   0.228  51.556  1.00  0.00     0.045 C 
HETATM   16  C11 UNL     1      23.754   1.778  51.951  1.00  0.00     0.117 C 
HETATM   17  O1  UNL     1      24.913   2.590  51.898  1.00  0.00    -0.347 OA
HETATM   18  C14 UNL     1      23.610   1.169  53.308  1.00  0.00     0.320 C 
HETATM   19  C12 UNL     1      25.866   2.276  52.938  1.00  0.00     0.201 C 
HETATM   20  C13 UNL     1      25.851   0.831  53.318  1.00  0.00     0.198 C 
HETATM   21  O2  UNL     1      24.607   0.224  53.376  1.00  0.00    -0.353 OA
HETATM   22  O3  UNL     1      22.355   0.830  53.630  1.00  0.00    -0.338 OA
HETATM   23  C15 UNL     1      21.643  -0.085  52.954  1.00  0.00     0.102 C 
HETATM   24  C16 UNL     1      22.246  -1.475  53.084  1.00  0.00     0.053 C 
BRANCH  23  25
HETATM   25  C17 UNL     1      20.285  -0.166  53.681  1.00  0.00     0.216 C 
BRANCH  25  26
HETATM   26  O4  UNL     1      19.213  -0.231  52.795  1.00  0.00    -0.359 OA
BRANCH  26  27
HETATM   27  C18 UNL     1      18.172  -1.104  53.082  1.00  0.00     0.141 C 
BRANCH  27  28
HETATM   28  P1  UNL     1      16.667  -0.893  52.473  1.00  0.00    -0.050 P 
HETATM   29  H21 UNL     1      15.719   0.076  52.960  1.00  0.00     0.068 HD
ENDBRANCH  27  28
ENDBRANCH  26  27
ENDBRANCH  25  26
ENDBRANCH  23  25
ENDBRANCH   7   9
ENDBRANCH   6   7
ENDBRANCH   5   6
ENDBRANCH   3   5
TORSDOF 8
ENDMDL
MODEL 8
REMARK VINA RESULT:      -6.2     11.793     14.824
REMARK  8 active torsions:
REMARK  status: ('A' for Active; 'I' for Inactive)
REMARK    1  A    between atoms: C3_3  and  C5_5 
REMARK    2  A    between atoms: C5_5  and  C6_6 
REMARK    3  A    between atoms: C6_6  and  N1_7 
REMARK    4  A    between atoms: N1_7  and  C7_8 
REMARK    5  A    between atoms: C15_21  and  C17_23 
REMARK    6  A    between atoms: C17_23  and  O4_24 
REMARK    7  A    between atoms: O4_24  and  C18_25 
REMARK    8  A    between atoms: C18_25  and  P1_26 
ROOT
HETATM    1  C1  UNL     1      34.241   1.083  39.719  1.00  0.00     0.012 C 
HETATM    2  C2  UNL     1      34.061   2.255  39.798  1.00  0.00    -0.109 C 
HETATM    3  C3  UNL     1      33.850   3.703  39.893  1.00  0.00     0.084 C 
HETATM    4  C4  UNL     1      34.942   4.448  39.129  1.00  0.00     0.027 C 
ENDROOT
BRANCH   3   5
HETATM    5  C5  UNL     1      33.890   4.138  41.275  1.00  0.00     0.007 C 
BRANCH   5   6
HETATM    6  C6  UNL     1      33.984   4.584  42.514  1.00  0.00     0.087 C 
BRANCH   6   7
HETATM    7  N1  UNL     1      34.034   4.957  43.864  1.00  0.00    -0.350 N 
HETATM    8  H8  UNL     1      34.800   4.332  44.261  1.00  0.00     0.166 HD
BRANCH   7   9
HETATM    9  C7  UNL     1      33.145   5.978  44.297  1.00  0.00     0.144 A 
HETATM   10  N2  UNL     1      32.824   6.825  43.295  1.00  0.00    -0.223 NA
HETATM   11  C8  UNL     1      31.981   7.848  43.567  1.00  0.00     0.236 A 
HETATM   12  N3  UNL     1      31.447   8.057  44.798  1.00  0.00    -0.241 NA
HETATM   13  C9  UNL     1      31.738   7.240  45.823  1.00  0.00     0.074 A 
HETATM   14  C10 UNL     1      32.596   6.207  45.533  1.00  0.00     0.073 A 
HETATM   15  C19 UNL     1      31.187   7.466  47.002  1.00  0.00     0.045 C 
HETATM   16  C11 UNL     1      33.062   5.282  46.348  1.00  0.00     0.117 C 
HETATM   17  O1  UNL     1      33.956   4.332  45.798  1.00  0.00    -0.347 OA
HETATM   18  C14 UNL     1      32.842   5.009  47.800  1.00  0.00     0.320 C 
HETATM   19  C12 UNL     1      34.056   3.131  46.595  1.00  0.00     0.201 C 
HETATM   20  C13 UNL     1      32.782   2.798  47.302  1.00  0.00     0.198 C 
HETATM   21  O2  UNL     1      32.075   3.867  47.829  1.00  0.00    -0.353 OA
HETATM   22  O3  UNL     1      32.463   6.078  48.511  1.00  0.00    -0.338 OA
HETATM   23  C15 UNL     1      31.319   6.744  48.286  1.00  0.00     0.102 C 
HETATM   24  C16 UNL     1      30.100   5.886  48.583  1.00  0.00     0.053 C 
BRANCH  23  25
HETATM   25  C17 UNL     1      31.288   7.869  49.342  1.00  0.00     0.216 C 
BRANCH  25  26
HETATM   26  O4  UNL     1      31.025   9.115  48.779  1.00  0.00    -0.359 OA
BRANCH  26  27
HETATM   27  C18 UNL     1      30.026   9.896  49.344  1.00  0.00     0.141 C 
BRANCH  27  28
HETATM   28  P1  UNL     1      28.455   9.433  49.344  1.00  0.00    -0.050 P 
HETATM   29  H21 UNL     1      27.354  10.284  48.974  1.00  0.00     0.068 HD
ENDBRANCH  27  28
ENDBRANCH  26  27
ENDBRANCH  25  26
ENDBRANCH  23  25
ENDBRANCH   7   9
ENDBRANCH   6   7
ENDBRANCH   5   6
ENDBRANCH   3   5
TORSDOF 8
ENDMDL
MODEL 9
REMARK VINA RESULT:      -6.0     10.739     13.974
REMARK  8 active torsions:
REMARK  status: ('A' for Active; 'I' for Inactive)
REMARK    1  A    between atoms: C3_3  and  C5_5 
REMARK    2  A    between atoms: C5_5  and  C6_6 
REMARK    3  A    between atoms: C6_6  and  N1_7 
REMARK    4  A    between atoms: N1_7  and  C7_8 
REMARK    5  A    between atoms: C15_21  and  C17_23 
REMARK    6  A    between atoms: C17_23  and  O4_24 
REMARK    7  A    between atoms: O4_24  and  C18_25 
REMARK    8  A    between atoms: C18_25  and  P1_26 
ROOT
HETATM    1  C1  UNL     1      35.068   3.698  45.367  1.00  0.00     0.012 C 
HETATM    2  C2  UNL     1      34.405   3.325  46.280  1.00  0.00    -0.109 C 
HETATM    3  C3  UNL     1      33.578   2.860  47.399  1.00  0.00     0.084 C 
HETATM    4  C4  UNL     1      32.713   1.681  46.962  1.00  0.00     0.027 C 
ENDROOT
BRANCH   3   5
HETATM    5  C5  UNL     1      32.701   3.916  47.862  1.00  0.00     0.007 C 
BRANCH   5   6
HETATM    6  C6  UNL     1      31.950   4.930  48.250  1.00  0.00     0.087 C 
BRANCH   6   7
HETATM    7  N1  UNL     1      31.226   6.077  48.605  1.00  0.00    -0.350 N 
HETATM    8  H8  UNL     1      30.394   5.684  49.142  1.00  0.00     0.166 HD
BRANCH   7   9
HETATM    9  C7  UNL     1      31.751   7.336  48.204  1.00  0.00     0.144 A 
HETATM   10  N2  UNL     1      33.096   7.303  48.075  1.00  0.00    -0.223 NA
HETATM   11  C8  UNL     1      33.730   8.436  47.697  1.00  0.00     0.236 A 
HETATM   12  N3  UNL     1      33.076   9.598  47.441  1.00  0.00    -0.241 NA
HETATM   13  C9  UNL     1      31.740   9.677  47.557  1.00  0.00     0.074 A 
HETATM   14  C10 UNL     1      31.109   8.519  47.943  1.00  0.00     0.073 A 
HETATM   15  C19 UNL     1      31.137  10.820  47.285  1.00  0.00     0.045 C 
HETATM   16  C11 UNL     1      29.824   8.324  48.154  1.00  0.00     0.117 C 
HETATM   17  O1  UNL     1      29.428   7.029  48.568  1.00  0.00    -0.347 OA
HETATM   18  C14 UNL     1      28.633   9.220  48.047  1.00  0.00     0.320 C 
HETATM   19  C12 UNL     1      28.025   6.771  48.340  1.00  0.00     0.201 C 
HETATM   20  C13 UNL     1      27.495   7.483  47.137  1.00  0.00     0.198 C 
HETATM   21  O2  UNL     1      27.957   8.773  46.935  1.00  0.00    -0.353 OA
HETATM   22  O3  UNL     1      28.911  10.523  48.172  1.00  0.00    -0.338 OA
HETATM   23  C15 UNL     1      29.706  11.192  47.322  1.00  0.00     0.102 C 
HETATM   24  C16 UNL     1      29.103  11.267  45.929  1.00  0.00     0.053 C 
BRANCH  23  25
HETATM   25  C17 UNL     1      29.720  12.648  47.834  1.00  0.00     0.216 C 
BRANCH  25  26
HETATM   26  O4  UNL     1      28.778  12.864  48.837  1.00  0.00    -0.359 OA
BRANCH  26  27
HETATM   27  C18 UNL     1      27.749  13.763  48.591  1.00  0.00     0.141 C 
BRANCH  27  28
HETATM   28  P1  UNL     1      26.393  13.334  47.780  1.00  0.00    -0.050 P 
HETATM   29  H21 UNL     1      25.074  13.304  48.357  1.00  0.00     0.068 HD
ENDBRANCH  27  28
ENDBRANCH  26  27
ENDBRANCH  25  26
ENDBRANCH  23  25
ENDBRANCH   7   9
ENDBRANCH   6   7
ENDBRANCH   5   6
ENDBRANCH   3   5
TORSDOF 8
ENDMDL
