MODEL 1
REMARK VINA RESULT:      -7.5      0.000      0.000
REMARK  7 active torsions:
REMARK  status: ('A' for Active; 'I' for Inactive)
REMARK    1  A    between atoms: S1_2  and  C2_4 
REMARK    2  A    between atoms: S1_2  and  C4_7 
REMARK    3  A    between atoms: C2_4  and  C3_5 
REMARK    4  A    between atoms: C3_5  and  O2_6 
REMARK    5  A    between atoms: N3_12  and  C7_13 
REMARK    6  A    between atoms: C7_13  and  N4_14 
REMARK    7  A    between atoms: N4_14  and  C8_15 
ROOT
HETATM    1  C4  UNL     1      25.808   0.035  52.533  1.00  0.00     0.338 A 
HETATM    2  N1  UNL     1      25.377   1.325  52.051  1.00  0.00    -0.241 NA
HETATM    3  C5  UNL     1      24.186   1.716  52.337  1.00  0.00     0.207 A 
HETATM    4  N2  UNL     1      23.170   1.059  53.083  1.00  0.00    -0.315 N 
HETATM    5  C6  UNL     1      23.565  -0.215  53.571  1.00  0.00     0.246 A 
HETATM    6  N3  UNL     1      22.735  -0.917  54.265  1.00  0.00    -0.231 NA
HETATM    7  O3  UNL     1      24.844  -0.639  53.267  1.00  0.00    -0.282 OA
HETATM    8  H10 UNL     1      22.238   1.495  53.241  1.00  0.00     0.170 HD
ENDROOT
BRANCH   6   9
HETATM    9  C7  UNL     1      21.408  -0.389  54.537  1.00  0.00     0.274 C 
BRANCH   9  10
HETATM   10  N4  UNL     1      20.418  -1.440  54.381  1.00  0.00    -0.372 N 
HETATM   11  H13 UNL     1      19.825  -2.291  54.392  1.00  0.00     0.161 HD
BRANCH  10  12
HETATM   12  C8  UNL     1      19.417  -0.919  53.481  1.00  0.00     0.029 C 
HETATM   13  C9  UNL     1      18.222  -1.528  53.417  1.00  0.00     0.029 C 
HETATM   14  C10 UNL     1      17.030  -1.221  52.601  1.00  0.00    -0.002 C 
HETATM   15  C11 UNL     1      17.069  -0.516  51.486  1.00  0.00    -0.023 C 
HETATM   16  C12 UNL     1      18.104   0.156  50.691  1.00  0.00     0.054 C 
HETATM   17  C13 UNL     1      19.192   0.667  51.539  1.00  0.00    -0.021 C 
HETATM   18  C14 UNL     1      19.751   0.266  52.668  1.00  0.00     0.025 C 
ENDBRANCH  10  12
ENDBRANCH   9  10
ENDBRANCH   6   9
BRANCH   1  19
HETATM   19  S1  UNL     1      27.272   0.380  53.529  1.00  0.00    -0.005 S 
HETATM   20  C1  UNL     1      27.936   1.761  53.110  1.00  0.00     0.112 C 
HETATM   21  O1  UNL     1      26.861   0.672  54.967  1.00  0.00    -0.266 OA
BRANCH  19  22
HETATM   22  C2  UNL     1      28.301  -1.018  53.409  1.00  0.00     0.126 C 
BRANCH  22  23
HETATM   23  C3  UNL     1      27.756  -2.220  52.740  1.00  0.00     0.176 C 
BRANCH  23  24
HETATM   24  O2  UNL     1      28.486  -3.366  52.957  1.00  0.00    -0.400 OA
HETATM   25  H7  UNL     1      28.505  -3.875  52.098  1.00  0.00     0.209 HD
ENDBRANCH  23  24
ENDBRANCH  22  23
ENDBRANCH  19  22
ENDBRANCH   1  19
TORSDOF 7
ENDMDL
MODEL 2
REMARK VINA RESULT:      -7.3      1.064      1.995
REMARK  7 active torsions:
REMARK  status: ('A' for Active; 'I' for Inactive)
REMARK    1  A    between atoms: S1_2  and  C2_4 
REMARK    2  A    between atoms: S1_2  and  C4_7 
REMARK    3  A    between atoms: C2_4  and  C3_5 
REMARK    4  A    between atoms: C3_5  and  O2_6 
REMARK    5  A    between atoms: N3_12  and  C7_13 
REMARK    6  A    between atoms: C7_13  and  N4_14 
REMARK    7  A    between atoms: N4_14  and  C8_15 
ROOT
HETATM    1  C4  UNL     1      26.030  -0.160  52.539  1.00  0.00     0.338 A 
HETATM    2  N1  UNL     1      25.792   1.226  52.219  1.00  0.00    -0.241 NA
HETATM    3  C5  UNL     1      24.644   1.729  52.507  1.00  0.00     0.207 A 
HETATM    4  N2  UNL     1      23.515   1.121  53.119  1.00  0.00    -0.315 N 
HETATM    5  C6  UNL     1      23.720  -0.245  53.447  1.00  0.00     0.246 A 
HETATM    6  N3  UNL     1      22.772  -0.916  54.008  1.00  0.00    -0.231 NA
HETATM    7  O3  UNL     1      24.951  -0.791  53.139  1.00  0.00    -0.282 OA
HETATM    8  H10 UNL     1      22.636   1.651  53.298  1.00  0.00     0.170 HD
ENDROOT
BRANCH   6   9
HETATM    9  C7  UNL     1      21.508  -0.258  54.296  1.00  0.00     0.274 C 
BRANCH   9  10
HETATM   10  N4  UNL     1      20.439  -1.241  54.343  1.00  0.00    -0.372 N 
HETATM   11  H13 UNL     1      19.791  -2.033  54.506  1.00  0.00     0.161 HD
BRANCH  10  12
HETATM   12  C8  UNL     1      19.427  -0.778  53.426  1.00  0.00     0.029 C 
HETATM   13  C9  UNL     1      18.240  -1.406  53.398  1.00  0.00     0.029 C 
HETATM   14  C10 UNL     1      17.039  -1.155  52.576  1.00  0.00    -0.002 C 
HETATM   15  C11 UNL     1      17.062  -0.504  51.428  1.00  0.00    -0.023 C 
HETATM   16  C12 UNL     1      18.082   0.145  50.595  1.00  0.00     0.054 C 
HETATM   17  C13 UNL     1      19.167   0.710  51.411  1.00  0.00    -0.021 C 
HETATM   18  C14 UNL     1      19.738   0.371  52.555  1.00  0.00     0.025 C 
ENDBRANCH  10  12
ENDBRANCH   9  10
ENDBRANCH   6   9
BRANCH   1  19
HETATM   19  S1  UNL     1      27.468  -0.140  53.630  1.00  0.00    -0.005 S 
HETATM   20  C1  UNL     1      27.031   0.018  55.150  1.00  0.00     0.112 C 
HETATM   21  O1  UNL     1      28.120  -1.517  53.651  1.00  0.00    -0.266 OA
BRANCH  19  22
HETATM   22  C2  UNL     1      28.540   1.088  53.023  1.00  0.00     0.126 C 
BRANCH  22  23
HETATM   23  C3  UNL     1      28.749   2.293  53.856  1.00  0.00     0.176 C 
BRANCH  23  24
HETATM   24  O2  UNL     1      27.603   3.014  54.103  1.00  0.00    -0.400 OA
HETATM   25  H7  UNL     1      26.877   2.359  54.304  1.00  0.00     0.209 HD
ENDBRANCH  23  24
ENDBRANCH  22  23
ENDBRANCH  19  22
ENDBRANCH   1  19
TORSDOF 7
ENDMDL
MODEL 3
REMARK VINA RESULT:      -7.3      6.054      8.333
REMARK  7 active torsions:
REMARK  status: ('A' for Active; 'I' for Inactive)
REMARK    1  A    between atoms: S1_2  and  C2_4 
REMARK    2  A    between atoms: S1_2  and  C4_7 
REMARK    3  A    between atoms: C2_4  and  C3_5 
REMARK    4  A    between atoms: C3_5  and  O2_6 
REMARK    5  A    between atoms: N3_12  and  C7_13 
REMARK    6  A    between atoms: C7_13  and  N4_14 
REMARK    7  A    between atoms: N4_14  and  C8_15 
ROOT
HETATM    1  C4  UNL     1      28.425   7.298  47.828  1.00  0.00     0.338 A 
HETATM    2  N1  UNL     1      27.599   8.179  48.618  1.00  0.00    -0.241 NA
HETATM    3  C5  UNL     1      26.751   7.654  49.430  1.00  0.00     0.207 A 
HETATM    4  N2  UNL     1      26.474   6.285  49.693  1.00  0.00    -0.315 N 
HETATM    5  C6  UNL     1      27.273   5.393  48.930  1.00  0.00     0.246 A 
HETATM    6  N3  UNL     1      27.122   4.119  49.074  1.00  0.00    -0.231 NA
HETATM    7  O3  UNL     1      28.186   5.951  48.057  1.00  0.00    -0.282 OA
HETATM    8  H10 UNL     1      25.752   5.995  50.385  1.00  0.00     0.170 HD
ENDROOT
BRANCH   6   9
HETATM    9  C7  UNL     1      26.135   3.621  50.018  1.00  0.00     0.274 C 
BRANCH   9  10
HETATM   10  N4  UNL     1      26.801   3.117  51.207  1.00  0.00    -0.372 N 
HETATM   11  H13 UNL     1      27.405   2.899  52.020  1.00  0.00     0.161 HD
BRANCH  10  12
HETATM   12  C8  UNL     1      26.000   2.013  51.678  1.00  0.00     0.029 C 
HETATM   13  C9  UNL     1      24.686   2.202  51.875  1.00  0.00     0.029 C 
HETATM   14  C10 UNL     1      23.641   1.271  52.344  1.00  0.00    -0.002 C 
HETATM   15  C11 UNL     1      23.894   0.177  53.038  1.00  0.00    -0.023 C 
HETATM   16  C12 UNL     1      25.090  -0.494  53.563  1.00  0.00     0.054 C 
HETATM   17  C13 UNL     1      26.258  -0.275  52.698  1.00  0.00    -0.021 C 
HETATM   18  C14 UNL     1      26.662   0.718  51.922  1.00  0.00     0.025 C 
ENDBRANCH  10  12
ENDBRANCH   9  10
ENDBRANCH   6   9
BRANCH   1  19
HETATM   19  S1  UNL     1      30.119   7.746  48.257  1.00  0.00    -0.005 S 
HETATM   20  C1  UNL     1      30.779   8.639  47.120  1.00  0.00     0.112 C 
HETATM   21  O1  UNL     1      30.116   8.717  49.432  1.00  0.00    -0.266 OA
BRANCH  19  22
HETATM   22  C2  UNL     1      30.952   6.264  48.629  1.00  0.00     0.126 C 
BRANCH  22  23
HETATM   23  C3  UNL     1      31.911   6.276  49.755  1.00  0.00     0.176 C 
BRANCH  23  24
HETATM   24  O2  UNL     1      31.544   5.483  50.818  1.00  0.00    -0.400 OA
HETATM   25  H7  UNL     1      32.023   5.825  51.625  1.00  0.00     0.209 HD
ENDBRANCH  23  24
ENDBRANCH  22  23
ENDBRANCH  19  22
ENDBRANCH   1  19
TORSDOF 7
ENDMDL
MODEL 4
REMARK VINA RESULT:      -7.3      4.782      6.095
REMARK  7 active torsions:
REMARK  status: ('A' for Active; 'I' for Inactive)
REMARK    1  A    between atoms: S1_2  and  C2_4 
REMARK    2  A    between atoms: S1_2  and  C4_7 
REMARK    3  A    between atoms: C2_4  and  C3_5 
REMARK    4  A    between atoms: C3_5  and  O2_6 
REMARK    5  A    between atoms: N3_12  and  C7_13 
REMARK    6  A    between atoms: C7_13  and  N4_14 
REMARK    7  A    between atoms: N4_14  and  C8_15 
ROOT
HETATM    1  C4  UNL     1      27.801   1.849  53.551  1.00  0.00     0.338 A 
HETATM    2  N1  UNL     1      26.511   1.957  54.188  1.00  0.00    -0.241 NA
HETATM    3  C5  UNL     1      25.525   2.404  53.494  1.00  0.00     0.207 A 
HETATM    4  N2  UNL     1      25.489   2.830  52.138  1.00  0.00    -0.315 N 
HETATM    5  C6  UNL     1      26.746   2.734  51.485  1.00  0.00     0.246 A 
HETATM    6  N3  UNL     1      26.852   3.090  50.249  1.00  0.00    -0.231 NA
HETATM    7  O3  UNL     1      27.809   2.255  52.226  1.00  0.00    -0.282 OA
HETATM    8  H10 UNL     1      24.612   3.173  51.694  1.00  0.00     0.170 HD
ENDROOT
BRANCH   6   9
HETATM    9  C7  UNL     1      25.678   3.583  49.547  1.00  0.00     0.274 C 
BRANCH   9  10
HETATM   10  N4  UNL     1      25.793   5.016  49.338  1.00  0.00    -0.372 N 
HETATM   11  H13 UNL     1      26.041   5.993  49.097  1.00  0.00     0.161 HD
BRANCH  10  12
HETATM   12  C8  UNL     1      24.631   5.606  49.957  1.00  0.00     0.029 C 
HETATM   13  C9  UNL     1      23.493   4.896  50.011  1.00  0.00     0.029 C 
HETATM   14  C10 UNL     1      22.172   5.239  50.573  1.00  0.00    -0.002 C 
HETATM   15  C11 UNL     1      21.763   6.478  50.775  1.00  0.00    -0.023 C 
HETATM   16  C12 UNL     1      22.314   7.824  50.575  1.00  0.00     0.054 C 
HETATM   17  C13 UNL     1      23.775   7.840  50.742  1.00  0.00    -0.021 C 
HETATM   18  C14 UNL     1      24.744   6.971  50.506  1.00  0.00     0.025 C 
ENDBRANCH  10  12
ENDBRANCH   9  10
ENDBRANCH   6   9
BRANCH   1  19
HETATM   19  S1  UNL     1      28.246   0.107  53.707  1.00  0.00    -0.005 S 
HETATM   20  C1  UNL     1      29.824  -0.086  53.662  1.00  0.00     0.112 C 
HETATM   21  O1  UNL     1      27.928  -0.385  55.113  1.00  0.00    -0.266 OA
BRANCH  19  22
HETATM   22  C2  UNL     1      27.349  -0.751  52.488  1.00  0.00     0.126 C 
BRANCH  22  23
HETATM   23  C3  UNL     1      26.944  -2.144  52.783  1.00  0.00     0.176 C 
BRANCH  23  24
HETATM   24  O2  UNL     1      27.983  -3.046  52.776  1.00  0.00    -0.400 OA
HETATM   25  H7  UNL     1      27.583  -3.961  52.809  1.00  0.00     0.209 HD
ENDBRANCH  23  24
ENDBRANCH  22  23
ENDBRANCH  19  22
ENDBRANCH   1  19
TORSDOF 7
ENDMDL
MODEL 5
REMARK VINA RESULT:      -7.3      5.783      7.913
REMARK  7 active torsions:
REMARK  status: ('A' for Active; 'I' for Inactive)
REMARK    1  A    between atoms: S1_2  and  C2_4 
REMARK    2  A    between atoms: S1_2  and  C4_7 
REMARK    3  A    between atoms: C2_4  and  C3_5 
REMARK    4  A    between atoms: C3_5  and  O2_6 
REMARK    5  A    between atoms: N3_12  and  C7_13 
REMARK    6  A    between atoms: C7_13  and  N4_14 
REMARK    7  A    between atoms: N4_14  and  C8_15 
ROOT
HETATM    1  C4  UNL     1      29.338   6.051  47.775  1.00  0.00     0.338 A 
HETATM    2  N1  UNL     1      28.667   7.261  48.182  1.00  0.00    -0.241 NA
HETATM    3  C5  UNL     1      27.590   7.157  48.878  1.00  0.00     0.207 A 
HETATM    4  N2  UNL     1      26.915   5.992  49.336  1.00  0.00    -0.315 N 
HETATM    5  C6  UNL     1      27.554   4.784  48.950  1.00  0.00     0.246 A 
HETATM    6  N3  UNL     1      27.043   3.653  49.301  1.00  0.00    -0.231 NA
HETATM    7  O3  UNL     1      28.710   4.891  48.202  1.00  0.00    -0.282 OA
HETATM    8  H10 UNL     1      26.041   6.051  49.898  1.00  0.00     0.170 HD
ENDROOT
BRANCH   6   9
HETATM    9  C7  UNL     1      25.821   3.636  50.089  1.00  0.00     0.274 C 
BRANCH   9  10
HETATM   10  N4  UNL     1      26.141   3.435  51.491  1.00  0.00    -0.372 N 
HETATM   11  H13 UNL     1      26.464   3.461  52.476  1.00  0.00     0.161 HD
BRANCH  10  12
HETATM   12  C8  UNL     1      25.520   2.189  51.870  1.00  0.00     0.029 C 
HETATM   13  C9  UNL     1      24.214   2.183  52.180  1.00  0.00     0.029 C 
HETATM   14  C10 UNL     1      23.330   1.075  52.596  1.00  0.00    -0.002 C 
HETATM   15  C11 UNL     1      23.770  -0.052  53.124  1.00  0.00    -0.023 C 
HETATM   16  C12 UNL     1      25.077  -0.620  53.476  1.00  0.00     0.054 C 
HETATM   17  C13 UNL     1      26.134  -0.151  52.568  1.00  0.00    -0.021 C 
HETATM   18  C14 UNL     1      26.351   0.970  51.901  1.00  0.00     0.025 C 
ENDBRANCH  10  12
ENDBRANCH   9  10
ENDBRANCH   6   9
BRANCH   1  19
HETATM   19  S1  UNL     1      31.000   6.191  48.464  1.00  0.00    -0.005 S 
HETATM   20  C1  UNL     1      31.294   7.676  48.949  1.00  0.00     0.112 C 
HETATM   21  O1  UNL     1      31.080   5.428  49.780  1.00  0.00    -0.266 OA
BRANCH  19  22
HETATM   22  C2  UNL     1      32.094   5.560  47.267  1.00  0.00     0.126 C 
BRANCH  22  23
HETATM   23  C3  UNL     1      32.351   4.103  47.269  1.00  0.00     0.176 C 
BRANCH  23  24
HETATM   24  O2  UNL     1      32.694   3.592  48.500  1.00  0.00    -0.400 OA
HETATM   25  H7  UNL     1      31.855   3.263  48.930  1.00  0.00     0.209 HD
ENDBRANCH  23  24
ENDBRANCH  22  23
ENDBRANCH  19  22
ENDBRANCH   1  19
TORSDOF 7
ENDMDL
MODEL 6
REMARK VINA RESULT:      -7.1      6.594      9.058
REMARK  7 active torsions:
REMARK  status: ('A' for Active; 'I' for Inactive)
REMARK    1  A    between atoms: S1_2  and  C2_4 
REMARK    2  A    between atoms: S1_2  and  C4_7 
REMARK    3  A    between atoms: C2_4  and  C3_5 
REMARK    4  A    between atoms: C3_5  and  O2_6 
REMARK    5  A    between atoms: N3_12  and  C7_13 
REMARK    6  A    between atoms: C7_13  and  N4_14 
REMARK    7  A    between atoms: N4_14  and  C8_15 
ROOT
HETATM    1  C4  UNL     1      25.224   6.557  48.554  1.00  0.00     0.338 A 
HETATM    2  N1  UNL     1      24.582   7.116  49.719  1.00  0.00    -0.241 NA
HETATM    3  C5  UNL     1      24.511   6.394  50.781  1.00  0.00     0.207 A 
HETATM    4  N2  UNL     1      24.981   5.072  51.013  1.00  0.00    -0.315 N 
HETATM    5  C6  UNL     1      25.618   4.495  49.882  1.00  0.00     0.246 A 
HETATM    6  N3  UNL     1      26.090   3.297  49.959  1.00  0.00    -0.231 NA
HETATM    7  O3  UNL     1      25.697   5.267  48.739  1.00  0.00    -0.282 OA
HETATM    8  H10 UNL     1      24.856   4.599  51.932  1.00  0.00     0.170 HD
ENDROOT
BRANCH   6   9
HETATM    9  C7  UNL     1      25.962   2.559  51.204  1.00  0.00     0.274 C 
BRANCH   9  10
HETATM   10  N4  UNL     1      27.094   2.847  52.068  1.00  0.00    -0.372 N 
HETATM   11  H13 UNL     1      27.877   3.238  52.623  1.00  0.00     0.161 HD
BRANCH  10  12
HETATM   12  C8  UNL     1      27.476   1.590  52.663  1.00  0.00     0.029 C 
HETATM   13  C9  UNL     1      28.620   1.525  53.363  1.00  0.00     0.029 C 
HETATM   14  C10 UNL     1      29.251   0.393  54.070  1.00  0.00    -0.002 C 
HETATM   15  C11 UNL     1      28.992  -0.873  53.800  1.00  0.00    -0.023 C 
HETATM   16  C12 UNL     1      28.129  -1.604  52.863  1.00  0.00     0.054 C 
HETATM   17  C13 UNL     1      26.897  -0.858  52.568  1.00  0.00    -0.021 C 
HETATM   18  C14 UNL     1      26.591   0.426  52.478  1.00  0.00     0.025 C 
ENDBRANCH  10  12
ENDBRANCH   9  10
ENDBRANCH   6   9
BRANCH   1  19
HETATM   19  S1  UNL     1      26.567   7.701  48.174  1.00  0.00    -0.005 S 
HETATM   20  C1  UNL     1      27.978   6.973  48.258  1.00  0.00     0.112 C 
HETATM   21  O1  UNL     1      26.518   8.085  46.701  1.00  0.00    -0.266 OA
BRANCH  19  22
HETATM   22  C2  UNL     1      26.366   9.075  49.221  1.00  0.00     0.126 C 
BRANCH  22  23
HETATM   23  C3  UNL     1      27.575   9.634  49.865  1.00  0.00     0.176 C 
BRANCH  23  24
HETATM   24  O2  UNL     1      27.621   9.457  51.229  1.00  0.00    -0.400 OA
HETATM   25  H7  UNL     1      28.287   8.735  51.413  1.00  0.00     0.209 HD
ENDBRANCH  23  24
ENDBRANCH  22  23
ENDBRANCH  19  22
ENDBRANCH   1  19
TORSDOF 7
ENDMDL
MODEL 7
REMARK VINA RESULT:      -6.9      1.964      2.180
REMARK  7 active torsions:
REMARK  status: ('A' for Active; 'I' for Inactive)
REMARK    1  A    between atoms: S1_2  and  C2_4 
REMARK    2  A    between atoms: S1_2  and  C4_7 
REMARK    3  A    between atoms: C2_4  and  C3_5 
REMARK    4  A    between atoms: C3_5  and  O2_6 
REMARK    5  A    between atoms: N3_12  and  C7_13 
REMARK    6  A    between atoms: C7_13  and  N4_14 
REMARK    7  A    between atoms: N4_14  and  C8_15 
ROOT
HETATM    1  C4  UNL     1      26.792  -0.446  52.701  1.00  0.00     0.338 A 
HETATM    2  N1  UNL     1      26.652   0.763  51.926  1.00  0.00    -0.241 NA
HETATM    3  C5  UNL     1      25.513   1.359  51.927  1.00  0.00     0.207 A 
HETATM    4  N2  UNL     1      24.307   1.011  52.595  1.00  0.00    -0.315 N 
HETATM    5  C6  UNL     1      24.415  -0.175  53.368  1.00  0.00     0.246 A 
HETATM    6  N3  UNL     1      23.391  -0.603  54.026  1.00  0.00    -0.231 NA
HETATM    7  O3  UNL     1      25.637  -0.819  53.370  1.00  0.00    -0.282 OA
HETATM    8  H10 UNL     1      23.446   1.590  52.509  1.00  0.00     0.170 HD
ENDROOT
BRANCH   6   9
HETATM    9  C7  UNL     1      22.144   0.141  53.965  1.00  0.00     0.274 C 
BRANCH   9  10
HETATM   10  N4  UNL     1      21.265  -0.449  52.970  1.00  0.00    -0.372 N 
HETATM   11  H13 UNL     1      20.673  -1.037  52.356  1.00  0.00     0.161 HD
BRANCH  10  12
HETATM   12  C8  UNL     1      20.855   0.631  52.105  1.00  0.00     0.029 C 
HETATM   13  C9  UNL     1      20.331   1.739  52.654  1.00  0.00     0.029 C 
HETATM   14  C10 UNL     1      19.834   2.979  52.026  1.00  0.00    -0.002 C 
HETATM   15  C11 UNL     1      19.449   3.056  50.765  1.00  0.00    -0.023 C 
HETATM   16  C12 UNL     1      19.352   2.135  49.626  1.00  0.00     0.054 C 
HETATM   17  C13 UNL     1      20.398   1.103  49.674  1.00  0.00    -0.021 C 
HETATM   18  C14 UNL     1      21.031   0.471  50.649  1.00  0.00     0.025 C 
ENDBRANCH  10  12
ENDBRANCH   9  10
ENDBRANCH   6   9
BRANCH   1  19
HETATM   19  S1  UNL     1      28.137  -0.100  53.854  1.00  0.00    -0.005 S 
HETATM   20  C1  UNL     1      28.620   1.409  53.733  1.00  0.00     0.112 C 
HETATM   21  O1  UNL     1      27.612  -0.129  55.284  1.00  0.00    -0.266 OA
BRANCH  19  22
HETATM   22  C2  UNL     1      29.359  -1.306  53.575  1.00  0.00     0.126 C 
BRANCH  22  23
HETATM   23  C3  UNL     1      28.986  -2.493  52.774  1.00  0.00     0.176 C 
BRANCH  23  24
HETATM   24  O2  UNL     1      28.610  -3.584  53.523  1.00  0.00    -0.400 OA
HETATM   25  H7  UNL     1      28.306  -3.245  54.411  1.00  0.00     0.209 HD
ENDBRANCH  23  24
ENDBRANCH  22  23
ENDBRANCH  19  22
ENDBRANCH   1  19
TORSDOF 7
ENDMDL
MODEL 8
REMARK VINA RESULT:      -6.9      3.792      6.037
REMARK  7 active torsions:
REMARK  status: ('A' for Active; 'I' for Inactive)
REMARK    1  A    between atoms: S1_2  and  C2_4 
REMARK    2  A    between atoms: S1_2  and  C4_7 
REMARK    3  A    between atoms: C2_4  and  C3_5 
REMARK    4  A    between atoms: C3_5  and  O2_6 
REMARK    5  A    between atoms: N3_12  and  C7_13 
REMARK    6  A    between atoms: C7_13  and  N4_14 
REMARK    7  A    between atoms: N4_14  and  C8_15 
ROOT
HETATM    1  C4  UNL     1      26.295   0.552  54.572  1.00  0.00     0.338 A 
HETATM    2  N1  UNL     1      25.488  -0.602  54.262  1.00  0.00    -0.241 NA
HETATM    3  C5  UNL     1      24.490  -0.452  53.466  1.00  0.00     0.207 A 
HETATM    4  N2  UNL     1      24.023   0.718  52.806  1.00  0.00    -0.315 N 
HETATM    5  C6  UNL     1      24.800   1.872  53.093  1.00  0.00     0.246 A 
HETATM    6  N3  UNL     1      24.483   3.003  52.558  1.00  0.00    -0.231 NA
HETATM    7  O3  UNL     1      25.873   1.716  53.948  1.00  0.00    -0.282 OA
HETATM    8  H10 UNL     1      23.192   0.700  52.180  1.00  0.00     0.170 HD
ENDROOT
BRANCH   6   9
HETATM    9  C7  UNL     1      23.335   3.074  51.668  1.00  0.00     0.274 C 
BRANCH   9  10
HETATM   10  N4  UNL     1      23.773   2.966  50.288  1.00  0.00    -0.372 N 
HETATM   11  H13 UNL     1      24.013   2.707  49.313  1.00  0.00     0.161 HD
BRANCH  10  12
HETATM   12  C8  UNL     1      24.374   4.235  49.956  1.00  0.00     0.029 C 
HETATM   13  C9  UNL     1      25.597   4.249  49.401  1.00  0.00     0.029 C 
HETATM   14  C10 UNL     1      26.441   5.379  48.966  1.00  0.00    -0.002 C 
HETATM   15  C11 UNL     1      26.300   6.613  49.415  1.00  0.00    -0.023 C 
HETATM   16  C12 UNL     1      25.418   7.302  50.365  1.00  0.00     0.054 C 
HETATM   17  C13 UNL     1      24.079   6.696  50.399  1.00  0.00    -0.021 C 
HETATM   18  C14 UNL     1      23.615   5.468  50.239  1.00  0.00     0.025 C 
ENDBRANCH  10  12
ENDBRANCH   9  10
ENDBRANCH   6   9
BRANCH   1  19
HETATM   19  S1  UNL     1      27.965   0.099  54.057  1.00  0.00    -0.005 S 
HETATM   20  C1  UNL     1      28.725   1.344  53.425  1.00  0.00     0.112 C 
HETATM   21  O1  UNL     1      28.825  -0.183  55.283  1.00  0.00    -0.266 OA
BRANCH  19  22
HETATM   22  C2  UNL     1      27.810  -1.293  53.025  1.00  0.00     0.126 C 
BRANCH  22  23
HETATM   23  C3  UNL     1      28.913  -2.280  53.030  1.00  0.00     0.176 C 
BRANCH  23  24
HETATM   24  O2  UNL     1      28.523  -3.559  53.357  1.00  0.00    -0.400 OA
HETATM   25  H7  UNL     1      27.525  -3.578  53.345  1.00  0.00     0.209 HD
ENDBRANCH  23  24
ENDBRANCH  22  23
ENDBRANCH  19  22
ENDBRANCH   1  19
TORSDOF 7
ENDMDL
MODEL 9
REMARK VINA RESULT:      -6.8      5.870      8.408
REMARK  7 active torsions:
REMARK  status: ('A' for Active; 'I' for Inactive)
REMARK    1  A    between atoms: S1_2  and  C2_4 
REMARK    2  A    between atoms: S1_2  and  C4_7 
REMARK    3  A    between atoms: C2_4  and  C3_5 
REMARK    4  A    between atoms: C3_5  and  O2_6 
REMARK    5  A    between atoms: N3_12  and  C7_13 
REMARK    6  A    between atoms: C7_13  and  N4_14 
REMARK    7  A    between atoms: N4_14  and  C8_15 
ROOT
HETATM    1  C4  UNL     1      24.288   6.978  48.167  1.00  0.00     0.338 A 
HETATM    2  N1  UNL     1      23.061   6.233  48.315  1.00  0.00    -0.241 NA
HETATM    3  C5  UNL     1      23.128   5.036  48.780  1.00  0.00     0.207 A 
HETATM    4  N2  UNL     1      24.261   4.284  49.193  1.00  0.00    -0.315 N 
HETATM    5  C6  UNL     1      25.485   4.992  49.060  1.00  0.00     0.246 A 
HETATM    6  N3  UNL     1      26.591   4.423  49.400  1.00  0.00    -0.231 NA
HETATM    7  O3  UNL     1      25.419   6.279  48.561  1.00  0.00    -0.282 OA
HETATM    8  H10 UNL     1      24.172   3.312  49.555  1.00  0.00     0.170 HD
ENDROOT
BRANCH   6   9
HETATM    9  C7  UNL     1      26.565   3.065  49.916  1.00  0.00     0.274 C 
BRANCH   9  10
HETATM   10  N4  UNL     1      26.746   3.081  51.358  1.00  0.00    -0.372 N 
HETATM   11  H13 UNL     1      26.987   3.250  52.352  1.00  0.00     0.161 HD
BRANCH  10  12
HETATM   12  C8  UNL     1      25.991   1.964  51.871  1.00  0.00     0.029 C 
HETATM   13  C9  UNL     1      24.741   2.175  52.314  1.00  0.00     0.029 C 
HETATM   14  C10 UNL     1      23.753   1.237  52.883  1.00  0.00    -0.002 C 
HETATM   15  C11 UNL     1      24.074   0.078  53.428  1.00  0.00    -0.023 C 
HETATM   16  C12 UNL     1      25.311  -0.672  53.675  1.00  0.00     0.054 C 
HETATM   17  C13 UNL     1      26.319  -0.412  52.637  1.00  0.00    -0.021 C 
HETATM   18  C14 UNL     1      26.627   0.633  51.887  1.00  0.00     0.025 C 
ENDBRANCH  10  12
ENDBRANCH   9  10
ENDBRANCH   6   9
BRANCH   1  19
HETATM   19  S1  UNL     1      24.050   8.460  49.169  1.00  0.00    -0.005 S 
HETATM   20  C1  UNL     1      22.706   9.209  48.770  1.00  0.00     0.112 C 
HETATM   21  O1  UNL     1      23.755   8.068  50.611  1.00  0.00    -0.266 OA
BRANCH  19  22
HETATM   22  C2  UNL     1      25.507   9.400  49.026  1.00  0.00     0.126 C 
BRANCH  22  23
HETATM   23  C3  UNL     1      26.514   9.280  50.104  1.00  0.00     0.176 C 
BRANCH  23  24
HETATM   24  O2  UNL     1      26.668   8.002  50.591  1.00  0.00    -0.400 OA
HETATM   25  H7  UNL     1      25.763   7.674  50.859  1.00  0.00     0.209 HD
ENDBRANCH  23  24
ENDBRANCH  22  23
ENDBRANCH  19  22
ENDBRANCH   1  19
TORSDOF 7
ENDMDL
