MODEL 1
REMARK VINA RESULT:      -6.4      0.000      0.000
REMARK  8 active torsions:
REMARK  status: ('A' for Active; 'I' for Inactive)
REMARK    1  A    between atoms: N1_2  and  C2_3 
REMARK    2  A    between atoms: C2_3  and  C3_4 
REMARK    3  A    between atoms: C3_4  and  C4_5 
REMARK    4  A    between atoms: N2_6  and  C5_7 
REMARK    5  A    between atoms: C5_7  and  C6_8 
REMARK    6  A    between atoms: C6_8  and  C7_9 
REMARK    7  A    between atoms: C7_9  and  N3_10 
REMARK    8  A    between atoms: N3_10  and  C8_11 
ROOT
HETATM    1  C8  UNL     1      24.280   2.212  52.114  1.00  0.00     0.110 C 
HETATM    2  C9  UNL     1      25.169   1.567  52.890  1.00  0.00     0.045 C 
HETATM    3  C10 UNL     1      26.005   2.281  53.862  1.00  0.00     0.233 C 
HETATM    4  O1  UNL     1      27.342   1.883  53.910  1.00  0.00    -0.345 OA
HETATM    5  C11 UNL     1      27.991   0.691  53.703  1.00  0.00     0.077 A 
HETATM    6  C12 UNL     1      29.364   0.786  53.784  1.00  0.00     0.037 A 
HETATM    7  C13 UNL     1      30.149  -0.333  53.598  1.00  0.00     0.003 A 
HETATM    8  C14 UNL     1      29.516  -1.548  53.328  1.00  0.00     0.001 A 
HETATM    9  C15 UNL     1      28.146  -1.623  53.251  1.00  0.00     0.011 A 
HETATM   10  C16 UNL     1      27.356  -0.490  53.440  1.00  0.00    -0.007 A 
HETATM   11  C17 UNL     1      25.920  -0.891  53.294  1.00  0.00     0.161 C 
HETATM   12  N4  UNL     1      25.161   0.150  52.621  1.00  0.00    -0.386 N 
HETATM   13  H22 UNL     1      24.522  -0.161  51.836  1.00  0.00     0.159 HD
ENDROOT
BRANCH   1  14
HETATM   14  N3  UNL     1      23.446   1.540  51.149  1.00  0.00    -0.397 N 
HETATM   15  H12 UNL     1      23.901   0.647  51.415  1.00  0.00     0.158 HD
BRANCH  14  16
HETATM   16  C7  UNL     1      22.626   2.582  50.553  1.00  0.00     0.120 C 
BRANCH  16  17
HETATM   17  C6  UNL     1      22.099   2.097  49.216  1.00  0.00     0.041 C 
BRANCH  17  18
HETATM   18  C5  UNL     1      20.838   1.298  49.359  1.00  0.00     0.150 C 
BRANCH  18  19
HETATM   19  N2  UNL     1      20.680   0.641  50.619  1.00  0.00    -0.301 NA
HETATM   20  C4  UNL     1      19.558   0.658  51.296  1.00  0.00     0.120 C 
BRANCH  20  21
HETATM   21  C3  UNL     1      19.710  -0.107  52.551  1.00  0.00     0.095 C 
BRANCH  21  22
HETATM   22  C2  UNL     1      20.957  -0.117  52.995  1.00  0.00    -0.021 C 
BRANCH  22  23
HETATM   23  N1  UNL     1      22.078  -0.218  53.623  1.00  0.00    -0.252 NA
HETATM   24  C1  UNL     1      22.097  -1.028  54.828  1.00  0.00     0.189 C 
ENDBRANCH  22  23
ENDBRANCH  21  22
ENDBRANCH  20  21
ENDBRANCH  18  19
ENDBRANCH  17  18
ENDBRANCH  16  17
ENDBRANCH  14  16
ENDBRANCH   1  14
TORSDOF 8
ENDMDL
MODEL 2
REMARK VINA RESULT:      -6.2      4.603      6.895
REMARK  8 active torsions:
REMARK  status: ('A' for Active; 'I' for Inactive)
REMARK    1  A    between atoms: N1_2  and  C2_3 
REMARK    2  A    between atoms: C2_3  and  C3_4 
REMARK    3  A    between atoms: C3_4  and  C4_5 
REMARK    4  A    between atoms: N2_6  and  C5_7 
REMARK    5  A    between atoms: C5_7  and  C6_8 
REMARK    6  A    between atoms: C6_8  and  C7_9 
REMARK    7  A    between atoms: C7_9  and  N3_10 
REMARK    8  A    between atoms: N3_10  and  C8_11 
ROOT
HETATM    1  C8  UNL     1      23.386   5.555  51.932  1.00  0.00     0.110 C 
HETATM    2  C9  UNL     1      23.714   4.291  51.613  1.00  0.00     0.045 C 
HETATM    3  C10 UNL     1      22.725   3.207  51.639  1.00  0.00     0.233 C 
HETATM    4  O1  UNL     1      23.164   2.007  52.200  1.00  0.00    -0.345 OA
HETATM    5  C11 UNL     1      24.378   1.370  52.262  1.00  0.00     0.077 A 
HETATM    6  C12 UNL     1      24.359   0.211  53.007  1.00  0.00     0.037 A 
HETATM    7  C13 UNL     1      25.509  -0.537  53.157  1.00  0.00     0.003 A 
HETATM    8  C14 UNL     1      26.677  -0.087  52.537  1.00  0.00     0.001 A 
HETATM    9  C15 UNL     1      26.675   1.072  51.798  1.00  0.00     0.011 A 
HETATM   10  C16 UNL     1      25.512   1.824  51.649  1.00  0.00    -0.007 A 
HETATM   11  C17 UNL     1      25.831   3.016  50.799  1.00  0.00     0.161 C 
HETATM   12  N4  UNL     1      25.111   4.189  51.266  1.00  0.00    -0.386 N 
HETATM   13  H22 UNL     1      25.672   5.081  51.366  1.00  0.00     0.159 HD
ENDROOT
BRANCH   1  14
HETATM   14  N3  UNL     1      24.335   6.641  51.918  1.00  0.00    -0.397 N 
HETATM   15  H12 UNL     1      24.872   6.147  52.655  1.00  0.00     0.158 HD
BRANCH  14  16
HETATM   16  C7  UNL     1      23.841   7.575  50.920  1.00  0.00     0.120 C 
BRANCH  16  17
HETATM   17  C6  UNL     1      24.895   7.758  49.845  1.00  0.00     0.041 C 
BRANCH  17  18
HETATM   18  C5  UNL     1      24.808   6.707  48.780  1.00  0.00     0.150 C 
BRANCH  18  19
HETATM   19  N2  UNL     1      25.955   5.860  48.673  1.00  0.00    -0.301 NA
HETATM   20  C4  UNL     1      27.176   6.322  48.569  1.00  0.00     0.120 C 
BRANCH  20  21
HETATM   21  C3  UNL     1      28.138   5.204  48.477  1.00  0.00     0.095 C 
BRANCH  21  22
HETATM   22  C2  UNL     1      29.350   5.602  48.123  1.00  0.00    -0.021 C 
BRANCH  22  23
HETATM   23  N1  UNL     1      30.555   6.045  48.006  1.00  0.00    -0.252 NA
HETATM   24  C1  UNL     1      31.441   5.875  49.143  1.00  0.00     0.189 C 
ENDBRANCH  22  23
ENDBRANCH  21  22
ENDBRANCH  20  21
ENDBRANCH  18  19
ENDBRANCH  17  18
ENDBRANCH  16  17
ENDBRANCH  14  16
ENDBRANCH   1  14
TORSDOF 8
ENDMDL
MODEL 3
REMARK VINA RESULT:      -6.1      2.739      4.821
REMARK  8 active torsions:
REMARK  status: ('A' for Active; 'I' for Inactive)
REMARK    1  A    between atoms: N1_2  and  C2_3 
REMARK    2  A    between atoms: C2_3  and  C3_4 
REMARK    3  A    between atoms: C3_4  and  C4_5 
REMARK    4  A    between atoms: N2_6  and  C5_7 
REMARK    5  A    between atoms: C5_7  and  C6_8 
REMARK    6  A    between atoms: C6_8  and  C7_9 
REMARK    7  A    between atoms: C7_9  and  N3_10 
REMARK    8  A    between atoms: N3_10  and  C8_11 
ROOT
HETATM    1  C8  UNL     1      22.047   2.102  51.756  1.00  0.00     0.110 C 
HETATM    2  C9  UNL     1      23.172   2.833  51.679  1.00  0.00     0.045 C 
HETATM    3  C10 UNL     1      23.190   4.259  52.027  1.00  0.00     0.233 C 
HETATM    4  O1  UNL     1      23.915   5.079  51.161  1.00  0.00    -0.345 OA
HETATM    5  C11 UNL     1      25.034   4.897  50.387  1.00  0.00     0.077 A 
HETATM    6  C12 UNL     1      25.356   5.990  49.611  1.00  0.00     0.037 A 
HETATM    7  C13 UNL     1      26.458   5.952  48.781  1.00  0.00     0.003 A 
HETATM    8  C14 UNL     1      27.225   4.785  48.754  1.00  0.00     0.001 A 
HETATM    9  C15 UNL     1      26.888   3.706  49.535  1.00  0.00     0.011 A 
HETATM   10  C16 UNL     1      25.774   3.748  50.371  1.00  0.00    -0.007 A 
HETATM   11  C17 UNL     1      25.673   2.434  51.083  1.00  0.00     0.161 C 
HETATM   12  N4  UNL     1      24.283   2.032  51.227  1.00  0.00    -0.386 N 
HETATM   13  H22 UNL     1      24.050   1.032  50.972  1.00  0.00     0.159 HD
ENDROOT
BRANCH   1  14
HETATM   14  N3  UNL     1      21.997   0.700  51.420  1.00  0.00    -0.397 N 
HETATM   15  H12 UNL     1      23.003   0.633  51.661  1.00  0.00     0.158 HD
BRANCH  14  16
HETATM   16  C7  UNL     1      20.625   0.448  51.012  1.00  0.00     0.120 C 
BRANCH  16  17
HETATM   17  C6  UNL     1      19.691   0.817  52.148  1.00  0.00     0.041 C 
BRANCH  17  18
HETATM   18  C5  UNL     1      19.513  -0.307  53.124  1.00  0.00     0.150 C 
BRANCH  18  19
HETATM   19  N2  UNL     1      20.727  -0.839  53.660  1.00  0.00    -0.301 NA
HETATM   20  C4  UNL     1      21.308  -0.354  54.730  1.00  0.00     0.120 C 
BRANCH  20  21
HETATM   21  C3  UNL     1      22.539  -1.115  55.030  1.00  0.00     0.095 C 
BRANCH  21  22
HETATM   22  C2  UNL     1      23.543  -0.797  54.228  1.00  0.00    -0.021 C 
BRANCH  22  23
HETATM   23  N1  UNL     1      24.367  -0.336  53.350  1.00  0.00    -0.252 NA
HETATM   24  C1  UNL     1      25.773  -0.303  53.708  1.00  0.00     0.189 C 
ENDBRANCH  22  23
ENDBRANCH  21  22
ENDBRANCH  20  21
ENDBRANCH  18  19
ENDBRANCH  17  18
ENDBRANCH  16  17
ENDBRANCH  14  16
ENDBRANCH   1  14
TORSDOF 8
ENDMDL
MODEL 4
REMARK VINA RESULT:      -6.1      2.945      5.824
REMARK  8 active torsions:
REMARK  status: ('A' for Active; 'I' for Inactive)
REMARK    1  A    between atoms: N1_2  and  C2_3 
REMARK    2  A    between atoms: C2_3  and  C3_4 
REMARK    3  A    between atoms: C3_4  and  C4_5 
REMARK    4  A    between atoms: N2_6  and  C5_7 
REMARK    5  A    between atoms: C5_7  and  C6_8 
REMARK    6  A    between atoms: C6_8  and  C7_9 
REMARK    7  A    between atoms: C7_9  and  N3_10 
REMARK    8  A    between atoms: N3_10  and  C8_11 
ROOT
HETATM    1  C8  UNL     1      22.299   2.247  51.895  1.00  0.00     0.110 C 
HETATM    2  C9  UNL     1      23.390   3.019  51.758  1.00  0.00     0.045 C 
HETATM    3  C10 UNL     1      23.409   4.416  52.209  1.00  0.00     0.233 C 
HETATM    4  O1  UNL     1      24.017   5.320  51.337  1.00  0.00    -0.345 OA
HETATM    5  C11 UNL     1      25.051   5.232  50.440  1.00  0.00     0.077 A 
HETATM    6  C12 UNL     1      25.262   6.389  49.719  1.00  0.00     0.037 A 
HETATM    7  C13 UNL     1      26.270   6.448  48.779  1.00  0.00     0.003 A 
HETATM    8  C14 UNL     1      27.059   5.312  48.583  1.00  0.00     0.001 A 
HETATM    9  C15 UNL     1      26.834   4.168  49.310  1.00  0.00     0.011 A 
HETATM   10  C16 UNL     1      25.815   4.113  50.259  1.00  0.00    -0.007 A 
HETATM   11  C17 UNL     1      25.823   2.747  50.876  1.00  0.00     0.161 C 
HETATM   12  N4  UNL     1      24.467   2.291  51.133  1.00  0.00    -0.386 N 
HETATM   13  H22 UNL     1      24.233   1.305  50.828  1.00  0.00     0.159 HD
ENDROOT
BRANCH   1  14
HETATM   14  N3  UNL     1      22.248   0.873  51.461  1.00  0.00    -0.397 N 
HETATM   15  H12 UNL     1      22.811   1.141  50.632  1.00  0.00     0.158 HD
BRANCH  14  16
HETATM   16  C7  UNL     1      21.474   0.174  52.473  1.00  0.00     0.120 C 
BRANCH  16  17
HETATM   17  C6  UNL     1      22.223   0.220  53.792  1.00  0.00     0.041 C 
BRANCH  17  18
HETATM   18  C5  UNL     1      23.359  -0.757  53.833  1.00  0.00     0.150 C 
BRANCH  18  19
HETATM   19  N2  UNL     1      24.595  -0.269  53.304  1.00  0.00    -0.301 NA
HETATM   20  C4  UNL     1      25.628  -1.041  53.075  1.00  0.00     0.120 C 
BRANCH  20  21
HETATM   21  C3  UNL     1      26.748  -0.245  52.531  1.00  0.00     0.095 C 
BRANCH  21  22
HETATM   22  C2  UNL     1      27.355   0.480  53.458  1.00  0.00    -0.021 C 
BRANCH  22  23
HETATM   23  N1  UNL     1      27.789   1.088  54.509  1.00  0.00    -0.252 NA
HETATM   24  C1  UNL     1      29.213   1.362  54.581  1.00  0.00     0.189 C 
ENDBRANCH  22  23
ENDBRANCH  21  22
ENDBRANCH  20  21
ENDBRANCH  18  19
ENDBRANCH  17  18
ENDBRANCH  16  17
ENDBRANCH  14  16
ENDBRANCH   1  14
TORSDOF 8
ENDMDL
MODEL 5
REMARK VINA RESULT:      -5.9      2.679      7.152
REMARK  8 active torsions:
REMARK  status: ('A' for Active; 'I' for Inactive)
REMARK    1  A    between atoms: N1_2  and  C2_3 
REMARK    2  A    between atoms: C2_3  and  C3_4 
REMARK    3  A    between atoms: C3_4  and  C4_5 
REMARK    4  A    between atoms: N2_6  and  C5_7 
REMARK    5  A    between atoms: C5_7  and  C6_8 
REMARK    6  A    between atoms: C6_8  and  C7_9 
REMARK    7  A    between atoms: C7_9  and  N3_10 
REMARK    8  A    between atoms: N3_10  and  C8_11 
ROOT
HETATM    1  C8  UNL     1      25.720  -0.993  53.554  1.00  0.00     0.110 C 
HETATM    2  C9  UNL     1      24.488  -0.547  53.850  1.00  0.00     0.045 C 
HETATM    3  C10 UNL     1      23.746  -1.044  55.015  1.00  0.00     0.233 C 
HETATM    4  O1  UNL     1      22.394  -1.312  54.796  1.00  0.00    -0.345 OA
HETATM    5  C11 UNL     1      21.434  -0.770  53.979  1.00  0.00     0.077 A 
HETATM    6  C12 UNL     1      20.221  -1.423  54.040  1.00  0.00     0.037 A 
HETATM    7  C13 UNL     1      19.160  -0.988  53.272  1.00  0.00     0.003 A 
HETATM    8  C14 UNL     1      19.352   0.119  52.443  1.00  0.00     0.001 A 
HETATM    9  C15 UNL     1      20.569   0.756  52.397  1.00  0.00     0.011 A 
HETATM   10  C16 UNL     1      21.638   0.314  53.173  1.00  0.00    -0.007 A 
HETATM   11  C17 UNL     1      22.813   1.204  52.903  1.00  0.00     0.161 C 
HETATM   12  N4  UNL     1      24.048   0.438  52.892  1.00  0.00    -0.386 N 
HETATM   13  H22 UNL     1      24.711   0.618  52.087  1.00  0.00     0.159 HD
ENDROOT
BRANCH   1  14
HETATM   14  N3  UNL     1      26.474  -0.526  52.417  1.00  0.00    -0.397 N 
HETATM   15  H12 UNL     1      25.623  -0.647  51.836  1.00  0.00     0.158 HD
BRANCH  14  16
HETATM   16  C7  UNL     1      27.808  -0.249  52.922  1.00  0.00     0.120 C 
BRANCH  16  17
HETATM   17  C6  UNL     1      27.723   0.828  53.987  1.00  0.00     0.041 C 
BRANCH  17  18
HETATM   18  C5  UNL     1      27.719   2.208  53.400  1.00  0.00     0.150 C 
BRANCH  18  19
HETATM   19  N2  UNL     1      27.442   2.266  51.998  1.00  0.00    -0.301 NA
HETATM   20  C4  UNL     1      26.409   2.899  51.501  1.00  0.00     0.120 C 
BRANCH  20  21
HETATM   21  C3  UNL     1      26.398   2.778  50.027  1.00  0.00     0.095 C 
BRANCH  21  22
HETATM   22  C2  UNL     1      26.860   3.861  49.423  1.00  0.00    -0.021 C 
BRANCH  22  23
HETATM   23  N1  UNL     1      27.084   4.953  48.774  1.00  0.00    -0.252 NA
HETATM   24  C1  UNL     1      26.097   6.011  48.889  1.00  0.00     0.189 C 
ENDBRANCH  22  23
ENDBRANCH  21  22
ENDBRANCH  20  21
ENDBRANCH  18  19
ENDBRANCH  17  18
ENDBRANCH  16  17
ENDBRANCH  14  16
ENDBRANCH   1  14
TORSDOF 8
ENDMDL
MODEL 6
REMARK VINA RESULT:      -5.9      7.811     10.398
REMARK  8 active torsions:
REMARK  status: ('A' for Active; 'I' for Inactive)
REMARK    1  A    between atoms: N1_2  and  C2_3 
REMARK    2  A    between atoms: C2_3  and  C3_4 
REMARK    3  A    between atoms: C3_4  and  C4_5 
REMARK    4  A    between atoms: N2_6  and  C5_7 
REMARK    5  A    between atoms: C5_7  and  C6_8 
REMARK    6  A    between atoms: C6_8  and  C7_9 
REMARK    7  A    between atoms: C7_9  and  N3_10 
REMARK    8  A    between atoms: N3_10  and  C8_11 
ROOT
HETATM    1  C8  UNL     1      27.954   9.551  49.790  1.00  0.00     0.110 C 
HETATM    2  C9  UNL     1      27.344   8.462  49.289  1.00  0.00     0.045 C 
HETATM    3  C10 UNL     1      25.886   8.401  49.127  1.00  0.00     0.233 C 
HETATM    4  O1  UNL     1      25.291   7.198  49.510  1.00  0.00    -0.345 OA
HETATM    5  C11 UNL     1      25.696   5.887  49.500  1.00  0.00     0.077 A 
HETATM    6  C12 UNL     1      24.783   5.019  50.060  1.00  0.00     0.037 A 
HETATM    7  C13 UNL     1      25.055   3.668  50.120  1.00  0.00     0.003 A 
HETATM    8  C14 UNL     1      26.270   3.214  49.602  1.00  0.00     0.001 A 
HETATM    9  C15 UNL     1      27.168   4.095  49.048  1.00  0.00     0.011 A 
HETATM   10  C16 UNL     1      26.890   5.459  48.990  1.00  0.00    -0.007 A 
HETATM   11  C17 UNL     1      28.050   6.146  48.338  1.00  0.00     0.161 C 
HETATM   12  N4  UNL     1      28.302   7.435  48.962  1.00  0.00    -0.386 N 
HETATM   13  H22 UNL     1      29.307   7.654  49.209  1.00  0.00     0.159 HD
ENDROOT
BRANCH   1  14
HETATM   14  N3  UNL     1      29.382   9.642  49.962  1.00  0.00    -0.397 N 
HETATM   15  H12 UNL     1      29.320   8.882  50.664  1.00  0.00     0.158 HD
BRANCH  14  16
HETATM   16  C7  UNL     1      29.817  10.692  49.056  1.00  0.00     0.120 C 
BRANCH  16  17
HETATM   17  C6  UNL     1      30.355  10.063  47.786  1.00  0.00     0.041 C 
BRANCH  17  18
HETATM   18  C5  UNL     1      31.631   9.313  48.021  1.00  0.00     0.150 C 
BRANCH  18  19
HETATM   19  N2  UNL     1      31.467   7.934  48.363  1.00  0.00    -0.301 NA
HETATM   20  C4  UNL     1      31.955   7.408  49.459  1.00  0.00     0.120 C 
BRANCH  20  21
HETATM   21  C3  UNL     1      31.619   5.970  49.527  1.00  0.00     0.095 C 
BRANCH  21  22
HETATM   22  C2  UNL     1      32.022   5.301  48.459  1.00  0.00    -0.021 C 
BRANCH  22  23
HETATM   23  N1  UNL     1      32.430   4.465  47.566  1.00  0.00    -0.252 NA
HETATM   24  C1  UNL     1      32.666   4.979  46.229  1.00  0.00     0.189 C 
ENDBRANCH  22  23
ENDBRANCH  21  22
ENDBRANCH  20  21
ENDBRANCH  18  19
ENDBRANCH  17  18
ENDBRANCH  16  17
ENDBRANCH  14  16
ENDBRANCH   1  14
TORSDOF 8
ENDMDL
MODEL 7
REMARK VINA RESULT:      -5.9      3.604      5.509
REMARK  8 active torsions:
REMARK  status: ('A' for Active; 'I' for Inactive)
REMARK    1  A    between atoms: N1_2  and  C2_3 
REMARK    2  A    between atoms: C2_3  and  C3_4 
REMARK    3  A    between atoms: C3_4  and  C4_5 
REMARK    4  A    between atoms: N2_6  and  C5_7 
REMARK    5  A    between atoms: C5_7  and  C6_8 
REMARK    6  A    between atoms: C6_8  and  C7_9 
REMARK    7  A    between atoms: C7_9  and  N3_10 
REMARK    8  A    between atoms: N3_10  and  C8_11 
ROOT
HETATM    1  C8  UNL     1      24.523   2.535  52.162  1.00  0.00     0.110 C 
HETATM    2  C9  UNL     1      25.284   1.710  52.902  1.00  0.00     0.045 C 
HETATM    3  C10 UNL     1      26.108   2.208  54.009  1.00  0.00     0.233 C 
HETATM    4  O1  UNL     1      27.393   1.669  54.089  1.00  0.00    -0.345 OA
HETATM    5  C11 UNL     1      27.939   0.450  53.771  1.00  0.00     0.077 A 
HETATM    6  C12 UNL     1      29.304   0.390  53.950  1.00  0.00     0.037 A 
HETATM    7  C13 UNL     1      29.990  -0.775  53.670  1.00  0.00     0.003 A 
HETATM    8  C14 UNL     1      29.265  -1.874  53.206  1.00  0.00     0.001 A 
HETATM    9  C15 UNL     1      27.904  -1.794  53.034  1.00  0.00     0.011 A 
HETATM   10  C16 UNL     1      27.215  -0.617  53.317  1.00  0.00    -0.007 A 
HETATM   11  C17 UNL     1      25.762  -0.844  53.031  1.00  0.00     0.161 C 
HETATM   12  N4  UNL     1      25.160   0.345  52.451  1.00  0.00    -0.386 N 
HETATM   13  H22 UNL     1      24.555   0.201  51.595  1.00  0.00     0.159 HD
ENDROOT
BRANCH   1  14
HETATM   14  N3  UNL     1      23.703   2.078  51.067  1.00  0.00    -0.397 N 
HETATM   15  H12 UNL     1      23.912   1.103  51.351  1.00  0.00     0.158 HD
BRANCH  14  16
HETATM   16  C7  UNL     1      23.220   3.283  50.414  1.00  0.00     0.120 C 
BRANCH  16  17
HETATM   17  C6  UNL     1      24.217   3.709  49.353  1.00  0.00     0.041 C 
BRANCH  17  18
HETATM   18  C5  UNL     1      24.097   5.165  49.014  1.00  0.00     0.150 C 
BRANCH  18  19
HETATM   19  N2  UNL     1      25.332   5.813  48.696  1.00  0.00    -0.301 NA
HETATM   20  C4  UNL     1      26.500   5.246  48.866  1.00  0.00     0.120 C 
BRANCH  20  21
HETATM   21  C3  UNL     1      27.578   6.166  48.446  1.00  0.00     0.095 C 
BRANCH  21  22
HETATM   22  C2  UNL     1      27.397   7.400  48.891  1.00  0.00    -0.021 C 
BRANCH  22  23
HETATM   23  N1  UNL     1      27.416   8.651  49.201  1.00  0.00    -0.252 NA
HETATM   24  C1  UNL     1      26.284   9.171  49.945  1.00  0.00     0.189 C 
ENDBRANCH  22  23
ENDBRANCH  21  22
ENDBRANCH  20  21
ENDBRANCH  18  19
ENDBRANCH  17  18
ENDBRANCH  16  17
ENDBRANCH  14  16
ENDBRANCH   1  14
TORSDOF 8
ENDMDL
MODEL 8
REMARK VINA RESULT:      -5.8      1.546      3.118
REMARK  8 active torsions:
REMARK  status: ('A' for Active; 'I' for Inactive)
REMARK    1  A    between atoms: N1_2  and  C2_3 
REMARK    2  A    between atoms: C2_3  and  C3_4 
REMARK    3  A    between atoms: C3_4  and  C4_5 
REMARK    4  A    between atoms: N2_6  and  C5_7 
REMARK    5  A    between atoms: C5_7  and  C6_8 
REMARK    6  A    between atoms: C6_8  and  C7_9 
REMARK    7  A    between atoms: C7_9  and  N3_10 
REMARK    8  A    between atoms: N3_10  and  C8_11 
ROOT
HETATM    1  C8  UNL     1      24.127   2.047  52.221  1.00  0.00     0.110 C 
HETATM    2  C9  UNL     1      25.054   1.432  52.975  1.00  0.00     0.045 C 
HETATM    3  C10 UNL     1      25.814   2.151  54.003  1.00  0.00     0.233 C 
HETATM    4  O1  UNL     1      27.179   1.862  54.054  1.00  0.00    -0.345 OA
HETATM    5  C11 UNL     1      27.927   0.742  53.790  1.00  0.00     0.077 A 
HETATM    6  C12 UNL     1      29.286   0.943  53.902  1.00  0.00     0.037 A 
HETATM    7  C13 UNL     1      30.164  -0.095  53.666  1.00  0.00     0.003 A 
HETATM    8  C14 UNL     1      29.637  -1.340  53.313  1.00  0.00     0.001 A 
HETATM    9  C15 UNL     1      28.279  -1.520  53.206  1.00  0.00     0.011 A 
HETATM   10  C16 UNL     1      27.396  -0.469  53.445  1.00  0.00    -0.007 A 
HETATM   11  C17 UNL     1      26.000  -0.976  53.249  1.00  0.00     0.161 C 
HETATM   12  N4  UNL     1      25.167   0.037  52.623  1.00  0.00    -0.386 N 
HETATM   13  H22 UNL     1      24.567  -0.278  51.810  1.00  0.00     0.159 HD
ENDROOT
BRANCH   1  14
HETATM   14  N3  UNL     1      23.365   1.369  51.202  1.00  0.00    -0.397 N 
HETATM   15  H12 UNL     1      24.255   1.156  50.715  1.00  0.00     0.158 HD
BRANCH  14  16
HETATM   16  C7  UNL     1      21.975   1.491  51.611  1.00  0.00     0.120 C 
BRANCH  16  17
HETATM   17  C6  UNL     1      21.113   0.631  50.707  1.00  0.00     0.041 C 
BRANCH  17  18
HETATM   18  C5  UNL     1      21.069   1.153  49.302  1.00  0.00     0.150 C 
BRANCH  18  19
HETATM   19  N2  UNL     1      21.647   2.449  49.121  1.00  0.00    -0.301 NA
HETATM   20  C4  UNL     1      22.317   2.787  48.047  1.00  0.00     0.120 C 
BRANCH  20  21
HETATM   21  C3  UNL     1      22.785   4.185  48.159  1.00  0.00     0.095 C 
BRANCH  21  22
HETATM   22  C2  UNL     1      22.923   4.577  49.415  1.00  0.00    -0.021 C 
BRANCH  22  23
HETATM   23  N1  UNL     1      23.095   5.173  50.546  1.00  0.00    -0.252 NA
HETATM   24  C1  UNL     1      21.959   5.232  51.448  1.00  0.00     0.189 C 
ENDBRANCH  22  23
ENDBRANCH  21  22
ENDBRANCH  20  21
ENDBRANCH  18  19
ENDBRANCH  17  18
ENDBRANCH  16  17
ENDBRANCH  14  16
ENDBRANCH   1  14
TORSDOF 8
ENDMDL
MODEL 9
REMARK VINA RESULT:      -5.8      2.773      5.528
REMARK  8 active torsions:
REMARK  status: ('A' for Active; 'I' for Inactive)
REMARK    1  A    between atoms: N1_2  and  C2_3 
REMARK    2  A    between atoms: C2_3  and  C3_4 
REMARK    3  A    between atoms: C3_4  and  C4_5 
REMARK    4  A    between atoms: N2_6  and  C5_7 
REMARK    5  A    between atoms: C5_7  and  C6_8 
REMARK    6  A    between atoms: C6_8  and  C7_9 
REMARK    7  A    between atoms: C7_9  and  N3_10 
REMARK    8  A    between atoms: N3_10  and  C8_11 
ROOT
HETATM    1  C8  UNL     1      26.531   2.803  50.665  1.00  0.00     0.110 C 
HETATM    2  C9  UNL     1      25.606   2.495  51.590  1.00  0.00     0.045 C 
HETATM    3  C10 UNL     1      25.977   1.939  52.896  1.00  0.00     0.233 C 
HETATM    4  O1  UNL     1      25.179   0.887  53.349  1.00  0.00    -0.345 OA
HETATM    5  C11 UNL     1      23.855   0.560  53.197  1.00  0.00     0.077 A 
HETATM    6  C12 UNL     1      23.511  -0.645  53.772  1.00  0.00     0.037 A 
HETATM    7  C13 UNL     1      22.211  -1.103  53.698  1.00  0.00     0.003 A 
HETATM    8  C14 UNL     1      21.269  -0.317  53.030  1.00  0.00     0.001 A 
HETATM    9  C15 UNL     1      21.631   0.881  52.464  1.00  0.00     0.011 A 
HETATM   10  C16 UNL     1      22.945   1.340  52.540  1.00  0.00    -0.007 A 
HETATM   11  C17 UNL     1      23.021   2.660  51.834  1.00  0.00     0.161 C 
HETATM   12  N4  UNL     1      24.276   2.785  51.112  1.00  0.00    -0.386 N 
HETATM   13  H22 UNL     1      24.216   3.131  50.113  1.00  0.00     0.159 HD
ENDROOT
BRANCH   1  14
HETATM   14  N3  UNL     1      26.198   3.350  49.373  1.00  0.00    -0.397 N 
HETATM   15  H12 UNL     1      25.413   2.675  49.317  1.00  0.00     0.158 HD
BRANCH  14  16
HETATM   16  C7  UNL     1      27.178   4.397  49.130  1.00  0.00     0.120 C 
BRANCH  16  17
HETATM   17  C6  UNL     1      26.457   5.672  48.738  1.00  0.00     0.041 C 
BRANCH  17  18
HETATM   18  C5  UNL     1      25.344   6.009  49.685  1.00  0.00     0.150 C 
BRANCH  18  19
HETATM   19  N2  UNL     1      24.101   5.355  49.412  1.00  0.00    -0.301 NA
HETATM   20  C4  UNL     1      23.440   5.519  48.294  1.00  0.00     0.120 C 
BRANCH  20  21
HETATM   21  C3  UNL     1      22.200   4.714  48.313  1.00  0.00     0.095 C 
BRANCH  21  22
HETATM   22  C2  UNL     1      22.432   3.418  48.174  1.00  0.00    -0.021 C 
BRANCH  22  23
HETATM   23  N1  UNL     1      22.600   2.143  48.268  1.00  0.00    -0.252 NA
HETATM   24  C1  UNL     1      21.447   1.344  48.641  1.00  0.00     0.189 C 
ENDBRANCH  22  23
ENDBRANCH  21  22
ENDBRANCH  20  21
ENDBRANCH  18  19
ENDBRANCH  17  18
ENDBRANCH  16  17
ENDBRANCH  14  16
ENDBRANCH   1  14
TORSDOF 8
ENDMDL
