MODEL 1
REMARK VINA RESULT:      -8.5      0.000      0.000
REMARK  12 active torsions:
REMARK  status: ('A' for Active; 'I' for Inactive)
REMARK    1  A    between atoms: N1_2  and  C2_3 
REMARK    2  A    between atoms: C2_3  and  C3_4 
REMARK    3  A    between atoms: C3_4  and  C4_5 
REMARK    4  A    between atoms: N2_11  and  C10_12 
REMARK    5  A    between atoms: C10_12  and  C11_13 
REMARK    6  A    between atoms: C11_13  and  C12_14 
REMARK    7  A    between atoms: C12_14  and  C13_15 
REMARK    8  A    between atoms: C13_15  and  C14_16 
REMARK    9  A    between atoms: C19_21  and  O1_22 
REMARK   10  A    between atoms: O1_22  and  C20_23 
REMARK   11  A    between atoms: C20_23  and  C21_24 
REMARK   12  A    between atoms: C24_27  and  O2_28 
ROOT
HETATM    1  C14 UNL     1      24.734   3.303  50.194  1.00  0.00    -0.025 A 
HETATM    2  C15 UNL     1      24.179   4.420  49.574  1.00  0.00     0.010 A 
HETATM    3  C16 UNL     1      24.943   5.376  48.948  1.00  0.00     0.001 A 
HETATM    4  C17 UNL     1      26.310   5.236  48.927  1.00  0.00     0.003 A 
HETATM    5  C18 UNL     1      26.836   4.127  49.545  1.00  0.00     0.037 A 
HETATM    6  C19 UNL     1      26.132   3.135  50.187  1.00  0.00     0.075 A 
ENDROOT
BRANCH   1   7
HETATM    7  C13 UNL     1      23.769   2.346  50.839  1.00  0.00     0.041 C 
BRANCH   7   8
HETATM    8  C12 UNL     1      23.418   2.755  52.231  1.00  0.00     0.006 C 
BRANCH   8   9
HETATM    9  C11 UNL     1      22.038   2.204  52.572  1.00  0.00     0.020 C 
BRANCH   9  10
HETATM   10  C10 UNL     1      21.750   0.959  51.739  1.00  0.00     0.124 C 
BRANCH  10  11
HETATM   11  N2  UNL     1      20.656   0.264  52.410  1.00  0.00    -0.371 N 
HETATM   12  C4  UNL     1      20.470  -0.369  53.705  1.00  0.00     0.121 A 
HETATM   13  C5  UNL     1      19.101  -0.689  53.253  1.00  0.00    -0.013 A 
HETATM   14  C6  UNL     1      17.829  -1.133  53.166  1.00  0.00    -0.011 A 
HETATM   15  C9  UNL     1      19.312  -0.042  51.966  1.00  0.00     0.035 A 
HETATM   16  C7  UNL     1      17.198  -0.788  51.846  1.00  0.00     0.057 A 
HETATM   17  C8  UNL     1      18.266  -0.063  51.117  1.00  0.00     0.007 A 
BRANCH  12  18
HETATM   18  C3  UNL     1      21.329  -1.539  54.035  1.00  0.00     0.060 C 
BRANCH  18  19
HETATM   19  C2  UNL     1      22.389  -1.170  55.019  1.00  0.00     0.271 C 
BRANCH  19  20
HETATM   20  N1  UNL     1      23.654  -0.832  54.348  1.00  0.00     0.079 N 
HETATM   21  C1  UNL     1      24.788  -0.990  55.231  1.00  0.00     0.306 C 
HETATM   22  H4  UNL     1      23.753  -1.602  53.621  1.00  0.00     0.315 HD
ENDBRANCH  19  20
ENDBRANCH  18  19
ENDBRANCH  12  18
ENDBRANCH  10  11
ENDBRANCH   9  10
ENDBRANCH   8   9
ENDBRANCH   7   8
ENDBRANCH   1   7
BRANCH   6  23
HETATM   23  O1  UNL     1      26.482   2.005  50.830  1.00  0.00    -0.346 OA
BRANCH  23  24
HETATM   24  C20 UNL     1      26.950   1.713  52.083  1.00  0.00     0.214 C 
BRANCH  24  25
HETATM   25  C21 UNL     1      27.290   0.328  52.394  1.00  0.00    -0.034 A 
HETATM   26  C22 UNL     1      26.571  -0.840  52.128  1.00  0.00     0.012 A 
HETATM   27  C23 UNL     1      27.103  -2.058  52.515  1.00  0.00     0.037 A 
HETATM   28  C24 UNL     1      28.316  -2.193  53.154  1.00  0.00     0.065 A 
HETATM   29  C25 UNL     1      29.073  -1.056  53.441  1.00  0.00     0.037 A 
HETATM   30  C26 UNL     1      28.504   0.151  53.037  1.00  0.00     0.012 A 
BRANCH  28  31
HETATM   31  O2  UNL     1      28.765  -3.473  53.501  1.00  0.00    -0.361 OA
HETATM   32  H30 UNL     1      29.631  -3.541  54.018  1.00  0.00     0.217 HD
ENDBRANCH  28  31
ENDBRANCH  24  25
ENDBRANCH  23  24
ENDBRANCH   6  23
TORSDOF 12
ENDMDL
MODEL 2
REMARK VINA RESULT:      -8.4      4.783      9.459
REMARK  12 active torsions:
REMARK  status: ('A' for Active; 'I' for Inactive)
REMARK    1  A    between atoms: N1_2  and  C2_3 
REMARK    2  A    between atoms: C2_3  and  C3_4 
REMARK    3  A    between atoms: C3_4  and  C4_5 
REMARK    4  A    between atoms: N2_11  and  C10_12 
REMARK    5  A    between atoms: C10_12  and  C11_13 
REMARK    6  A    between atoms: C11_13  and  C12_14 
REMARK    7  A    between atoms: C12_14  and  C13_15 
REMARK    8  A    between atoms: C13_15  and  C14_16 
REMARK    9  A    between atoms: C19_21  and  O1_22 
REMARK   10  A    between atoms: O1_22  and  C20_23 
REMARK   11  A    between atoms: C20_23  and  C21_24 
REMARK   12  A    between atoms: C24_27  and  O2_28 
ROOT
HETATM    1  C14 UNL     1      25.650   3.303  49.973  1.00  0.00    -0.025 A 
HETATM    2  C15 UNL     1      24.414   3.462  49.352  1.00  0.00     0.010 A 
HETATM    3  C16 UNL     1      23.267   2.867  49.820  1.00  0.00     0.001 A 
HETATM    4  C17 UNL     1      23.329   2.080  50.946  1.00  0.00     0.003 A 
HETATM    5  C18 UNL     1      24.559   1.937  51.542  1.00  0.00     0.037 A 
HETATM    6  C19 UNL     1      25.742   2.502  51.128  1.00  0.00     0.075 A 
ENDROOT
BRANCH   1   7
HETATM    7  C13 UNL     1      26.815   4.015  49.341  1.00  0.00     0.041 C 
BRANCH   7   8
HETATM    8  C12 UNL     1      26.573   5.482  49.209  1.00  0.00     0.006 C 
BRANCH   8   9
HETATM    9  C11 UNL     1      27.631   6.074  48.285  1.00  0.00     0.020 C 
BRANCH   9  10
HETATM   10  C10 UNL     1      28.859   5.169  48.247  1.00  0.00     0.124 C 
BRANCH  10  11
HETATM   11  N2  UNL     1      30.014   6.056  48.146  1.00  0.00    -0.371 N 
HETATM   12  C4  UNL     1      31.366   5.942  47.625  1.00  0.00     0.121 A 
HETATM   13  C5  UNL     1      31.557   7.341  48.060  1.00  0.00    -0.013 A 
HETATM   14  C6  UNL     1      32.061   8.565  48.324  1.00  0.00    -0.011 A 
HETATM   15  C9  UNL     1      30.195   7.429  48.568  1.00  0.00     0.035 A 
HETATM   16  C7  UNL     1      31.055   9.459  48.993  1.00  0.00     0.057 A 
HETATM   17  C8  UNL     1      29.845   8.611  49.113  1.00  0.00     0.007 A 
BRANCH  12  18
HETATM   18  C3  UNL     1      32.270   4.943  48.256  1.00  0.00     0.060 C 
BRANCH  18  19
HETATM   19  C2  UNL     1      33.690   5.171  47.854  1.00  0.00     0.271 C 
BRANCH  19  20
HETATM   20  N1  UNL     1      34.530   5.521  49.010  1.00  0.00     0.079 N 
HETATM   21  C1  UNL     1      35.448   6.593  48.700  1.00  0.00     0.306 C 
HETATM   22  H4  UNL     1      33.831   5.936  49.696  1.00  0.00     0.315 HD
ENDBRANCH  19  20
ENDBRANCH  18  19
ENDBRANCH  12  18
ENDBRANCH  10  11
ENDBRANCH   9  10
ENDBRANCH   8   9
ENDBRANCH   7   8
ENDBRANCH   1   7
BRANCH   6  23
HETATM   23  O1  UNL     1      27.008   2.467  51.587  1.00  0.00    -0.346 OA
BRANCH  23  24
HETATM   24  C20 UNL     1      27.593   2.134  52.779  1.00  0.00     0.214 C 
BRANCH  24  25
HETATM   25  C21 UNL     1      28.031   0.757  52.980  1.00  0.00    -0.034 A 
HETATM   26  C22 UNL     1      29.253   0.279  53.462  1.00  0.00     0.012 A 
HETATM   27  C23 UNL     1      29.440  -1.088  53.575  1.00  0.00     0.037 A 
HETATM   28  C24 UNL     1      28.483  -2.020  53.240  1.00  0.00     0.065 A 
HETATM   29  C25 UNL     1      27.246  -1.593  52.755  1.00  0.00     0.037 A 
HETATM   30  C26 UNL     1      27.096  -0.211  52.654  1.00  0.00     0.012 A 
BRANCH  28  31
HETATM   31  O2  UNL     1      28.773  -3.382  53.394  1.00  0.00    -0.361 OA
HETATM   32  H30 UNL     1      28.996  -3.710  54.323  1.00  0.00     0.217 HD
ENDBRANCH  28  31
ENDBRANCH  24  25
ENDBRANCH  23  24
ENDBRANCH   6  23
TORSDOF 12
ENDMDL
MODEL 3
REMARK VINA RESULT:      -8.2      2.829      5.456
REMARK  12 active torsions:
REMARK  status: ('A' for Active; 'I' for Inactive)
REMARK    1  A    between atoms: N1_2  and  C2_3 
REMARK    2  A    between atoms: C2_3  and  C3_4 
REMARK    3  A    between atoms: C3_4  and  C4_5 
REMARK    4  A    between atoms: N2_11  and  C10_12 
REMARK    5  A    between atoms: C10_12  and  C11_13 
REMARK    6  A    between atoms: C11_13  and  C12_14 
REMARK    7  A    between atoms: C12_14  and  C13_15 
REMARK    8  A    between atoms: C13_15  and  C14_16 
REMARK    9  A    between atoms: C19_21  and  O1_22 
REMARK   10  A    between atoms: O1_22  and  C20_23 
REMARK   11  A    between atoms: C20_23  and  C21_24 
REMARK   12  A    between atoms: C24_27  and  O2_28 
ROOT
HETATM    1  C14 UNL     1      26.599   4.591  49.073  1.00  0.00    -0.025 A 
HETATM    2  C15 UNL     1      27.929   4.710  48.678  1.00  0.00     0.010 A 
HETATM    3  C16 UNL     1      28.470   5.896  48.244  1.00  0.00     0.001 A 
HETATM    4  C17 UNL     1      27.677   7.018  48.192  1.00  0.00     0.003 A 
HETATM    5  C18 UNL     1      26.368   6.878  48.586  1.00  0.00     0.037 A 
HETATM    6  C19 UNL     1      25.764   5.724  49.030  1.00  0.00     0.075 A 
ENDROOT
BRANCH   1   7
HETATM    7  C13 UNL     1      26.152   3.226  49.521  1.00  0.00     0.041 C 
BRANCH   7   8
HETATM    8  C12 UNL     1      26.559   2.935  50.928  1.00  0.00     0.006 C 
BRANCH   8   9
HETATM    9  C11 UNL     1      25.308   2.862  51.796  1.00  0.00     0.020 C 
BRANCH   9  10
HETATM   10  C10 UNL     1      24.388   1.752  51.297  1.00  0.00     0.124 C 
BRANCH  10  11
HETATM   11  N2  UNL     1      24.188   0.850  52.427  1.00  0.00    -0.371 N 
HETATM   12  C4  UNL     1      25.050   0.209  53.406  1.00  0.00     0.121 A 
HETATM   13  C5  UNL     1      23.822  -0.400  53.957  1.00  0.00    -0.013 A 
HETATM   14  C6  UNL     1      22.934  -1.104  54.691  1.00  0.00    -0.011 A 
HETATM   15  C9  UNL     1      22.982   0.261  52.969  1.00  0.00     0.035 A 
HETATM   16  C7  UNL     1      21.524  -0.917  54.205  1.00  0.00     0.057 A 
HETATM   17  C8  UNL     1      21.661   0.008  53.055  1.00  0.00     0.007 A 
BRANCH  12  18
HETATM   18  C3  UNL     1      26.074  -0.748  52.907  1.00  0.00     0.060 C 
BRANCH  18  19
HETATM   19  C2  UNL     1      27.448  -0.172  53.012  1.00  0.00     0.271 C 
BRANCH  19  20
HETATM   20  N1  UNL     1      28.278  -0.926  53.965  1.00  0.00     0.079 N 
HETATM   21  C1  UNL     1      29.672  -0.919  53.582  1.00  0.00     0.306 C 
HETATM   22  H4  UNL     1      28.224  -0.336  54.848  1.00  0.00     0.315 HD
ENDBRANCH  19  20
ENDBRANCH  18  19
ENDBRANCH  12  18
ENDBRANCH  10  11
ENDBRANCH   9  10
ENDBRANCH   8   9
ENDBRANCH   7   8
ENDBRANCH   1   7
BRANCH   6  23
HETATM   23  O1  UNL     1      24.520   5.419  49.447  1.00  0.00    -0.346 OA
BRANCH  23  24
HETATM   24  C20 UNL     1      23.300   5.300  48.837  1.00  0.00     0.214 C 
BRANCH  24  25
HETATM   25  C21 UNL     1      22.559   4.053  49.000  1.00  0.00    -0.034 A 
HETATM   26  C22 UNL     1      22.619   2.883  48.237  1.00  0.00     0.012 A 
HETATM   27  C23 UNL     1      21.818   1.811  48.591  1.00  0.00     0.037 A 
HETATM   28  C24 UNL     1      20.954   1.824  49.663  1.00  0.00     0.065 A 
HETATM   29  C25 UNL     1      20.858   2.969  50.456  1.00  0.00     0.037 A 
HETATM   30  C26 UNL     1      21.680   4.027  50.069  1.00  0.00     0.012 A 
BRANCH  28  31
HETATM   31  O2  UNL     1      20.187   0.685  49.936  1.00  0.00    -0.361 OA
HETATM   32  H30 UNL     1      19.197   0.728  49.738  1.00  0.00     0.217 HD
ENDBRANCH  28  31
ENDBRANCH  24  25
ENDBRANCH  23  24
ENDBRANCH   6  23
TORSDOF 12
ENDMDL
MODEL 4
REMARK VINA RESULT:      -8.2      2.930      7.384
REMARK  12 active torsions:
REMARK  status: ('A' for Active; 'I' for Inactive)
REMARK    1  A    between atoms: N1_2  and  C2_3 
REMARK    2  A    between atoms: C2_3  and  C3_4 
REMARK    3  A    between atoms: C3_4  and  C4_5 
REMARK    4  A    between atoms: N2_11  and  C10_12 
REMARK    5  A    between atoms: C10_12  and  C11_13 
REMARK    6  A    between atoms: C11_13  and  C12_14 
REMARK    7  A    between atoms: C12_14  and  C13_15 
REMARK    8  A    between atoms: C13_15  and  C14_16 
REMARK    9  A    between atoms: C19_21  and  O1_22 
REMARK   10  A    between atoms: O1_22  and  C20_23 
REMARK   11  A    between atoms: C20_23  and  C21_24 
REMARK   12  A    between atoms: C24_27  and  O2_28 
ROOT
HETATM    1  C14 UNL     1      22.760   0.917  52.893  1.00  0.00    -0.025 A 
HETATM    2  C15 UNL     1      21.458   1.104  53.350  1.00  0.00     0.010 A 
HETATM    3  C16 UNL     1      20.841   0.227  54.209  1.00  0.00     0.001 A 
HETATM    4  C17 UNL     1      21.525  -0.884  54.641  1.00  0.00     0.003 A 
HETATM    5  C18 UNL     1      22.808  -1.049  54.178  1.00  0.00     0.037 A 
HETATM    6  C19 UNL     1      23.483  -0.213  53.320  1.00  0.00     0.075 A 
ENDROOT
BRANCH   1   7
HETATM    7  C13 UNL     1      23.298   1.962  51.954  1.00  0.00     0.041 C 
BRANCH   7   8
HETATM    8  C12 UNL     1      23.883   3.125  52.683  1.00  0.00     0.006 C 
BRANCH   8   9
HETATM    9  C11 UNL     1      23.258   4.408  52.146  1.00  0.00     0.020 C 
BRANCH   9  10
HETATM   10  C10 UNL     1      22.950   4.257  50.659  1.00  0.00     0.124 C 
BRANCH  10  11
HETATM   11  N2  UNL     1      24.012   4.965  49.950  1.00  0.00    -0.371 N 
HETATM   12  C4  UNL     1      24.143   6.262  49.308  1.00  0.00     0.121 A 
HETATM   13  C5  UNL     1      25.526   5.860  48.977  1.00  0.00    -0.013 A 
HETATM   14  C6  UNL     1      26.796   5.817  48.521  1.00  0.00    -0.011 A 
HETATM   15  C9  UNL     1      25.368   4.570  49.633  1.00  0.00     0.035 A 
HETATM   16  C7  UNL     1      27.478   4.524  48.868  1.00  0.00     0.057 A 
HETATM   17  C8  UNL     1      26.445   3.760  49.607  1.00  0.00     0.007 A 
BRANCH  12  18
HETATM   18  C3  UNL     1      23.262   6.553  48.145  1.00  0.00     0.060 C 
BRANCH  18  19
HETATM   19  C2  UNL     1      23.672   7.815  47.460  1.00  0.00     0.271 C 
BRANCH  19  20
HETATM   20  N1  UNL     1      23.678   8.956  48.389  1.00  0.00     0.079 N 
HETATM   21  C1  UNL     1      22.345   9.464  48.621  1.00  0.00     0.306 C 
HETATM   22  H4  UNL     1      23.977   8.515  49.309  1.00  0.00     0.315 HD
ENDBRANCH  19  20
ENDBRANCH  18  19
ENDBRANCH  12  18
ENDBRANCH  10  11
ENDBRANCH   9  10
ENDBRANCH   8   9
ENDBRANCH   7   8
ENDBRANCH   1   7
BRANCH   6  23
HETATM   23  O1  UNL     1      24.717  -0.226  52.778  1.00  0.00    -0.346 OA
BRANCH  23  24
HETATM   24  C20 UNL     1      25.882  -0.891  53.048  1.00  0.00     0.214 C 
BRANCH  24  25
HETATM   25  C21 UNL     1      27.048  -0.116  53.461  1.00  0.00    -0.034 A 
HETATM   26  C22 UNL     1      28.312  -0.562  53.858  1.00  0.00     0.012 A 
HETATM   27  C23 UNL     1      29.275   0.371  54.201  1.00  0.00     0.037 A 
HETATM   28  C24 UNL     1      29.063   1.732  54.175  1.00  0.00     0.065 A 
HETATM   29  C25 UNL     1      27.819   2.227  53.785  1.00  0.00     0.037 A 
HETATM   30  C26 UNL     1      26.875   1.258  53.447  1.00  0.00     0.012 A 
BRANCH  28  31
HETATM   31  O2  UNL     1      30.106   2.591  54.541  1.00  0.00    -0.361 OA
HETATM   32  H30 UNL     1      31.002   2.175  54.756  1.00  0.00     0.217 HD
ENDBRANCH  28  31
ENDBRANCH  24  25
ENDBRANCH  23  24
ENDBRANCH   6  23
TORSDOF 12
ENDMDL
MODEL 5
REMARK VINA RESULT:      -8.2      2.578      6.299
REMARK  12 active torsions:
REMARK  status: ('A' for Active; 'I' for Inactive)
REMARK    1  A    between atoms: N1_2  and  C2_3 
REMARK    2  A    between atoms: C2_3  and  C3_4 
REMARK    3  A    between atoms: C3_4  and  C4_5 
REMARK    4  A    between atoms: N2_11  and  C10_12 
REMARK    5  A    between atoms: C10_12  and  C11_13 
REMARK    6  A    between atoms: C11_13  and  C12_14 
REMARK    7  A    between atoms: C12_14  and  C13_15 
REMARK    8  A    between atoms: C13_15  and  C14_16 
REMARK    9  A    between atoms: C19_21  and  O1_22 
REMARK   10  A    between atoms: O1_22  and  C20_23 
REMARK   11  A    between atoms: C20_23  and  C21_24 
REMARK   12  A    between atoms: C24_27  and  O2_28 
ROOT
HETATM    1  C14 UNL     1      26.229   4.391  49.482  1.00  0.00    -0.025 A 
HETATM    2  C15 UNL     1      27.408   4.675  48.797  1.00  0.00     0.010 A 
HETATM    3  C16 UNL     1      27.727   5.939  48.364  1.00  0.00     0.001 A 
HETATM    4  C17 UNL     1      26.856   6.974  48.609  1.00  0.00     0.003 A 
HETATM    5  C18 UNL     1      25.699   6.671  49.286  1.00  0.00     0.037 A 
HETATM    6  C19 UNL     1      25.319   5.432  49.746  1.00  0.00     0.075 A 
ENDROOT
BRANCH   1   7
HETATM    7  C13 UNL     1      26.018   2.958  49.889  1.00  0.00     0.041 C 
BRANCH   7   8
HETATM    8  C12 UNL     1      26.776   2.609  51.127  1.00  0.00     0.006 C 
BRANCH   8   9
HETATM    9  C11 UNL     1      25.800   2.533  52.296  1.00  0.00     0.020 C 
BRANCH   9  10
HETATM   10  C10 UNL     1      26.501   1.968  53.528  1.00  0.00     0.124 C 
BRANCH  10  11
HETATM   11  N2  UNL     1      26.695   0.544  53.268  1.00  0.00    -0.371 N 
HETATM   12  C4  UNL     1      25.840  -0.563  52.874  1.00  0.00     0.121 A 
HETATM   13  C5  UNL     1      27.051  -1.406  52.942  1.00  0.00    -0.013 A 
HETATM   14  C6  UNL     1      27.926  -2.434  52.908  1.00  0.00    -0.011 A 
HETATM   15  C9  UNL     1      27.885  -0.277  53.329  1.00  0.00     0.035 A 
HETATM   16  C7  UNL     1      29.321  -2.002  53.262  1.00  0.00     0.057 A 
HETATM   17  C8  UNL     1      29.190  -0.549  53.527  1.00  0.00     0.007 A 
BRANCH  12  18
HETATM   18  C3  UNL     1      24.736  -0.948  53.795  1.00  0.00     0.060 C 
BRANCH  18  19
HETATM   19  C2  UNL     1      23.460  -0.270  53.420  1.00  0.00     0.271 C 
BRANCH  19  20
HETATM   20  N1  UNL     1      22.344  -1.226  53.340  1.00  0.00     0.079 N 
HETATM   21  C1  UNL     1      21.614  -1.303  54.585  1.00  0.00     0.306 C 
HETATM   22  H4  UNL     1      21.680  -0.761  52.651  1.00  0.00     0.315 HD
ENDBRANCH  19  20
ENDBRANCH  18  19
ENDBRANCH  12  18
ENDBRANCH  10  11
ENDBRANCH   9  10
ENDBRANCH   8   9
ENDBRANCH   7   8
ENDBRANCH   1   7
BRANCH   6  23
HETATM   23  O1  UNL     1      24.243   4.971  50.414  1.00  0.00    -0.346 OA
BRANCH  23  24
HETATM   24  C20 UNL     1      22.916   4.818  50.117  1.00  0.00     0.214 C 
BRANCH  24  25
HETATM   25  C21 UNL     1      22.280   3.538  50.410  1.00  0.00    -0.034 A 
HETATM   26  C22 UNL     1      22.513   2.283  49.839  1.00  0.00     0.012 A 
HETATM   27  C23 UNL     1      21.784   1.196  50.289  1.00  0.00     0.037 A 
HETATM   28  C24 UNL     1      20.831   1.273  51.280  1.00  0.00     0.065 A 
HETATM   29  C25 UNL     1      20.562   2.503  51.882  1.00  0.00     0.037 A 
HETATM   30  C26 UNL     1      21.314   3.574  51.402  1.00  0.00     0.012 A 
BRANCH  28  31
HETATM   31  O2  UNL     1      20.150   0.111  51.663  1.00  0.00    -0.361 OA
HETATM   32  H30 UNL     1      19.839  -0.512  50.931  1.00  0.00     0.217 HD
ENDBRANCH  28  31
ENDBRANCH  24  25
ENDBRANCH  23  24
ENDBRANCH   6  23
TORSDOF 12
ENDMDL
MODEL 6
REMARK VINA RESULT:      -8.1      2.204      3.714
REMARK  12 active torsions:
REMARK  status: ('A' for Active; 'I' for Inactive)
REMARK    1  A    between atoms: N1_2  and  C2_3 
REMARK    2  A    between atoms: C2_3  and  C3_4 
REMARK    3  A    between atoms: C3_4  and  C4_5 
REMARK    4  A    between atoms: N2_11  and  C10_12 
REMARK    5  A    between atoms: C10_12  and  C11_13 
REMARK    6  A    between atoms: C11_13  and  C12_14 
REMARK    7  A    between atoms: C12_14  and  C13_15 
REMARK    8  A    between atoms: C13_15  and  C14_16 
REMARK    9  A    between atoms: C19_21  and  O1_22 
REMARK   10  A    between atoms: O1_22  and  C20_23 
REMARK   11  A    between atoms: C20_23  and  C21_24 
REMARK   12  A    between atoms: C24_27  and  O2_28 
ROOT
HETATM    1  C14 UNL     1      24.977   5.057  49.551  1.00  0.00    -0.025 A 
HETATM    2  C15 UNL     1      25.045   6.268  48.866  1.00  0.00     0.010 A 
HETATM    3  C16 UNL     1      26.201   6.725  48.282  1.00  0.00     0.001 A 
HETATM    4  C17 UNL     1      27.345   5.966  48.371  1.00  0.00     0.003 A 
HETATM    5  C18 UNL     1      27.255   4.775  49.051  1.00  0.00     0.037 A 
HETATM    6  C19 UNL     1      26.133   4.260  49.657  1.00  0.00     0.075 A 
ENDROOT
BRANCH   1   7
HETATM    7  C13 UNL     1      23.640   4.693  50.139  1.00  0.00     0.041 C 
BRANCH   7   8
HETATM    8  C12 UNL     1      23.399   5.370  51.447  1.00  0.00     0.006 C 
BRANCH   8   9
HETATM    9  C11 UNL     1      23.100   4.309  52.501  1.00  0.00     0.020 C 
BRANCH   9  10
HETATM   10  C10 UNL     1      21.762   3.639  52.205  1.00  0.00     0.124 C 
BRANCH  10  11
HETATM   11  N2  UNL     1      22.027   2.204  52.160  1.00  0.00    -0.371 N 
HETATM   12  C4  UNL     1      22.630   1.292  51.203  1.00  0.00     0.121 A 
HETATM   13  C5  UNL     1      22.342   0.220  52.178  1.00  0.00    -0.013 A 
HETATM   14  C6  UNL     1      22.230  -0.965  52.815  1.00  0.00    -0.011 A 
HETATM   15  C9  UNL     1      21.749   1.157  53.121  1.00  0.00     0.035 A 
HETATM   16  C7  UNL     1      21.578  -0.824  54.161  1.00  0.00     0.057 A 
HETATM   17  C8  UNL     1      21.293   0.626  54.272  1.00  0.00     0.007 A 
BRANCH  12  18
HETATM   18  C3  UNL     1      21.975   1.146  49.875  1.00  0.00     0.060 C 
BRANCH  18  19
HETATM   19  C2  UNL     1      20.496   0.992  50.017  1.00  0.00     0.271 C 
BRANCH  19  20
HETATM   20  N1  UNL     1      19.777   1.639  48.909  1.00  0.00     0.079 N 
HETATM   21  C1  UNL     1      20.200   3.008  48.722  1.00  0.00     0.306 C 
HETATM   22  H4  UNL     1      20.130   1.114  48.054  1.00  0.00     0.315 HD
ENDBRANCH  19  20
ENDBRANCH  18  19
ENDBRANCH  12  18
ENDBRANCH  10  11
ENDBRANCH   9  10
ENDBRANCH   8   9
ENDBRANCH   7   8
ENDBRANCH   1   7
BRANCH   6  23
HETATM   23  O1  UNL     1      25.876   3.133  50.349  1.00  0.00    -0.346 OA
BRANCH  23  24
HETATM   24  C20 UNL     1      26.625   2.064  50.763  1.00  0.00     0.214 C 
BRANCH  24  25
HETATM   25  C21 UNL     1      26.235   1.375  51.989  1.00  0.00    -0.034 A 
HETATM   26  C22 UNL     1      25.705   1.903  53.170  1.00  0.00     0.012 A 
HETATM   27  C23 UNL     1      25.400   1.042  54.211  1.00  0.00     0.037 A 
HETATM   28  C24 UNL     1      25.588  -0.321  54.155  1.00  0.00     0.065 A 
HETATM   29  C25 UNL     1      26.114  -0.896  52.998  1.00  0.00     0.037 A 
HETATM   30  C26 UNL     1      26.409   0.001  51.972  1.00  0.00     0.012 A 
BRANCH  28  31
HETATM   31  O2  UNL     1      25.246  -1.103  55.265  1.00  0.00    -0.361 OA
HETATM   32  H30 UNL     1      24.442  -1.710  55.180  1.00  0.00     0.217 HD
ENDBRANCH  28  31
ENDBRANCH  24  25
ENDBRANCH  23  24
ENDBRANCH   6  23
TORSDOF 12
ENDMDL
MODEL 7
REMARK VINA RESULT:      -8.1      3.064      6.402
REMARK  12 active torsions:
REMARK  status: ('A' for Active; 'I' for Inactive)
REMARK    1  A    between atoms: N1_2  and  C2_3 
REMARK    2  A    between atoms: C2_3  and  C3_4 
REMARK    3  A    between atoms: C3_4  and  C4_5 
REMARK    4  A    between atoms: N2_11  and  C10_12 
REMARK    5  A    between atoms: C10_12  and  C11_13 
REMARK    6  A    between atoms: C11_13  and  C12_14 
REMARK    7  A    between atoms: C12_14  and  C13_15 
REMARK    8  A    between atoms: C13_15  and  C14_16 
REMARK    9  A    between atoms: C19_21  and  O1_22 
REMARK   10  A    between atoms: O1_22  and  C20_23 
REMARK   11  A    between atoms: C20_23  and  C21_24 
REMARK   12  A    between atoms: C24_27  and  O2_28 
ROOT
HETATM    1  C14 UNL     1      26.248   4.790  49.142  1.00  0.00    -0.025 A 
HETATM    2  C15 UNL     1      27.586   4.683  48.769  1.00  0.00     0.010 A 
HETATM    3  C16 UNL     1      28.321   5.756  48.330  1.00  0.00     0.001 A 
HETATM    4  C17 UNL     1      27.725   6.993  48.251  1.00  0.00     0.003 A 
HETATM    5  C18 UNL     1      26.405   7.076  48.624  1.00  0.00     0.037 A 
HETATM    6  C19 UNL     1      25.613   6.045  49.071  1.00  0.00     0.075 A 
ENDROOT
BRANCH   1   7
HETATM    7  C13 UNL     1      25.575   3.525  49.599  1.00  0.00     0.041 C 
BRANCH   7   8
HETATM    8  C12 UNL     1      26.404   2.772  50.585  1.00  0.00     0.006 C 
BRANCH   8   9
HETATM    9  C11 UNL     1      25.589   2.564  51.857  1.00  0.00     0.020 C 
BRANCH   9  10
HETATM   10  C10 UNL     1      24.344   1.738  51.553  1.00  0.00     0.124 C 
BRANCH  10  11
HETATM   11  N2  UNL     1      24.216   0.778  52.645  1.00  0.00    -0.371 N 
HETATM   12  C4  UNL     1      25.138  -0.013  53.443  1.00  0.00     0.121 A 
HETATM   13  C5  UNL     1      23.945  -0.541  54.136  1.00  0.00    -0.013 A 
HETATM   14  C6  UNL     1      23.103  -1.210  54.953  1.00  0.00    -0.011 A 
HETATM   15  C9  UNL     1      23.045   0.267  53.327  1.00  0.00     0.035 A 
HETATM   16  C7  UNL     1      21.665  -0.855  54.697  1.00  0.00     0.057 A 
HETATM   17  C8  UNL     1      21.731   0.136  53.596  1.00  0.00     0.007 A 
BRANCH  12  18
HETATM   18  C3  UNL     1      25.973  -1.024  52.740  1.00  0.00     0.060 C 
BRANCH  18  19
HETATM   19  C2  UNL     1      27.403  -0.928  53.160  1.00  0.00     0.271 C 
BRANCH  19  20
HETATM   20  N1  UNL     1      27.699   0.374  53.776  1.00  0.00     0.079 N 
HETATM   21  C1  UNL     1      28.695   0.260  54.817  1.00  0.00     0.306 C 
HETATM   22  H4  UNL     1      28.173   0.910  52.988  1.00  0.00     0.315 HD
ENDBRANCH  19  20
ENDBRANCH  18  19
ENDBRANCH  12  18
ENDBRANCH  10  11
ENDBRANCH   9  10
ENDBRANCH   8   9
ENDBRANCH   7   8
ENDBRANCH   1   7
BRANCH   6  23
HETATM   23  O1  UNL     1      24.329   5.956  49.470  1.00  0.00    -0.346 OA
BRANCH  23  24
HETATM   24  C20 UNL     1      23.119   6.244  48.898  1.00  0.00     0.214 C 
BRANCH  24  25
HETATM   25  C21 UNL     1      22.668   5.429  47.775  1.00  0.00    -0.034 A 
HETATM   26  C22 UNL     1      22.380   4.061  47.734  1.00  0.00     0.012 A 
HETATM   27  C23 UNL     1      21.954   3.501  46.542  1.00  0.00     0.037 A 
HETATM   28  C24 UNL     1      21.792   4.217  45.377  1.00  0.00     0.065 A 
HETATM   29  C25 UNL     1      22.066   5.586  45.366  1.00  0.00     0.037 A 
HETATM   30  C26 UNL     1      22.493   6.113  46.584  1.00  0.00     0.012 A 
BRANCH  28  31
HETATM   31  O2  UNL     1      21.355   3.554  44.224  1.00  0.00    -0.361 OA
HETATM   32  H30 UNL     1      20.528   3.911  43.764  1.00  0.00     0.217 HD
ENDBRANCH  28  31
ENDBRANCH  24  25
ENDBRANCH  23  24
ENDBRANCH   6  23
TORSDOF 12
ENDMDL
MODEL 8
REMARK VINA RESULT:      -8.1      3.040      7.345
REMARK  12 active torsions:
REMARK  status: ('A' for Active; 'I' for Inactive)
REMARK    1  A    between atoms: N1_2  and  C2_3 
REMARK    2  A    between atoms: C2_3  and  C3_4 
REMARK    3  A    between atoms: C3_4  and  C4_5 
REMARK    4  A    between atoms: N2_11  and  C10_12 
REMARK    5  A    between atoms: C10_12  and  C11_13 
REMARK    6  A    between atoms: C11_13  and  C12_14 
REMARK    7  A    between atoms: C12_14  and  C13_15 
REMARK    8  A    between atoms: C13_15  and  C14_16 
REMARK    9  A    between atoms: C19_21  and  O1_22 
REMARK   10  A    between atoms: O1_22  and  C20_23 
REMARK   11  A    between atoms: C20_23  and  C21_24 
REMARK   12  A    between atoms: C24_27  and  O2_28 
ROOT
HETATM    1  C14 UNL     1      26.665   1.544  53.169  1.00  0.00    -0.025 A 
HETATM    2  C15 UNL     1      27.816   2.328  53.198  1.00  0.00     0.010 A 
HETATM    3  C16 UNL     1      28.985   1.906  53.781  1.00  0.00     0.001 A 
HETATM    4  C17 UNL     1      29.035   0.662  54.365  1.00  0.00     0.003 A 
HETATM    5  C18 UNL     1      27.888  -0.095  54.325  1.00  0.00     0.037 A 
HETATM    6  C19 UNL     1      26.688   0.266  53.759  1.00  0.00     0.075 A 
ENDROOT
BRANCH   1   7
HETATM    7  C13 UNL     1      25.461   2.145  52.496  1.00  0.00     0.041 C 
BRANCH   7   8
HETATM    8  C12 UNL     1      24.689   3.034  53.414  1.00  0.00     0.006 C 
BRANCH   8   9
HETATM    9  C11 UNL     1      23.710   3.861  52.589  1.00  0.00     0.020 C 
BRANCH   9  10
HETATM   10  C10 UNL     1      23.712   3.385  51.140  1.00  0.00     0.124 C 
BRANCH  10  11
HETATM   11  N2  UNL     1      24.232   4.495  50.347  1.00  0.00    -0.371 N 
HETATM   12  C4  UNL     1      25.244   4.647  49.316  1.00  0.00     0.121 A 
HETATM   13  C5  UNL     1      24.895   6.082  49.310  1.00  0.00    -0.013 A 
HETATM   14  C6  UNL     1      24.833   7.406  49.052  1.00  0.00    -0.011 A 
HETATM   15  C9  UNL     1      23.882   5.900  50.339  1.00  0.00     0.035 A 
HETATM   16  C7  UNL     1      23.796   8.098  49.890  1.00  0.00     0.057 A 
HETATM   17  C8  UNL     1      23.218   7.010  50.716  1.00  0.00     0.007 A 
BRANCH  12  18
HETATM   18  C3  UNL     1      26.653   4.329  49.675  1.00  0.00     0.060 C 
BRANCH  18  19
HETATM   19  C2  UNL     1      27.594   4.758  48.597  1.00  0.00     0.271 C 
BRANCH  19  20
HETATM   20  N1  UNL     1      28.480   5.840  49.053  1.00  0.00     0.079 N 
HETATM   21  C1  UNL     1      29.724   5.858  48.318  1.00  0.00     0.306 C 
HETATM   22  H4  UNL     1      27.961   6.718  48.753  1.00  0.00     0.315 HD
ENDBRANCH  19  20
ENDBRANCH  18  19
ENDBRANCH  12  18
ENDBRANCH  10  11
ENDBRANCH   9  10
ENDBRANCH   8   9
ENDBRANCH   7   8
ENDBRANCH   1   7
BRANCH   6  23
HETATM   23  O1  UNL     1      25.492  -0.342  53.634  1.00  0.00    -0.346 OA
BRANCH  23  24
HETATM   24  C20 UNL     1      24.545  -0.798  54.511  1.00  0.00     0.214 C 
BRANCH  24  25
HETATM   25  C21 UNL     1      23.144  -0.759  54.105  1.00  0.00    -0.034 A 
HETATM   26  C22 UNL     1      22.034  -1.366  54.701  1.00  0.00     0.012 A 
HETATM   27  C23 UNL     1      20.784  -1.179  54.135  1.00  0.00     0.037 A 
HETATM   28  C24 UNL     1      20.562  -0.421  53.007  1.00  0.00     0.065 A 
HETATM   29  C25 UNL     1      21.638   0.206  52.376  1.00  0.00     0.037 A 
HETATM   30  C26 UNL     1      22.879  -0.006  52.974  1.00  0.00     0.012 A 
BRANCH  28  31
HETATM   31  O2  UNL     1      19.257  -0.295  52.516  1.00  0.00    -0.361 OA
HETATM   32  H30 UNL     1      18.990   0.596  52.121  1.00  0.00     0.217 HD
ENDBRANCH  28  31
ENDBRANCH  24  25
ENDBRANCH  23  24
ENDBRANCH   6  23
TORSDOF 12
ENDMDL
MODEL 9
REMARK VINA RESULT:      -8.0      2.831      7.514
REMARK  12 active torsions:
REMARK  status: ('A' for Active; 'I' for Inactive)
REMARK    1  A    between atoms: N1_2  and  C2_3 
REMARK    2  A    between atoms: C2_3  and  C3_4 
REMARK    3  A    between atoms: C3_4  and  C4_5 
REMARK    4  A    between atoms: N2_11  and  C10_12 
REMARK    5  A    between atoms: C10_12  and  C11_13 
REMARK    6  A    between atoms: C11_13  and  C12_14 
REMARK    7  A    between atoms: C12_14  and  C13_15 
REMARK    8  A    between atoms: C13_15  and  C14_16 
REMARK    9  A    between atoms: C19_21  and  O1_22 
REMARK   10  A    between atoms: O1_22  and  C20_23 
REMARK   11  A    between atoms: C20_23  and  C21_24 
REMARK   12  A    between atoms: C24_27  and  O2_28 
ROOT
HETATM    1  C14 UNL     1      26.567   1.535  53.084  1.00  0.00    -0.025 A 
HETATM    2  C15 UNL     1      27.717   2.321  53.101  1.00  0.00     0.010 A 
HETATM    3  C16 UNL     1      28.857   1.950  53.771  1.00  0.00     0.001 A 
HETATM    4  C17 UNL     1      28.878   0.759  54.456  1.00  0.00     0.003 A 
HETATM    5  C18 UNL     1      27.733  -0.000  54.426  1.00  0.00     0.037 A 
HETATM    6  C19 UNL     1      26.560   0.310  53.777  1.00  0.00     0.075 A 
ENDROOT
BRANCH   1   7
HETATM    7  C13 UNL     1      25.397   2.076  52.309  1.00  0.00     0.041 C 
BRANCH   7   8
HETATM    8  C12 UNL     1      24.580   3.030  53.116  1.00  0.00     0.006 C 
BRANCH   8   9
HETATM    9  C11 UNL     1      23.640   3.785  52.183  1.00  0.00     0.020 C 
BRANCH   9  10
HETATM   10  C10 UNL     1      23.832   3.308  50.747  1.00  0.00     0.124 C 
BRANCH  10  11
HETATM   11  N2  UNL     1      24.503   4.396  50.042  1.00  0.00    -0.371 N 
HETATM   12  C4  UNL     1      24.130   5.730  49.602  1.00  0.00     0.121 A 
HETATM   13  C5  UNL     1      25.500   5.836  49.057  1.00  0.00    -0.013 A 
HETATM   14  C6  UNL     1      26.634   6.258  48.459  1.00  0.00    -0.011 A 
HETATM   15  C9  UNL     1      25.847   4.498  49.516  1.00  0.00     0.035 A 
HETATM   16  C7  UNL     1      27.723   5.224  48.518  1.00  0.00     0.057 A 
HETATM   17  C8  UNL     1      27.101   4.088  49.240  1.00  0.00     0.007 A 
BRANCH  12  18
HETATM   18  C3  UNL     1      23.031   5.850  48.606  1.00  0.00     0.060 C 
BRANCH  18  19
HETATM   19  C2  UNL     1      21.711   6.034  49.279  1.00  0.00     0.271 C 
BRANCH  19  20
HETATM   20  N1  UNL     1      21.777   7.065  50.327  1.00  0.00     0.079 N 
HETATM   21  C1  UNL     1      20.778   8.090  50.133  1.00  0.00     0.306 C 
HETATM   22  H4  UNL     1      21.477   6.538  51.201  1.00  0.00     0.315 HD
ENDBRANCH  19  20
ENDBRANCH  18  19
ENDBRANCH  12  18
ENDBRANCH  10  11
ENDBRANCH   9  10
ENDBRANCH   8   9
ENDBRANCH   7   8
ENDBRANCH   1   7
BRANCH   6  23
HETATM   23  O1  UNL     1      25.370  -0.308  53.647  1.00  0.00    -0.346 OA
BRANCH  23  24
HETATM   24  C20 UNL     1      24.436  -0.795  54.521  1.00  0.00     0.214 C 
BRANCH  24  25
HETATM   25  C21 UNL     1      23.031  -0.761  54.129  1.00  0.00    -0.034 A 
HETATM   26  C22 UNL     1      21.934  -1.402  54.713  1.00  0.00     0.012 A 
HETATM   27  C23 UNL     1      20.677  -1.212  54.164  1.00  0.00     0.037 A 
HETATM   28  C24 UNL     1      20.436  -0.420  53.064  1.00  0.00     0.065 A 
HETATM   29  C25 UNL     1      21.498   0.242  52.446  1.00  0.00     0.037 A 
HETATM   30  C26 UNL     1      22.747   0.026  53.026  1.00  0.00     0.012 A 
BRANCH  28  31
HETATM   31  O2  UNL     1      19.125  -0.294  52.588  1.00  0.00    -0.361 OA
HETATM   32  H30 UNL     1      18.669   0.601  52.703  1.00  0.00     0.217 HD
ENDBRANCH  28  31
ENDBRANCH  24  25
ENDBRANCH  23  24
ENDBRANCH   6  23
TORSDOF 12
ENDMDL
