MODEL 1
REMARK VINA RESULT:      -8.6      0.000      0.000
REMARK  7 active torsions:
REMARK  status: ('A' for Active; 'I' for Inactive)
REMARK    1  A    between atoms: C7_7  and  O1_8 
REMARK    2  A    between atoms: O1_8  and  C8_9 
REMARK    3  A    between atoms: C11_13  and  C12_14 
REMARK    4  A    between atoms: C13_15  and  C14_16 
REMARK    5  A    between atoms: C14_16  and  O2_19 
REMARK    6  A    between atoms: C17_22  and  C18_23 
REMARK    7  A    between atoms: C19_27  and  N6_28 
ROOT
HETATM    1  C8  UNL     1      25.954   4.246  49.602  1.00  0.00     0.159 A 
HETATM    2  C9  UNL     1      24.654   3.993  49.574  1.00  0.00     0.149 A 
HETATM    3  N1  UNL     1      24.115   3.059  50.503  1.00  0.00    -0.325 N 
HETATM    4  C10 UNL     1      25.023   2.442  51.426  1.00  0.00     0.167 A 
HETATM    5  C11 UNL     1      26.303   2.694  51.450  1.00  0.00     0.135 A 
HETATM    6  N2  UNL     1      26.845   3.633  50.515  1.00  0.00    -0.326 N 
HETATM    7  N3  UNL     1      24.280   1.553  52.255  1.00  0.00    -0.228 NA
HETATM    8  C17 UNL     1      23.031   1.617  51.880  1.00  0.00     0.094 A 
HETATM    9  C20 UNL     1      22.797   2.551  50.761  1.00  0.00     0.142 A 
HETATM   10  C21 UNL     1      22.254   1.815  49.581  1.00  0.00     0.039 C 
HETATM   11  H22 UNL     1      27.846   3.918  50.434  1.00  0.00     0.169 HD
ENDROOT
BRANCH   1  12
HETATM   12  O1  UNL     1      26.328   5.179  48.632  1.00  0.00    -0.329 OA
BRANCH  12  13
HETATM   13  C7  UNL     1      27.135   6.292  48.954  1.00  0.00     0.134 C 
HETATM   14  C2  UNL     1      26.237   7.486  49.126  1.00  0.00     0.011 C 
HETATM   15  C1  UNL     1      25.593   7.940  47.852  1.00  0.00     0.012 C 
HETATM   16  C3  UNL     1      27.087   8.609  49.661  1.00  0.00     0.007 C 
HETATM   17  C4  UNL     1      28.314   8.902  48.871  1.00  0.00     0.001 C 
HETATM   18  C5  UNL     1      29.048   7.699  48.352  1.00  0.00     0.002 C 
HETATM   19  C6  UNL     1      28.131   6.604  47.879  1.00  0.00     0.033 C 
ENDBRANCH  12  13
ENDBRANCH   1  12
BRANCH   5  20
HETATM   20  C12 UNL     1      27.240   2.093  52.358  1.00  0.00    -0.042 C 
HETATM   21  C13 UNL     1      28.017   1.594  53.134  1.00  0.00    -0.062 C 
BRANCH  21  22
HETATM   22  C14 UNL     1      28.948   0.973  54.095  1.00  0.00     0.114 C 
HETATM   23  C15 UNL     1      29.930   0.053  53.436  1.00  0.00     0.060 C 
HETATM   24  C16 UNL     1      28.138   0.148  55.095  1.00  0.00     0.060 C 
BRANCH  22  25
HETATM   25  O2  UNL     1      29.639   1.990  54.704  1.00  0.00    -0.378 OA
HETATM   26  H21 UNL     1      29.163   2.828  54.811  1.00  0.00     0.211 HD
ENDBRANCH  22  25
ENDBRANCH  21  22
ENDBRANCH   5  20
BRANCH   8  27
HETATM   27  C18 UNL     1      21.808   0.964  52.324  1.00  0.00     0.160 A 
HETATM   28  N4  UNL     1      20.616   1.578  52.236  1.00  0.00    -0.099 NA
HETATM   29  O3  UNL     1      19.684   0.777  52.701  1.00  0.00    -0.104 OA
HETATM   30  N5  UNL     1      20.203  -0.336  53.091  1.00  0.00    -0.085 NA
HETATM   31  C19 UNL     1      21.539  -0.286  52.882  1.00  0.00     0.184 A 
BRANCH  31  32
HETATM   32  N6  UNL     1      22.643  -1.173  53.095  1.00  0.00    -0.380 N 
HETATM   33  H23 UNL     1      22.478  -2.142  53.410  1.00  0.00     0.158 HD
HETATM   34  H24 UNL     1      23.620  -0.865  52.940  1.00  0.00     0.158 HD
ENDBRANCH  31  32
ENDBRANCH   8  27
TORSDOF 7
ENDMDL
MODEL 2
REMARK VINA RESULT:      -8.3      2.421      5.592
REMARK  7 active torsions:
REMARK  status: ('A' for Active; 'I' for Inactive)
REMARK    1  A    between atoms: C7_7  and  O1_8 
REMARK    2  A    between atoms: O1_8  and  C8_9 
REMARK    3  A    between atoms: C11_13  and  C12_14 
REMARK    4  A    between atoms: C13_15  and  C14_16 
REMARK    5  A    between atoms: C14_16  and  O2_19 
REMARK    6  A    between atoms: C17_22  and  C18_23 
REMARK    7  A    between atoms: C19_27  and  N6_28 
ROOT
HETATM    1  C8  UNL     1      24.447   3.847  51.127  1.00  0.00     0.159 A 
HETATM    2  C9  UNL     1      25.723   3.496  51.182  1.00  0.00     0.149 A 
HETATM    3  N1  UNL     1      26.076   2.287  51.844  1.00  0.00    -0.325 N 
HETATM    4  C10 UNL     1      25.016   1.511  52.418  1.00  0.00     0.167 A 
HETATM    5  C11 UNL     1      23.759   1.860  52.362  1.00  0.00     0.135 A 
HETATM    6  N2  UNL     1      23.405   3.077  51.696  1.00  0.00    -0.326 N 
HETATM    7  N3  UNL     1      25.587   0.355  53.024  1.00  0.00    -0.228 NA
HETATM    8  C17 UNL     1      26.878   0.411  52.840  1.00  0.00     0.094 A 
HETATM    9  C20 UNL     1      27.316   1.608  52.093  1.00  0.00     0.142 A 
HETATM   10  C21 UNL     1      28.232   2.433  52.936  1.00  0.00     0.039 C 
HETATM   11  H22 UNL     1      22.442   3.463  51.584  1.00  0.00     0.169 HD
ENDROOT
BRANCH   1  12
HETATM   12  O1  UNL     1      24.263   5.054  50.447  1.00  0.00    -0.329 OA
BRANCH  12  13
HETATM   13  C7  UNL     1      25.358   5.866  50.082  1.00  0.00     0.134 C 
HETATM   14  C2  UNL     1      25.063   7.274  50.520  1.00  0.00     0.011 C 
HETATM   15  C1  UNL     1      23.944   7.917  49.759  1.00  0.00     0.012 C 
HETATM   16  C3  UNL     1      26.316   8.081  50.303  1.00  0.00     0.007 C 
HETATM   17  C4  UNL     1      26.890   7.997  48.933  1.00  0.00     0.001 C 
HETATM   18  C5  UNL     1      26.856   6.635  48.301  1.00  0.00     0.002 C 
HETATM   19  C6  UNL     1      25.593   5.874  48.601  1.00  0.00     0.033 C 
ENDBRANCH  12  13
ENDBRANCH   1  12
BRANCH   5  20
HETATM   20  C12 UNL     1      22.673   1.109  52.927  1.00  0.00    -0.042 C 
HETATM   21  C13 UNL     1      21.771   0.466  53.404  1.00  0.00    -0.062 C 
BRANCH  21  22
HETATM   22  C14 UNL     1      20.684  -0.328  54.006  1.00  0.00     0.114 C 
HETATM   23  C15 UNL     1      21.092  -1.739  54.300  1.00  0.00     0.060 C 
HETATM   24  C16 UNL     1      19.514  -0.379  53.022  1.00  0.00     0.060 C 
BRANCH  22  25
HETATM   25  O2  UNL     1      20.340   0.285  55.185  1.00  0.00    -0.378 OA
HETATM   26  H21 UNL     1      19.391   0.364  55.366  1.00  0.00     0.211 HD
ENDBRANCH  22  25
ENDBRANCH  21  22
ENDBRANCH   5  20
BRANCH   8  27
HETATM   27  C18 UNL     1      27.990  -0.451  53.212  1.00  0.00     0.160 A 
HETATM   28  N4  UNL     1      29.114   0.051  53.751  1.00  0.00    -0.099 NA
HETATM   29  O3  UNL     1      29.952  -0.931  53.993  1.00  0.00    -0.104 OA
HETATM   30  N5  UNL     1      29.436  -2.058  53.639  1.00  0.00    -0.085 NA
HETATM   31  C19 UNL     1      28.199  -1.828  53.139  1.00  0.00     0.184 A 
BRANCH  31  32
HETATM   32  N6  UNL     1      27.148  -2.634  52.595  1.00  0.00    -0.380 N 
HETATM   33  H23 UNL     1      26.897  -2.555  51.597  1.00  0.00     0.158 HD
HETATM   34  H24 UNL     1      26.623  -3.305  53.184  1.00  0.00     0.158 HD
ENDBRANCH  31  32
ENDBRANCH   8  27
TORSDOF 7
ENDMDL
MODEL 3
REMARK VINA RESULT:      -8.2      1.627      1.955
REMARK  7 active torsions:
REMARK  status: ('A' for Active; 'I' for Inactive)
REMARK    1  A    between atoms: C7_7  and  O1_8 
REMARK    2  A    between atoms: O1_8  and  C8_9 
REMARK    3  A    between atoms: C11_13  and  C12_14 
REMARK    4  A    between atoms: C13_15  and  C14_16 
REMARK    5  A    between atoms: C14_16  and  O2_19 
REMARK    6  A    between atoms: C17_22  and  C18_23 
REMARK    7  A    between atoms: C19_27  and  N6_28 
ROOT
HETATM    1  C8  UNL     1      26.449   4.704  49.194  1.00  0.00     0.159 A 
HETATM    2  C9  UNL     1      25.147   4.930  49.112  1.00  0.00     0.149 A 
HETATM    3  N1  UNL     1      24.270   4.230  49.986  1.00  0.00    -0.325 N 
HETATM    4  C10 UNL     1      24.857   3.310  50.916  1.00  0.00     0.167 A 
HETATM    5  C11 UNL     1      26.140   3.088  50.995  1.00  0.00     0.135 A 
HETATM    6  N2  UNL     1      27.022   3.793  50.114  1.00  0.00    -0.326 N 
HETATM    7  N3  UNL     1      23.810   2.725  51.686  1.00  0.00    -0.228 NA
HETATM    8  C17 UNL     1      22.683   3.238  51.271  1.00  0.00     0.094 A 
HETATM    9  C20 UNL     1      22.847   4.219  50.179  1.00  0.00     0.142 A 
HETATM   10  C21 UNL     1      22.132   3.751  48.955  1.00  0.00     0.039 C 
HETATM   11  H22 UNL     1      28.061   3.705  50.078  1.00  0.00     0.169 HD
ENDROOT
BRANCH   1  12
HETATM   12  O1  UNL     1      27.174   5.464  48.273  1.00  0.00    -0.329 OA
BRANCH  12  13
HETATM   13  C7  UNL     1      28.353   6.144  48.646  1.00  0.00     0.134 C 
HETATM   14  C2  UNL     1      28.231   7.574  48.197  1.00  0.00     0.011 C 
HETATM   15  C1  UNL     1      28.247   7.739  46.708  1.00  0.00     0.012 C 
HETATM   16  C3  UNL     1      29.402   8.324  48.775  1.00  0.00     0.007 C 
HETATM   17  C4  UNL     1      30.735   7.728  48.490  1.00  0.00     0.001 C 
HETATM   18  C5  UNL     1      30.801   6.230  48.565  1.00  0.00     0.002 C 
HETATM   19  C6  UNL     1      29.576   5.554  48.010  1.00  0.00     0.033 C 
ENDBRANCH  12  13
ENDBRANCH   1  12
BRANCH   5  20
HETATM   20  C12 UNL     1      26.761   2.173  51.911  1.00  0.00    -0.042 C 
HETATM   21  C13 UNL     1      27.282   1.393  52.669  1.00  0.00    -0.062 C 
BRANCH  21  22
HETATM   22  C14 UNL     1      27.935   0.431  53.578  1.00  0.00     0.114 C 
HETATM   23  C15 UNL     1      29.424   0.589  53.614  1.00  0.00     0.060 C 
HETATM   24  C16 UNL     1      27.631  -0.985  53.089  1.00  0.00     0.060 C 
BRANCH  22  25
HETATM   25  O2  UNL     1      27.437   0.661  54.836  1.00  0.00    -0.378 OA
HETATM   26  H21 UNL     1      26.475   0.760  54.905  1.00  0.00     0.211 HD
ENDBRANCH  22  25
ENDBRANCH  21  22
ENDBRANCH   5  20
BRANCH   8  27
HETATM   27  C18 UNL     1      21.290   3.053  51.648  1.00  0.00     0.160 A 
HETATM   28  N4  UNL     1      20.466   4.103  51.818  1.00  0.00    -0.099 NA
HETATM   29  O3  UNL     1      19.274   3.664  52.153  1.00  0.00    -0.104 OA
HETATM   30  N5  UNL     1      19.270   2.377  52.212  1.00  0.00    -0.085 NA
HETATM   31  C19 UNL     1      20.509   1.926  51.905  1.00  0.00     0.184 A 
BRANCH  31  32
HETATM   32  N6  UNL     1      21.135   0.643  51.798  1.00  0.00    -0.380 N 
HETATM   33  H23 UNL     1      20.793  -0.150  52.363  1.00  0.00     0.158 HD
HETATM   34  H24 UNL     1      21.935   0.485  51.159  1.00  0.00     0.158 HD
ENDBRANCH  31  32
ENDBRANCH   8  27
TORSDOF 7
ENDMDL
MODEL 4
REMARK VINA RESULT:      -7.9      3.042      6.803
REMARK  7 active torsions:
REMARK  status: ('A' for Active; 'I' for Inactive)
REMARK    1  A    between atoms: C7_7  and  O1_8 
REMARK    2  A    between atoms: O1_8  and  C8_9 
REMARK    3  A    between atoms: C11_13  and  C12_14 
REMARK    4  A    between atoms: C13_15  and  C14_16 
REMARK    5  A    between atoms: C14_16  and  O2_19 
REMARK    6  A    between atoms: C17_22  and  C18_23 
REMARK    7  A    between atoms: C19_27  and  N6_28 
ROOT
HETATM    1  C8  UNL     1      25.232   2.218  51.151  1.00  0.00     0.159 A 
HETATM    2  C9  UNL     1      23.912   2.329  51.145  1.00  0.00     0.149 A 
HETATM    3  N1  UNL     1      23.320   3.456  50.508  1.00  0.00    -0.325 N 
HETATM    4  C10 UNL     1      24.198   4.414  49.904  1.00  0.00     0.167 A 
HETATM    5  C11 UNL     1      25.499   4.302  49.912  1.00  0.00     0.135 A 
HETATM    6  N2  UNL     1      26.094   3.168  50.553  1.00  0.00    -0.326 N 
HETATM    7  N3  UNL     1      23.404   5.448  49.331  1.00  0.00    -0.228 NA
HETATM    8  C17 UNL     1      22.152   5.155  49.558  1.00  0.00     0.094 A 
HETATM    9  C20 UNL     1      21.968   3.896  50.309  1.00  0.00     0.142 A 
HETATM   10  C21 UNL     1      21.283   4.167  51.608  1.00  0.00     0.039 C 
HETATM   11  H22 UNL     1      27.115   2.965  50.627  1.00  0.00     0.169 HD
ENDROOT
BRANCH   1  12
HETATM   12  O1  UNL     1      25.658   1.064  51.813  1.00  0.00    -0.329 OA
BRANCH  12  13
HETATM   13  C7  UNL     1      26.961   0.961  52.346  1.00  0.00     0.134 C 
HETATM   14  C2  UNL     1      27.079  -0.369  53.038  1.00  0.00     0.011 C 
HETATM   15  C1  UNL     1      26.239  -0.480  54.273  1.00  0.00     0.012 C 
HETATM   16  C3  UNL     1      28.524  -0.544  53.425  1.00  0.00     0.007 C 
HETATM   17  C4  UNL     1      29.108   0.581  54.204  1.00  0.00     0.001 C 
HETATM   18  C5  UNL     1      28.699   1.955  53.759  1.00  0.00     0.002 C 
HETATM   19  C6  UNL     1      27.254   2.038  53.346  1.00  0.00     0.033 C 
ENDBRANCH  12  13
ENDBRANCH   1  12
BRANCH   5  20
HETATM   20  C12 UNL     1      26.408   5.242  49.319  1.00  0.00    -0.042 C 
HETATM   21  C13 UNL     1      27.178   6.034  48.836  1.00  0.00    -0.062 C 
BRANCH  21  22
HETATM   22  C14 UNL     1      28.140   6.992  48.258  1.00  0.00     0.114 C 
HETATM   23  C15 UNL     1      27.562   7.777  47.121  1.00  0.00     0.060 C 
HETATM   24  C16 UNL     1      29.342   6.214  47.721  1.00  0.00     0.060 C 
BRANCH  22  25
HETATM   25  O2  UNL     1      28.494   7.863  49.259  1.00  0.00    -0.378 OA
HETATM   26  H21 UNL     1      28.497   8.804  49.027  1.00  0.00     0.211 HD
ENDBRANCH  22  25
ENDBRANCH  21  22
ENDBRANCH   5  20
BRANCH   8  27
HETATM   27  C18 UNL     1      20.888   5.800  49.236  1.00  0.00     0.160 A 
HETATM   28  N4  UNL     1      19.907   5.137  48.598  1.00  0.00    -0.099 NA
HETATM   29  O3  UNL     1      18.883   5.942  48.431  1.00  0.00    -0.104 OA
HETATM   30  N5  UNL     1      19.139   7.104  48.926  1.00  0.00    -0.085 NA
HETATM   31  C19 UNL     1      20.387   7.084  49.450  1.00  0.00     0.184 A 
BRANCH  31  32
HETATM   32  N6  UNL     1      21.231   8.026  50.122  1.00  0.00    -0.380 N 
HETATM   33  H23 UNL     1      21.632   7.797  51.045  1.00  0.00     0.158 HD
HETATM   34  H24 UNL     1      21.455   8.945  49.701  1.00  0.00     0.158 HD
ENDBRANCH  31  32
ENDBRANCH   8  27
TORSDOF 7
ENDMDL
MODEL 5
REMARK VINA RESULT:      -7.9      3.067      6.996
REMARK  7 active torsions:
REMARK  status: ('A' for Active; 'I' for Inactive)
REMARK    1  A    between atoms: C7_7  and  O1_8 
REMARK    2  A    between atoms: O1_8  and  C8_9 
REMARK    3  A    between atoms: C11_13  and  C12_14 
REMARK    4  A    between atoms: C13_15  and  C14_16 
REMARK    5  A    between atoms: C14_16  and  O2_19 
REMARK    6  A    between atoms: C17_22  and  C18_23 
REMARK    7  A    between atoms: C19_27  and  N6_28 
ROOT
HETATM    1  C8  UNL     1      25.016   2.539  51.650  1.00  0.00     0.159 A 
HETATM    2  C9  UNL     1      23.788   2.278  51.229  1.00  0.00     0.149 A 
HETATM    3  N1  UNL     1      23.268   3.012  50.127  1.00  0.00    -0.325 N 
HETATM    4  C10 UNL     1      24.116   4.003  49.531  1.00  0.00     0.167 A 
HETATM    5  C11 UNL     1      25.325   4.259  49.949  1.00  0.00     0.135 A 
HETATM    6  N2  UNL     1      25.848   3.519  51.058  1.00  0.00    -0.326 N 
HETATM    7  N3  UNL     1      23.404   4.611  48.457  1.00  0.00    -0.228 NA
HETATM    8  C17 UNL     1      22.228   4.047  48.394  1.00  0.00     0.094 A 
HETATM    9  C20 UNL     1      22.020   3.002  49.417  1.00  0.00     0.142 A 
HETATM   10  C21 UNL     1      20.881   3.375  50.308  1.00  0.00     0.039 C 
HETATM   11  H22 UNL     1      26.794   3.629  51.484  1.00  0.00     0.169 HD
ENDROOT
BRANCH   1  12
HETATM   12  O1  UNL     1      25.380   1.738  52.736  1.00  0.00    -0.329 OA
BRANCH  12  13
HETATM   13  C7  UNL     1      26.494   0.874  52.671  1.00  0.00     0.134 C 
HETATM   14  C2  UNL     1      26.011  -0.530  52.911  1.00  0.00     0.011 C 
HETATM   15  C1  UNL     1      25.526  -0.767  54.308  1.00  0.00     0.012 C 
HETATM   16  C3  UNL     1      27.170  -1.453  52.642  1.00  0.00     0.007 C 
HETATM   17  C4  UNL     1      28.420  -1.125  53.380  1.00  0.00     0.001 C 
HETATM   18  C5  UNL     1      28.743   0.338  53.484  1.00  0.00     0.002 C 
HETATM   19  C6  UNL     1      27.528   1.198  53.707  1.00  0.00     0.033 C 
ENDBRANCH  12  13
ENDBRANCH   1  12
BRANCH   5  20
HETATM   20  C12 UNL     1      26.201   5.244  49.377  1.00  0.00    -0.042 C 
HETATM   21  C13 UNL     1      26.947   6.067  48.910  1.00  0.00    -0.062 C 
BRANCH  21  22
HETATM   22  C14 UNL     1      27.879   7.058  48.339  1.00  0.00     0.114 C 
HETATM   23  C15 UNL     1      27.258   7.875  47.248  1.00  0.00     0.060 C 
HETATM   24  C16 UNL     1      29.074   6.314  47.739  1.00  0.00     0.060 C 
BRANCH  22  25
HETATM   25  O2  UNL     1      28.253   7.896  49.359  1.00  0.00    -0.378 OA
HETATM   26  H21 UNL     1      27.539   8.232  49.922  1.00  0.00     0.211 HD
ENDBRANCH  22  25
ENDBRANCH  21  22
ENDBRANCH   5  20
BRANCH   8  27
HETATM   27  C18 UNL     1      21.068   4.223  47.534  1.00  0.00     0.160 A 
HETATM   28  N4  UNL     1      20.489   3.178  46.918  1.00  0.00    -0.099 NA
HETATM   29  O3  UNL     1      19.470   3.606  46.209  1.00  0.00    -0.104 OA
HETATM   30  N5  UNL     1      19.348   4.884  46.326  1.00  0.00    -0.085 NA
HETATM   31  C19 UNL     1      20.323   5.337  47.148  1.00  0.00     0.184 A 
BRANCH  31  32
HETATM   32  N6  UNL     1      20.718   6.614  47.663  1.00  0.00    -0.380 N 
HETATM   33  H23 UNL     1      21.706   6.795  47.899  1.00  0.00     0.158 HD
HETATM   34  H24 UNL     1      20.029   7.374  47.806  1.00  0.00     0.158 HD
ENDBRANCH  31  32
ENDBRANCH   8  27
TORSDOF 7
ENDMDL
MODEL 6
REMARK VINA RESULT:      -7.8      3.772      8.024
REMARK  7 active torsions:
REMARK  status: ('A' for Active; 'I' for Inactive)
REMARK    1  A    between atoms: C7_7  and  O1_8 
REMARK    2  A    between atoms: O1_8  and  C8_9 
REMARK    3  A    between atoms: C11_13  and  C12_14 
REMARK    4  A    between atoms: C13_15  and  C14_16 
REMARK    5  A    between atoms: C14_16  and  O2_19 
REMARK    6  A    between atoms: C17_22  and  C18_23 
REMARK    7  A    between atoms: C19_27  and  N6_28 
ROOT
HETATM    1  C8  UNL     1      23.337   0.186  53.305  1.00  0.00     0.159 A 
HETATM    2  C9  UNL     1      23.640   1.400  52.872  1.00  0.00     0.149 A 
HETATM    3  N1  UNL     1      22.606   2.217  52.336  1.00  0.00    -0.325 N 
HETATM    4  C10 UNL     1      21.281   1.670  52.297  1.00  0.00     0.167 A 
HETATM    5  C11 UNL     1      20.986   0.473  52.725  1.00  0.00     0.135 A 
HETATM    6  N2  UNL     1      22.027  -0.349  53.264  1.00  0.00    -0.326 N 
HETATM    7  N3  UNL     1      20.412   2.646  51.730  1.00  0.00    -0.228 NA
HETATM    8  C17 UNL     1      21.133   3.697  51.445  1.00  0.00     0.094 A 
HETATM    9  C20 UNL     1      22.561   3.544  51.788  1.00  0.00     0.142 A 
HETATM   10  C21 UNL     1      23.401   3.657  50.558  1.00  0.00     0.039 C 
HETATM   11  H22 UNL     1      21.920  -1.318  53.636  1.00  0.00     0.169 HD
ENDROOT
BRANCH   1  12
HETATM   12  O1  UNL     1      24.456  -0.490  53.800  1.00  0.00    -0.329 OA
BRANCH  12  13
HETATM   13  C7  UNL     1      25.745   0.081  53.740  1.00  0.00     0.134 C 
HETATM   14  C2  UNL     1      26.437  -0.455  52.517  1.00  0.00     0.011 C 
HETATM   15  C1  UNL     1      26.758  -1.916  52.601  1.00  0.00     0.012 C 
HETATM   16  C3  UNL     1      27.725   0.311  52.362  1.00  0.00     0.007 C 
HETATM   17  C4  UNL     1      28.594   0.333  53.569  1.00  0.00     0.001 C 
HETATM   18  C5  UNL     1      27.875   0.495  54.878  1.00  0.00     0.002 C 
HETATM   19  C6  UNL     1      26.577  -0.263  54.939  1.00  0.00     0.033 C 
ENDBRANCH  12  13
ENDBRANCH   1  12
BRANCH   5  20
HETATM   20  C12 UNL     1      19.672  -0.107  52.701  1.00  0.00    -0.042 C 
HETATM   21  C13 UNL     1      18.567  -0.591  52.697  1.00  0.00    -0.062 C 
BRANCH  21  22
HETATM   22  C14 UNL     1      17.208  -1.164  52.707  1.00  0.00     0.114 C 
HETATM   23  C15 UNL     1      17.196  -2.619  53.062  1.00  0.00     0.060 C 
HETATM   24  C16 UNL     1      16.608  -1.023  51.308  1.00  0.00     0.060 C 
BRANCH  22  25
HETATM   25  O2  UNL     1      16.486  -0.475  53.650  1.00  0.00    -0.378 OA
HETATM   26  H21 UNL     1      15.729  -0.942  54.036  1.00  0.00     0.211 HD
ENDBRANCH  22  25
ENDBRANCH  21  22
ENDBRANCH   5  20
BRANCH   8  27
HETATM   27  C18 UNL     1      20.837   4.996  50.859  1.00  0.00     0.160 A 
HETATM   28  N4  UNL     1      21.492   6.104  51.248  1.00  0.00    -0.099 NA
HETATM   29  O3  UNL     1      21.039   7.132  50.568  1.00  0.00    -0.104 OA
HETATM   30  N5  UNL     1      20.118   6.757  49.749  1.00  0.00    -0.085 NA
HETATM   31  C19 UNL     1      19.940   5.422  49.880  1.00  0.00     0.184 A 
BRANCH  31  32
HETATM   32  N6  UNL     1      19.095   4.436  49.275  1.00  0.00    -0.380 N 
HETATM   33  H23 UNL     1      18.785   3.615  49.818  1.00  0.00     0.158 HD
HETATM   34  H24 UNL     1      18.781   4.525  48.292  1.00  0.00     0.158 HD
ENDBRANCH  31  32
ENDBRANCH   8  27
TORSDOF 7
ENDMDL
MODEL 7
REMARK VINA RESULT:      -7.8      5.611      9.532
REMARK  7 active torsions:
REMARK  status: ('A' for Active; 'I' for Inactive)
REMARK    1  A    between atoms: C7_7  and  O1_8 
REMARK    2  A    between atoms: O1_8  and  C8_9 
REMARK    3  A    between atoms: C11_13  and  C12_14 
REMARK    4  A    between atoms: C13_15  and  C14_16 
REMARK    5  A    between atoms: C14_16  and  O2_19 
REMARK    6  A    between atoms: C17_22  and  C18_23 
REMARK    7  A    between atoms: C19_27  and  N6_28 
ROOT
HETATM    1  C8  UNL     1      30.729   6.734  47.048  1.00  0.00     0.159 A 
HETATM    2  C9  UNL     1      30.813   8.054  47.011  1.00  0.00     0.149 A 
HETATM    3  N1  UNL     1      29.733   8.828  47.519  1.00  0.00    -0.325 N 
HETATM    4  C10 UNL     1      28.603   8.122  48.048  1.00  0.00     0.167 A 
HETATM    5  C11 UNL     1      28.522   6.819  48.083  1.00  0.00     0.135 A 
HETATM    6  N2  UNL     1      29.610   6.042  47.571  1.00  0.00    -0.326 N 
HETATM    7  N3  UNL     1      27.649   9.079  48.497  1.00  0.00    -0.228 NA
HETATM    8  C17 UNL     1      28.143  10.265  48.268  1.00  0.00     0.094 A 
HETATM    9  C20 UNL     1      29.480  10.236  47.641  1.00  0.00     0.142 A 
HETATM   10  C21 UNL     1      29.436  10.902  46.305  1.00  0.00     0.039 C 
HETATM   11  H22 UNL     1      29.666   5.000  47.542  1.00  0.00     0.169 HD
ENDROOT
BRANCH   1  12
HETATM   12  O1  UNL     1      31.864   6.119  46.514  1.00  0.00    -0.329 OA
BRANCH  12  13
HETATM   13  C7  UNL     1      32.576   5.137  47.234  1.00  0.00     0.134 C 
HETATM   14  C2  UNL     1      34.042   5.317  46.949  1.00  0.00     0.011 C 
HETATM   15  C1  UNL     1      34.423   4.991  45.537  1.00  0.00     0.012 C 
HETATM   16  C3  UNL     1      34.794   4.397  47.874  1.00  0.00     0.007 C 
HETATM   17  C4  UNL     1      34.357   2.975  47.839  1.00  0.00     0.001 C 
HETATM   18  C5  UNL     1      32.874   2.758  47.742  1.00  0.00     0.002 C 
HETATM   19  C6  UNL     1      32.189   3.744  46.836  1.00  0.00     0.033 C 
ENDBRANCH  12  13
ENDBRANCH   1  12
BRANCH   5  20
HETATM   20  C12 UNL     1      27.406   6.079  48.603  1.00  0.00    -0.042 C 
HETATM   21  C13 UNL     1      26.474   5.464  49.056  1.00  0.00    -0.062 C 
BRANCH  21  22
HETATM   22  C14 UNL     1      25.325   4.732  49.624  1.00  0.00     0.114 C 
HETATM   23  C15 UNL     1      25.527   3.248  49.621  1.00  0.00     0.060 C 
HETATM   24  C16 UNL     1      24.088   5.034  48.777  1.00  0.00     0.060 C 
BRANCH  22  25
HETATM   25  O2  UNL     1      25.178   5.154  50.921  1.00  0.00    -0.378 OA
HETATM   26  H21 UNL     1      25.102   6.111  51.055  1.00  0.00     0.211 HD
ENDBRANCH  22  25
ENDBRANCH  21  22
ENDBRANCH   5  20
BRANCH   8  27
HETATM   27  C18 UNL     1      27.665  11.621  48.495  1.00  0.00     0.160 A 
HETATM   28  N4  UNL     1      28.382  12.506  49.208  1.00  0.00    -0.099 NA
HETATM   29  O3  UNL     1      27.731  13.645  49.262  1.00  0.00    -0.104 OA
HETATM   30  N5  UNL     1      26.618  13.556  48.618  1.00  0.00    -0.085 NA
HETATM   31  C19 UNL     1      26.512  12.306  48.109  1.00  0.00     0.184 A 
BRANCH  31  32
HETATM   32  N6  UNL     1      25.547  11.597  47.323  1.00  0.00    -0.380 N 
HETATM   33  H23 UNL     1      25.796  11.253  46.382  1.00  0.00     0.158 HD
HETATM   34  H24 UNL     1      24.591  11.418  47.677  1.00  0.00     0.158 HD
ENDBRANCH  31  32
ENDBRANCH   8  27
TORSDOF 7
ENDMDL
MODEL 8
REMARK VINA RESULT:      -7.8      2.783      6.720
REMARK  7 active torsions:
REMARK  status: ('A' for Active; 'I' for Inactive)
REMARK    1  A    between atoms: C7_7  and  O1_8 
REMARK    2  A    between atoms: O1_8  and  C8_9 
REMARK    3  A    between atoms: C11_13  and  C12_14 
REMARK    4  A    between atoms: C13_15  and  C14_16 
REMARK    5  A    between atoms: C14_16  and  O2_19 
REMARK    6  A    between atoms: C17_22  and  C18_23 
REMARK    7  A    between atoms: C19_27  and  N6_28 
ROOT
HETATM    1  C8  UNL     1      24.307   1.307  51.918  1.00  0.00     0.159 A 
HETATM    2  C9  UNL     1      22.996   1.165  51.791  1.00  0.00     0.149 A 
HETATM    3  N1  UNL     1      22.268   2.136  51.048  1.00  0.00    -0.325 N 
HETATM    4  C10 UNL     1      23.006   3.222  50.473  1.00  0.00     0.167 A 
HETATM    5  C11 UNL     1      24.298   3.359  50.600  1.00  0.00     0.135 A 
HETATM    6  N2  UNL     1      25.030   2.382  51.349  1.00  0.00    -0.326 N 
HETATM    7  N3  UNL     1      22.091   4.066  49.781  1.00  0.00    -0.228 NA
HETATM    8  C17 UNL     1      20.900   3.549  49.914  1.00  0.00     0.094 A 
HETATM    9  C20 UNL     1      20.883   2.304  50.710  1.00  0.00     0.142 A 
HETATM   10  C21 UNL     1      20.039   2.485  51.929  1.00  0.00     0.039 C 
HETATM   11  H22 UNL     1      26.059   2.379  51.521  1.00  0.00     0.169 HD
ENDROOT
BRANCH   1  12
HETATM   12  O1  UNL     1      24.876   0.278  52.673  1.00  0.00    -0.329 OA
BRANCH  12  13
HETATM   13  C7  UNL     1      26.169   0.399  53.224  1.00  0.00     0.134 C 
HETATM   14  C2  UNL     1      27.102  -0.466  52.423  1.00  0.00     0.011 C 
HETATM   15  C1  UNL     1      26.844  -1.933  52.581  1.00  0.00     0.012 C 
HETATM   16  C3  UNL     1      28.501  -0.172  52.897  1.00  0.00     0.007 C 
HETATM   17  C4  UNL     1      28.706  -0.287  54.367  1.00  0.00     0.001 C 
HETATM   18  C5  UNL     1      27.588   0.245  55.216  1.00  0.00     0.002 C 
HETATM   19  C6  UNL     1      26.224  -0.049  54.654  1.00  0.00     0.033 C 
ENDBRANCH  12  13
ENDBRANCH   1  12
BRANCH   5  20
HETATM   20  C12 UNL     1      25.069   4.434  50.040  1.00  0.00    -0.042 C 
HETATM   21  C13 UNL     1      25.729   5.326  49.569  1.00  0.00    -0.062 C 
BRANCH  21  22
HETATM   22  C14 UNL     1      26.547   6.401  48.975  1.00  0.00     0.114 C 
HETATM   23  C15 UNL     1      25.839   7.123  47.870  1.00  0.00     0.060 C 
HETATM   24  C16 UNL     1      27.815   5.781  48.387  1.00  0.00     0.060 C 
BRANCH  22  25
HETATM   25  O2  UNL     1      26.827   7.296  49.977  1.00  0.00    -0.378 OA
HETATM   26  H21 UNL     1      27.651   7.799  49.885  1.00  0.00     0.211 HD
ENDBRANCH  22  25
ENDBRANCH  21  22
ENDBRANCH   5  20
BRANCH   8  27
HETATM   27  C18 UNL     1      19.575   3.931  49.450  1.00  0.00     0.160 A 
HETATM   28  N4  UNL     1      18.853   4.868  50.089  1.00  0.00    -0.099 NA
HETATM   29  O3  UNL     1      17.705   5.023  49.471  1.00  0.00    -0.104 OA
HETATM   30  N5  UNL     1      17.633   4.234  48.454  1.00  0.00    -0.085 NA
HETATM   31  C19 UNL     1      18.779   3.517  48.382  1.00  0.00     0.184 A 
BRANCH  31  32
HETATM   32  N6  UNL     1      19.303   2.507  47.512  1.00  0.00    -0.380 N 
HETATM   33  H23 UNL     1      20.282   2.196  47.609  1.00  0.00     0.158 HD
HETATM   34  H24 UNL     1      18.717   2.072  46.777  1.00  0.00     0.158 HD
ENDBRANCH  31  32
ENDBRANCH   8  27
TORSDOF 7
ENDMDL
MODEL 9
REMARK VINA RESULT:      -7.8      2.963      7.201
REMARK  7 active torsions:
REMARK  status: ('A' for Active; 'I' for Inactive)
REMARK    1  A    between atoms: C7_7  and  O1_8 
REMARK    2  A    between atoms: O1_8  and  C8_9 
REMARK    3  A    between atoms: C11_13  and  C12_14 
REMARK    4  A    between atoms: C13_15  and  C14_16 
REMARK    5  A    between atoms: C14_16  and  O2_19 
REMARK    6  A    between atoms: C17_22  and  C18_23 
REMARK    7  A    between atoms: C19_27  and  N6_28 
ROOT
HETATM    1  C8  UNL     1      21.426   3.722  51.833  1.00  0.00     0.159 A 
HETATM    2  C9  UNL     1      21.772   2.697  52.597  1.00  0.00     0.149 A 
HETATM    3  N1  UNL     1      23.148   2.354  52.707  1.00  0.00    -0.325 N 
HETATM    4  C10 UNL     1      24.090   3.149  51.975  1.00  0.00     0.167 A 
HETATM    5  C11 UNL     1      23.747   4.158  51.223  1.00  0.00     0.135 A 
HETATM    6  N2  UNL     1      22.361   4.502  51.113  1.00  0.00    -0.326 N 
HETATM    7  N3  UNL     1      25.396   2.637  52.226  1.00  0.00    -0.228 NA
HETATM    8  C17 UNL     1      25.272   1.622  53.037  1.00  0.00     0.094 A 
HETATM    9  C20 UNL     1      23.873   1.340  53.420  1.00  0.00     0.142 A 
HETATM   10  C21 UNL     1      23.483  -0.030  52.970  1.00  0.00     0.039 C 
HETATM   11  H22 UNL     1      21.961   5.283  50.546  1.00  0.00     0.169 HD
ENDROOT
BRANCH   1  12
HETATM   12  O1  UNL     1      20.045   3.931  51.828  1.00  0.00    -0.329 OA
BRANCH  12  13
HETATM   13  C7  UNL     1      19.181   3.120  51.061  1.00  0.00     0.134 C 
HETATM   14  C2  UNL     1      19.231   3.600  49.636  1.00  0.00     0.011 C 
HETATM   15  C1  UNL     1      18.626   4.956  49.439  1.00  0.00     0.012 C 
HETATM   16  C3  UNL     1      18.465   2.607  48.803  1.00  0.00     0.007 C 
HETATM   17  C4  UNL     1      17.086   2.316  49.279  1.00  0.00     0.001 C 
HETATM   18  C5  UNL     1      16.929   2.200  50.768  1.00  0.00     0.002 C 
HETATM   19  C6  UNL     1      17.760   3.195  51.532  1.00  0.00     0.033 C 
ENDBRANCH  12  13
ENDBRANCH   1  12
BRANCH   5  20
HETATM   20  C12 UNL     1      24.662   4.975  50.475  1.00  0.00    -0.042 C 
HETATM   21  C13 UNL     1      25.418   5.672  49.846  1.00  0.00    -0.062 C 
BRANCH  21  22
HETATM   22  C14 UNL     1      26.335   6.545  49.088  1.00  0.00     0.114 C 
HETATM   23  C15 UNL     1      25.654   7.261  47.963  1.00  0.00     0.060 C 
HETATM   24  C16 UNL     1      27.444   5.682  48.486  1.00  0.00     0.060 C 
BRANCH  22  25
HETATM   25  O2  UNL     1      26.827   7.476  49.969  1.00  0.00    -0.378 OA
HETATM   26  H21 UNL     1      27.668   7.893  49.726  1.00  0.00     0.211 HD
ENDBRANCH  22  25
ENDBRANCH  21  22
ENDBRANCH   5  20
BRANCH   8  27
HETATM   27  C18 UNL     1      26.214   0.699  53.652  1.00  0.00     0.160 A 
HETATM   28  N4  UNL     1      26.518   0.778  54.960  1.00  0.00    -0.099 NA
HETATM   29  O3  UNL     1      27.385  -0.164  55.257  1.00  0.00    -0.104 OA
HETATM   30  N5  UNL     1      27.667  -0.860  54.211  1.00  0.00    -0.085 NA
HETATM   31  C19 UNL     1      26.963  -0.371  53.163  1.00  0.00     0.184 A 
BRANCH  31  32
HETATM   32  N6  UNL     1      26.837  -0.693  51.773  1.00  0.00    -0.380 N 
HETATM   33  H23 UNL     1      26.410  -0.016  51.121  1.00  0.00     0.158 HD
HETATM   34  H24 UNL     1      27.166  -1.600  51.398  1.00  0.00     0.158 HD
ENDBRANCH  31  32
ENDBRANCH   8  27
TORSDOF 7
ENDMDL
