MODEL 1
REMARK VINA RESULT:      -7.3      0.000      0.000
REMARK  11 active torsions:
REMARK  status: ('A' for Active; 'I' for Inactive)
REMARK    1  A    between atoms: O1_2  and  C2_3 
REMARK    2  A    between atoms: C2_3  and  C3_4 
REMARK    3  A    between atoms: C3_4  and  O2_5 
REMARK    4  A    between atoms: O2_5  and  C4_6 
REMARK    5  A    between atoms: C4_6  and  C5_7 
REMARK    6  A    between atoms: C9_11  and  N1_12 
REMARK    7  A    between atoms: N1_12  and  C10_13 
REMARK    8  A    between atoms: C17_20  and  O3_21 
REMARK    9  A    between atoms: O3_21  and  C18_22 
REMARK   10  A    between atoms: C18_22  and  C19_23 
REMARK   11  A    between atoms: C19_23  and  O4_24 
ROOT
HETATM    1  C5  UNL     1      24.970  -0.208  53.730  1.00  0.00     0.002 A 
HETATM    2  C6  UNL     1      23.882  -0.899  54.210  1.00  0.00     0.023 A 
HETATM    3  C7  UNL     1      22.584  -0.514  53.985  1.00  0.00    -0.009 A 
HETATM    4  C8  UNL     1      22.340   0.623  53.244  1.00  0.00     0.095 A 
HETATM    5  C9  UNL     1      23.412   1.348  52.742  1.00  0.00     0.096 A 
HETATM    6  C17 UNL     1      24.733   0.949  52.975  1.00  0.00     0.106 A 
HETATM    7  N2  UNL     1      20.970   0.954  53.057  1.00  0.00    -0.241 NA
HETATM    8  C21 UNL     1      20.031   0.249  53.541  1.00  0.00     0.203 A 
HETATM    9  N3  UNL     1      20.254  -0.910  54.299  1.00  0.00    -0.380 N 
HETATM   10  C22 UNL     1      21.561  -1.418  54.601  1.00  0.00     0.161 A 
HETATM   11  H27 UNL     1      19.525  -1.525  54.721  1.00  0.00     0.160 HD
ENDROOT
BRANCH   5  12
HETATM   12  N1  UNL     1      22.978   2.483  52.003  1.00  0.00    -0.352 N 
HETATM   13  H11 UNL     1      22.738   3.293  52.646  1.00  0.00     0.166 HD
BRANCH  12  14
HETATM   14  C10 UNL     1      22.823   2.687  50.596  1.00  0.00     0.033 A 
HETATM   15  C11 UNL     1      22.333   1.702  49.766  1.00  0.00     0.029 A 
HETATM   16  C12 UNL     1      22.230   2.033  48.431  1.00  0.00     0.003 A 
HETATM   17  C13 UNL     1      22.581   3.262  47.902  1.00  0.00     0.007 A 
HETATM   18  C14 UNL     1      23.070   4.232  48.755  1.00  0.00    -0.060 A 
HETATM   19  C15 UNL     1      23.487   5.598  48.318  1.00  0.00     0.048 C 
HETATM   20  C16 UNL     1      23.186   3.927  50.112  1.00  0.00     0.036 A 
ENDBRANCH  12  14
ENDBRANCH   5  12
BRANCH   6  21
HETATM   21  O3  UNL     1      25.609   1.825  52.379  1.00  0.00    -0.346 OA
BRANCH  21  22
HETATM   22  C18 UNL     1      26.296   1.684  51.183  1.00  0.00     0.201 C 
BRANCH  22  23
HETATM   23  C19 UNL     1      26.620   3.109  50.707  1.00  0.00     0.193 C 
BRANCH  23  24
HETATM   24  O4  UNL     1      26.612   3.218  49.337  1.00  0.00    -0.394 OA
HETATM   25  C20 UNL     1      27.052   4.480  48.989  1.00  0.00     0.201 C 
ENDBRANCH  23  24
ENDBRANCH  22  23
ENDBRANCH  21  22
ENDBRANCH   6  21
BRANCH   1  26
HETATM   26  C4  UNL     1      26.439  -0.435  53.853  1.00  0.00     0.209 C 
BRANCH  26  27
HETATM   27  O2  UNL     1      26.998   0.257  54.881  1.00  0.00    -0.384 OA
BRANCH  27  28
HETATM   28  C3  UNL     1      28.326   0.467  54.931  1.00  0.00     0.194 C 
BRANCH  28  29
HETATM   29  C2  UNL     1      29.024   0.792  53.636  1.00  0.00     0.193 C 
BRANCH  29  30
HETATM   30  O1  UNL     1      30.162   0.039  53.510  1.00  0.00    -0.394 OA
HETATM   31  C1  UNL     1      29.894  -1.339  53.522  1.00  0.00     0.201 C 
ENDBRANCH  29  30
ENDBRANCH  28  29
ENDBRANCH  27  28
ENDBRANCH  26  27
ENDBRANCH   1  26
TORSDOF 11
ENDMDL
MODEL 2
REMARK VINA RESULT:      -6.9      2.277      5.934
REMARK  11 active torsions:
REMARK  status: ('A' for Active; 'I' for Inactive)
REMARK    1  A    between atoms: O1_2  and  C2_3 
REMARK    2  A    between atoms: C2_3  and  C3_4 
REMARK    3  A    between atoms: C3_4  and  O2_5 
REMARK    4  A    between atoms: O2_5  and  C4_6 
REMARK    5  A    between atoms: C4_6  and  C5_7 
REMARK    6  A    between atoms: C9_11  and  N1_12 
REMARK    7  A    between atoms: N1_12  and  C10_13 
REMARK    8  A    between atoms: C17_20  and  O3_21 
REMARK    9  A    between atoms: O3_21  and  C18_22 
REMARK   10  A    between atoms: C18_22  and  C19_23 
REMARK   11  A    between atoms: C19_23  and  O4_24 
ROOT
HETATM    1  C5  UNL     1      22.165   2.464  51.538  1.00  0.00     0.002 A 
HETATM    2  C6  UNL     1      21.402   1.874  52.518  1.00  0.00     0.023 A 
HETATM    3  C7  UNL     1      21.856   0.857  53.320  1.00  0.00    -0.009 A 
HETATM    4  C8  UNL     1      23.141   0.389  53.145  1.00  0.00     0.095 A 
HETATM    5  C9  UNL     1      23.943   0.958  52.165  1.00  0.00     0.096 A 
HETATM    6  C17 UNL     1      23.472   1.995  51.352  1.00  0.00     0.106 A 
HETATM    7  N2  UNL     1      23.536  -0.666  54.013  1.00  0.00    -0.241 NA
HETATM    8  C21 UNL     1      22.755  -1.146  54.893  1.00  0.00     0.203 A 
HETATM    9  N3  UNL     1      21.443  -0.688  55.088  1.00  0.00    -0.380 N 
HETATM   10  C22 UNL     1      20.853   0.369  54.319  1.00  0.00     0.161 A 
HETATM   11  H27 UNL     1      20.761  -1.044  55.791  1.00  0.00     0.160 HD
ENDROOT
BRANCH   5  12
HETATM   12  N1  UNL     1      25.232   0.357  52.127  1.00  0.00    -0.352 N 
HETATM   13  H11 UNL     1      25.233  -0.515  51.522  1.00  0.00     0.166 HD
BRANCH  12  14
HETATM   14  C10 UNL     1      26.463   0.732  52.751  1.00  0.00     0.033 A 
HETATM   15  C11 UNL     1      26.685   2.009  53.220  1.00  0.00     0.029 A 
HETATM   16  C12 UNL     1      27.913   2.233  53.804  1.00  0.00     0.003 A 
HETATM   17  C13 UNL     1      28.901   1.273  53.940  1.00  0.00     0.007 A 
HETATM   18  C14 UNL     1      28.654   0.001  53.462  1.00  0.00    -0.060 A 
HETATM   19  C15 UNL     1      29.629  -1.128  53.542  1.00  0.00     0.048 C 
HETATM   20  C16 UNL     1      27.419  -0.257  52.865  1.00  0.00     0.036 A 
ENDBRANCH  12  14
ENDBRANCH   5  12
BRANCH   6  21
HETATM   21  O3  UNL     1      24.447   2.386  50.466  1.00  0.00    -0.346 OA
BRANCH  21  22
HETATM   22  C18 UNL     1      25.246   3.519  50.501  1.00  0.00     0.201 C 
BRANCH  22  23
HETATM   23  C19 UNL     1      26.453   3.218  49.598  1.00  0.00     0.193 C 
BRANCH  23  24
HETATM   24  O4  UNL     1      27.374   4.237  49.597  1.00  0.00    -0.394 OA
HETATM   25  C20 UNL     1      26.909   5.256  48.789  1.00  0.00     0.201 C 
ENDBRANCH  23  24
ENDBRANCH  22  23
ENDBRANCH  21  22
ENDBRANCH   6  21
BRANCH   1  26
HETATM   26  C4  UNL     1      21.880   3.558  50.565  1.00  0.00     0.209 C 
BRANCH  26  27
HETATM   27  O2  UNL     1      21.438   4.696  51.163  1.00  0.00    -0.384 OA
BRANCH  27  28
HETATM   28  C3  UNL     1      22.230   5.780  51.258  1.00  0.00     0.194 C 
BRANCH  28  29
HETATM   29  C2  UNL     1      22.608   6.476  49.977  1.00  0.00     0.193 C 
BRANCH  29  30
HETATM   30  O1  UNL     1      23.933   6.826  50.003  1.00  0.00    -0.394 OA
HETATM   31  C1  UNL     1      24.139   8.094  50.569  1.00  0.00     0.201 C 
ENDBRANCH  29  30
ENDBRANCH  28  29
ENDBRANCH  27  28
ENDBRANCH  26  27
ENDBRANCH   1  26
TORSDOF 11
ENDMDL
MODEL 3
REMARK VINA RESULT:      -6.8      3.170      7.960
REMARK  11 active torsions:
REMARK  status: ('A' for Active; 'I' for Inactive)
REMARK    1  A    between atoms: O1_2  and  C2_3 
REMARK    2  A    between atoms: C2_3  and  C3_4 
REMARK    3  A    between atoms: C3_4  and  O2_5 
REMARK    4  A    between atoms: O2_5  and  C4_6 
REMARK    5  A    between atoms: C4_6  and  C5_7 
REMARK    6  A    between atoms: C9_11  and  N1_12 
REMARK    7  A    between atoms: N1_12  and  C10_13 
REMARK    8  A    between atoms: C17_20  and  O3_21 
REMARK    9  A    between atoms: O3_21  and  C18_22 
REMARK   10  A    between atoms: C18_22  and  C19_23 
REMARK   11  A    between atoms: C19_23  and  O4_24 
ROOT
HETATM    1  C5  UNL     1      23.551   4.725  51.453  1.00  0.00     0.002 A 
HETATM    2  C6  UNL     1      24.183   5.655  50.660  1.00  0.00     0.023 A 
HETATM    3  C7  UNL     1      25.343   5.398  49.972  1.00  0.00    -0.009 A 
HETATM    4  C8  UNL     1      25.918   4.149  50.072  1.00  0.00     0.095 A 
HETATM    5  C9  UNL     1      25.311   3.183  50.862  1.00  0.00     0.096 A 
HETATM    6  C17 UNL     1      24.128   3.453  51.560  1.00  0.00     0.106 A 
HETATM    7  N2  UNL     1      27.118   3.962  49.331  1.00  0.00    -0.241 NA
HETATM    8  C21 UNL     1      27.626   4.886  48.623  1.00  0.00     0.203 A 
HETATM    9  N3  UNL     1      27.061   6.165  48.508  1.00  0.00    -0.380 N 
HETATM   10  C22 UNL     1      25.851   6.557  49.172  1.00  0.00     0.161 A 
HETATM   11  H27 UNL     1      27.433   6.960  47.945  1.00  0.00     0.160 HD
ENDROOT
BRANCH   5  12
HETATM   12  N1  UNL     1      26.036   1.959  50.846  1.00  0.00    -0.352 N 
HETATM   13  H11 UNL     1      25.964   1.481  49.901  1.00  0.00     0.166 HD
BRANCH  12  14
HETATM   14  C10 UNL     1      26.807   1.310  51.860  1.00  0.00     0.033 A 
HETATM   15  C11 UNL     1      27.545   2.019  52.784  1.00  0.00     0.029 A 
HETATM   16  C12 UNL     1      28.237   1.269  53.710  1.00  0.00     0.003 A 
HETATM   17  C13 UNL     1      28.230  -0.115  53.758  1.00  0.00     0.007 A 
HETATM   18  C14 UNL     1      27.483  -0.802  52.821  1.00  0.00    -0.060 A 
HETATM   19  C15 UNL     1      27.387  -2.292  52.757  1.00  0.00     0.048 C 
HETATM   20  C16 UNL     1      26.771  -0.070  51.870  1.00  0.00     0.036 A 
ENDBRANCH  12  14
ENDBRANCH   5  12
BRANCH   6  21
HETATM   21  O3  UNL     1      23.727   2.344  52.266  1.00  0.00    -0.346 OA
BRANCH  21  22
HETATM   22  C18 UNL     1      22.821   1.362  51.896  1.00  0.00     0.201 C 
BRANCH  22  23
HETATM   23  C19 UNL     1      23.197   0.109  52.702  1.00  0.00     0.193 C 
BRANCH  23  24
HETATM   24  O4  UNL     1      24.026   0.396  53.760  1.00  0.00    -0.394 OA
HETATM   25  C20 UNL     1      24.210  -0.752  54.506  1.00  0.00     0.201 C 
ENDBRANCH  23  24
ENDBRANCH  22  23
ENDBRANCH  21  22
ENDBRANCH   6  21
BRANCH   1  26
HETATM   26  C4  UNL     1      22.311   4.786  52.278  1.00  0.00     0.209 C 
BRANCH  26  27
HETATM   27  O2  UNL     1      21.176   4.688  51.537  1.00  0.00    -0.384 OA
BRANCH  27  28
HETATM   28  C3  UNL     1      20.204   3.818  51.872  1.00  0.00     0.194 C 
BRANCH  28  29
HETATM   29  C2  UNL     1      18.880   3.956  51.168  1.00  0.00     0.193 C 
BRANCH  29  30
HETATM   30  O1  UNL     1      17.869   3.485  51.966  1.00  0.00    -0.394 OA
HETATM   31  C1  UNL     1      16.648   4.132  51.719  1.00  0.00     0.201 C 
ENDBRANCH  29  30
ENDBRANCH  28  29
ENDBRANCH  27  28
ENDBRANCH  26  27
ENDBRANCH   1  26
TORSDOF 11
ENDMDL
MODEL 4
REMARK VINA RESULT:      -6.6      2.585      6.511
REMARK  11 active torsions:
REMARK  status: ('A' for Active; 'I' for Inactive)
REMARK    1  A    between atoms: O1_2  and  C2_3 
REMARK    2  A    between atoms: C2_3  and  C3_4 
REMARK    3  A    between atoms: C3_4  and  O2_5 
REMARK    4  A    between atoms: O2_5  and  C4_6 
REMARK    5  A    between atoms: C4_6  and  C5_7 
REMARK    6  A    between atoms: C9_11  and  N1_12 
REMARK    7  A    between atoms: N1_12  and  C10_13 
REMARK    8  A    between atoms: C17_20  and  O3_21 
REMARK    9  A    between atoms: O3_21  and  C18_22 
REMARK   10  A    between atoms: C18_22  and  C19_23 
REMARK   11  A    between atoms: C19_23  and  O4_24 
ROOT
HETATM    1  C5  UNL     1      22.343   2.349  51.712  1.00  0.00     0.002 A 
HETATM    2  C6  UNL     1      21.731   1.648  52.725  1.00  0.00     0.023 A 
HETATM    3  C7  UNL     1      22.356   0.661  53.445  1.00  0.00    -0.009 A 
HETATM    4  C8  UNL     1      23.663   0.340  53.148  1.00  0.00     0.095 A 
HETATM    5  C9  UNL     1      24.316   1.024  52.132  1.00  0.00     0.096 A 
HETATM    6  C17 UNL     1      23.672   2.031  51.403  1.00  0.00     0.106 A 
HETATM    7  N2  UNL     1      24.239  -0.694  53.937  1.00  0.00    -0.241 NA
HETATM    8  C21 UNL     1      23.590  -1.284  54.856  1.00  0.00     0.203 A 
HETATM    9  N3  UNL     1      22.258  -0.977  55.175  1.00  0.00    -0.380 N 
HETATM   10  C22 UNL     1      21.498   0.035  54.501  1.00  0.00     0.161 A 
HETATM   11  H27 UNL     1      21.678  -1.427  55.915  1.00  0.00     0.160 HD
ENDROOT
BRANCH   5  12
HETATM   12  N1  UNL     1      25.653   0.567  51.965  1.00  0.00    -0.352 N 
HETATM   13  H11 UNL     1      25.729  -0.114  51.155  1.00  0.00     0.166 HD
BRANCH  12  14
HETATM   14  C10 UNL     1      26.848   0.872  52.689  1.00  0.00     0.033 A 
HETATM   15  C11 UNL     1      27.103   2.135  53.179  1.00  0.00     0.029 A 
HETATM   16  C12 UNL     1      28.289   2.290  53.862  1.00  0.00     0.003 A 
HETATM   17  C13 UNL     1      29.207   1.276  54.075  1.00  0.00     0.007 A 
HETATM   18  C14 UNL     1      28.928   0.019  53.574  1.00  0.00    -0.060 A 
HETATM   19  C15 UNL     1      29.828  -1.163  53.730  1.00  0.00     0.048 C 
HETATM   20  C16 UNL     1      27.733  -0.169  52.877  1.00  0.00     0.036 A 
ENDBRANCH  12  14
ENDBRANCH   5  12
BRANCH   6  21
HETATM   21  O3  UNL     1      24.522   2.553  50.458  1.00  0.00    -0.346 OA
BRANCH  21  22
HETATM   22  C18 UNL     1      25.293   3.704  50.528  1.00  0.00     0.201 C 
BRANCH  22  23
HETATM   23  C19 UNL     1      26.596   3.390  49.776  1.00  0.00     0.193 C 
BRANCH  23  24
HETATM   24  O4  UNL     1      26.990   4.421  48.957  1.00  0.00    -0.394 OA
HETATM   25  C20 UNL     1      26.170   5.508  49.186  1.00  0.00     0.201 C 
ENDBRANCH  23  24
ENDBRANCH  22  23
ENDBRANCH  21  22
ENDBRANCH   6  21
BRANCH   1  26
HETATM   26  C4  UNL     1      21.864   3.437  50.812  1.00  0.00     0.209 C 
BRANCH  26  27
HETATM   27  O2  UNL     1      20.949   4.250  51.404  1.00  0.00    -0.384 OA
BRANCH  27  28
HETATM   28  C3  UNL     1      19.654   4.212  51.042  1.00  0.00     0.194 C 
BRANCH  28  29
HETATM   29  C2  UNL     1      19.291   4.806  49.706  1.00  0.00     0.193 C 
BRANCH  29  30
HETATM   30  O1  UNL     1      19.511   6.159  49.715  1.00  0.00    -0.394 OA
HETATM   31  C1  UNL     1      20.497   6.545  48.793  1.00  0.00     0.201 C 
ENDBRANCH  29  30
ENDBRANCH  28  29
ENDBRANCH  27  28
ENDBRANCH  26  27
ENDBRANCH   1  26
TORSDOF 11
ENDMDL
MODEL 5
REMARK VINA RESULT:      -6.6      2.677      5.608
REMARK  11 active torsions:
REMARK  status: ('A' for Active; 'I' for Inactive)
REMARK    1  A    between atoms: O1_2  and  C2_3 
REMARK    2  A    between atoms: C2_3  and  C3_4 
REMARK    3  A    between atoms: C3_4  and  O2_5 
REMARK    4  A    between atoms: O2_5  and  C4_6 
REMARK    5  A    between atoms: C4_6  and  C5_7 
REMARK    6  A    between atoms: C9_11  and  N1_12 
REMARK    7  A    between atoms: N1_12  and  C10_13 
REMARK    8  A    between atoms: C17_20  and  O3_21 
REMARK    9  A    between atoms: O3_21  and  C18_22 
REMARK   10  A    between atoms: C18_22  and  C19_23 
REMARK   11  A    between atoms: C19_23  and  O4_24 
ROOT
HETATM    1  C5  UNL     1      25.758   2.725  50.758  1.00  0.00     0.002 A 
HETATM    2  C6  UNL     1      26.574   1.721  51.224  1.00  0.00     0.023 A 
HETATM    3  C7  UNL     1      26.210   0.854  52.224  1.00  0.00    -0.009 A 
HETATM    4  C8  UNL     1      24.965   0.985  52.804  1.00  0.00     0.095 A 
HETATM    5  C9  UNL     1      24.113   1.986  52.362  1.00  0.00     0.096 A 
HETATM    6  C17 UNL     1      24.491   2.865  51.340  1.00  0.00     0.106 A 
HETATM    7  N2  UNL     1      24.664   0.050  53.833  1.00  0.00    -0.241 NA
HETATM    8  C21 UNL     1      25.488  -0.846  54.195  1.00  0.00     0.203 A 
HETATM    9  N3  UNL     1      26.760  -0.998  53.621  1.00  0.00    -0.380 N 
HETATM   10  C22 UNL     1      27.256  -0.160  52.568  1.00  0.00     0.161 A 
HETATM   11  H27 UNL     1      27.475  -1.712  53.878  1.00  0.00     0.160 HD
ENDROOT
BRANCH   5  12
HETATM   12  N1  UNL     1      22.877   1.972  53.066  1.00  0.00    -0.352 N 
HETATM   13  H11 UNL     1      22.900   2.631  53.898  1.00  0.00     0.166 HD
BRANCH  12  14
HETATM   14  C10 UNL     1      21.670   1.241  52.833  1.00  0.00     0.033 A 
HETATM   15  C11 UNL     1      21.132   0.399  53.782  1.00  0.00     0.029 A 
HETATM   16  C12 UNL     1      19.962  -0.240  53.430  1.00  0.00     0.003 A 
HETATM   17  C13 UNL     1      19.322  -0.083  52.213  1.00  0.00     0.007 A 
HETATM   18  C14 UNL     1      19.881   0.767  51.279  1.00  0.00    -0.060 A 
HETATM   19  C15 UNL     1      19.297   1.027  49.929  1.00  0.00     0.048 C 
HETATM   20  C16 UNL     1      21.066   1.428  51.607  1.00  0.00     0.036 A 
ENDBRANCH  12  14
ENDBRANCH   5  12
BRANCH   6  21
HETATM   21  O3  UNL     1      23.481   3.761  51.083  1.00  0.00    -0.346 OA
BRANCH  21  22
HETATM   22  C18 UNL     1      23.203   4.960  51.721  1.00  0.00     0.201 C 
BRANCH  22  23
HETATM   23  C19 UNL     1      21.778   5.349  51.296  1.00  0.00     0.193 C 
BRANCH  23  24
HETATM   24  O4  UNL     1      21.597   6.711  51.256  1.00  0.00    -0.394 OA
HETATM   25  C20 UNL     1      22.659   7.281  50.582  1.00  0.00     0.201 C 
ENDBRANCH  23  24
ENDBRANCH  22  23
ENDBRANCH  21  22
ENDBRANCH   6  21
BRANCH   1  26
HETATM   26  C4  UNL     1      25.945   3.764  49.705  1.00  0.00     0.209 C 
BRANCH  26  27
HETATM   27  O2  UNL     1      27.246   3.928  49.347  1.00  0.00    -0.384 OA
BRANCH  27  28
HETATM   28  C3  UNL     1      27.643   5.019  48.666  1.00  0.00     0.194 C 
BRANCH  28  29
HETATM   29  C2  UNL     1      26.667   6.161  48.560  1.00  0.00     0.193 C 
BRANCH  29  30
HETATM   30  O1  UNL     1      27.247   7.320  49.009  1.00  0.00    -0.394 OA
HETATM   31  C1  UNL     1      26.442   7.992  49.943  1.00  0.00     0.201 C 
ENDBRANCH  29  30
ENDBRANCH  28  29
ENDBRANCH  27  28
ENDBRANCH  26  27
ENDBRANCH   1  26
TORSDOF 11
ENDMDL
MODEL 6
REMARK VINA RESULT:      -6.6      1.857      5.113
REMARK  11 active torsions:
REMARK  status: ('A' for Active; 'I' for Inactive)
REMARK    1  A    between atoms: O1_2  and  C2_3 
REMARK    2  A    between atoms: C2_3  and  C3_4 
REMARK    3  A    between atoms: C3_4  and  O2_5 
REMARK    4  A    between atoms: O2_5  and  C4_6 
REMARK    5  A    between atoms: C4_6  and  C5_7 
REMARK    6  A    between atoms: C9_11  and  N1_12 
REMARK    7  A    between atoms: N1_12  and  C10_13 
REMARK    8  A    between atoms: C17_20  and  O3_21 
REMARK    9  A    between atoms: O3_21  and  C18_22 
REMARK   10  A    between atoms: C18_22  and  C19_23 
REMARK   11  A    between atoms: C19_23  and  O4_24 
ROOT
HETATM    1  C5  UNL     1      25.698   2.293  51.441  1.00  0.00     0.002 A 
HETATM    2  C6  UNL     1      25.535   3.162  50.388  1.00  0.00     0.023 A 
HETATM    3  C7  UNL     1      24.349   3.793  50.105  1.00  0.00    -0.009 A 
HETATM    4  C8  UNL     1      23.254   3.552  50.908  1.00  0.00     0.095 A 
HETATM    5  C9  UNL     1      23.378   2.680  51.981  1.00  0.00     0.096 A 
HETATM    6  C17 UNL     1      24.591   2.041  52.263  1.00  0.00     0.106 A 
HETATM    7  N2  UNL     1      22.064   4.242  50.549  1.00  0.00    -0.241 NA
HETATM    8  C21 UNL     1      22.012   5.029  49.554  1.00  0.00     0.203 A 
HETATM    9  N3  UNL     1      23.112   5.289  48.722  1.00  0.00    -0.380 N 
HETATM   10  C22 UNL     1      24.404   4.696  48.912  1.00  0.00     0.161 A 
HETATM   11  H27 UNL     1      23.127   5.922  47.894  1.00  0.00     0.160 HD
ENDROOT
BRANCH   5  12
HETATM   12  N1  UNL     1      22.156   2.553  52.698  1.00  0.00    -0.352 N 
HETATM   13  H11 UNL     1      21.993   3.388  53.333  1.00  0.00     0.166 HD
BRANCH  12  14
HETATM   14  C10 UNL     1      21.165   1.522  52.693  1.00  0.00     0.033 A 
HETATM   15  C11 UNL     1      21.043   0.622  53.730  1.00  0.00     0.029 A 
HETATM   16  C12 UNL     1      20.042  -0.317  53.599  1.00  0.00     0.003 A 
HETATM   17  C13 UNL     1      19.183  -0.398  52.517  1.00  0.00     0.007 A 
HETATM   18  C14 UNL     1      19.326   0.515  51.492  1.00  0.00    -0.060 A 
HETATM   19  C15 UNL     1      18.469   0.542  50.268  1.00  0.00     0.048 C 
HETATM   20  C16 UNL     1      20.331   1.479  51.595  1.00  0.00     0.036 A 
ENDBRANCH  12  14
ENDBRANCH   5  12
BRANCH   6  21
HETATM   21  O3  UNL     1      24.460   1.234  53.367  1.00  0.00    -0.346 OA
BRANCH  21  22
HETATM   22  C18 UNL     1      24.546  -0.147  53.446  1.00  0.00     0.201 C 
BRANCH  22  23
HETATM   23  C19 UNL     1      25.390  -0.451  54.694  1.00  0.00     0.193 C 
BRANCH  23  24
HETATM   24  O4  UNL     1      24.909  -1.525  55.403  1.00  0.00    -0.394 OA
HETATM   25  C20 UNL     1      23.549  -1.364  55.586  1.00  0.00     0.201 C 
ENDBRANCH  23  24
ENDBRANCH  22  23
ENDBRANCH  21  22
ENDBRANCH   6  21
BRANCH   1  26
HETATM   26  C4  UNL     1      26.870   1.507  51.922  1.00  0.00     0.209 C 
BRANCH  26  27
HETATM   27  O2  UNL     1      27.931   2.288  52.257  1.00  0.00    -0.384 OA
BRANCH  27  28
HETATM   28  C3  UNL     1      28.362   2.361  53.530  1.00  0.00     0.194 C 
BRANCH  28  29
HETATM   29  C2  UNL     1      28.768   1.074  54.197  1.00  0.00     0.193 C 
BRANCH  29  30
HETATM   30  O1  UNL     1      29.794   0.485  53.505  1.00  0.00    -0.394 OA
HETATM   31  C1  UNL     1      29.773  -0.915  53.607  1.00  0.00     0.201 C 
ENDBRANCH  29  30
ENDBRANCH  28  29
ENDBRANCH  27  28
ENDBRANCH  26  27
ENDBRANCH   1  26
TORSDOF 11
ENDMDL
MODEL 7
REMARK VINA RESULT:      -6.5      2.847      7.624
REMARK  11 active torsions:
REMARK  status: ('A' for Active; 'I' for Inactive)
REMARK    1  A    between atoms: O1_2  and  C2_3 
REMARK    2  A    between atoms: C2_3  and  C3_4 
REMARK    3  A    between atoms: C3_4  and  O2_5 
REMARK    4  A    between atoms: O2_5  and  C4_6 
REMARK    5  A    between atoms: C4_6  and  C5_7 
REMARK    6  A    between atoms: C9_11  and  N1_12 
REMARK    7  A    between atoms: N1_12  and  C10_13 
REMARK    8  A    between atoms: C17_20  and  O3_21 
REMARK    9  A    between atoms: O3_21  and  C18_22 
REMARK   10  A    between atoms: C18_22  and  C19_23 
REMARK   11  A    between atoms: C19_23  and  O4_24 
ROOT
HETATM    1  C5  UNL     1      22.479   2.696  52.097  1.00  0.00     0.002 A 
HETATM    2  C6  UNL     1      22.826   3.659  51.179  1.00  0.00     0.023 A 
HETATM    3  C7  UNL     1      24.053   3.712  50.567  1.00  0.00    -0.009 A 
HETATM    4  C8  UNL     1      24.999   2.759  50.878  1.00  0.00     0.095 A 
HETATM    5  C9  UNL     1      24.687   1.770  51.801  1.00  0.00     0.096 A 
HETATM    6  C17 UNL     1      23.433   1.722  52.420  1.00  0.00     0.106 A 
HETATM    7  N2  UNL     1      26.245   2.883  50.203  1.00  0.00    -0.241 NA
HETATM    8  C21 UNL     1      26.471   3.812  49.367  1.00  0.00     0.203 A 
HETATM    9  N3  UNL     1      25.526   4.794  49.035  1.00  0.00    -0.380 N 
HETATM   10  C22 UNL     1      24.209   4.847  49.602  1.00  0.00     0.161 A 
HETATM   11  H27 UNL     1      25.656   5.578  48.360  1.00  0.00     0.160 HD
ENDROOT
BRANCH   5  12
HETATM   12  N1  UNL     1      25.775   0.874  51.998  1.00  0.00    -0.352 N 
HETATM   13  H11 UNL     1      25.617  -0.042  51.485  1.00  0.00     0.166 HD
BRANCH  12  14
HETATM   14  C10 UNL     1      26.986   1.014  52.745  1.00  0.00     0.033 A 
HETATM   15  C11 UNL     1      27.366   2.217  53.301  1.00  0.00     0.029 A 
HETATM   16  C12 UNL     1      28.553   2.212  54.000  1.00  0.00     0.003 A 
HETATM   17  C13 UNL     1      29.356   1.096  54.168  1.00  0.00     0.007 A 
HETATM   18  C14 UNL     1      28.953  -0.097  53.602  1.00  0.00    -0.060 A 
HETATM   19  C15 UNL     1      29.722  -1.374  53.704  1.00  0.00     0.048 C 
HETATM   20  C16 UNL     1      27.754  -0.123  52.886  1.00  0.00     0.036 A 
ENDBRANCH  12  14
ENDBRANCH   5  12
BRANCH   6  21
HETATM   21  O3  UNL     1      23.369   0.657  53.286  1.00  0.00    -0.346 OA
BRANCH  21  22
HETATM   22  C18 UNL     1      22.678  -0.536  53.143  1.00  0.00     0.201 C 
BRANCH  22  23
HETATM   23  C19 UNL     1      22.694  -1.207  54.526  1.00  0.00     0.193 C 
BRANCH  23  24
HETATM   24  O4  UNL     1      21.434  -1.548  54.956  1.00  0.00    -0.394 OA
HETATM   25  C20 UNL     1      20.524  -1.229  53.967  1.00  0.00     0.201 C 
ENDBRANCH  23  24
ENDBRANCH  22  23
ENDBRANCH  21  22
ENDBRANCH   6  21
BRANCH   1  26
HETATM   26  C4  UNL     1      21.230   2.453  52.874  1.00  0.00     0.209 C 
BRANCH  26  27
HETATM   27  O2  UNL     1      20.233   3.322  52.561  1.00  0.00    -0.384 OA
BRANCH  27  28
HETATM   28  C3  UNL     1      19.176   2.927  51.828  1.00  0.00     0.194 C 
BRANCH  28  29
HETATM   29  C2  UNL     1      19.088   3.432  50.412  1.00  0.00     0.193 C 
BRANCH  29  30
HETATM   30  O1  UNL     1      18.968   2.380  49.541  1.00  0.00    -0.394 OA
HETATM   31  C1  UNL     1      20.209   1.809  49.219  1.00  0.00     0.201 C 
ENDBRANCH  29  30
ENDBRANCH  28  29
ENDBRANCH  27  28
ENDBRANCH  26  27
ENDBRANCH   1  26
TORSDOF 11
ENDMDL
MODEL 8
REMARK VINA RESULT:      -6.2      2.714      5.773
REMARK  11 active torsions:
REMARK  status: ('A' for Active; 'I' for Inactive)
REMARK    1  A    between atoms: O1_2  and  C2_3 
REMARK    2  A    between atoms: C2_3  and  C3_4 
REMARK    3  A    between atoms: C3_4  and  O2_5 
REMARK    4  A    between atoms: O2_5  and  C4_6 
REMARK    5  A    between atoms: C4_6  and  C5_7 
REMARK    6  A    between atoms: C9_11  and  N1_12 
REMARK    7  A    between atoms: N1_12  and  C10_13 
REMARK    8  A    between atoms: C17_20  and  O3_21 
REMARK    9  A    between atoms: O3_21  and  C18_22 
REMARK   10  A    between atoms: C18_22  and  C19_23 
REMARK   11  A    between atoms: C19_23  and  O4_24 
ROOT
HETATM    1  C5  UNL     1      25.803   2.982  50.822  1.00  0.00     0.002 A 
HETATM    2  C6  UNL     1      26.568   1.947  51.307  1.00  0.00     0.023 A 
HETATM    3  C7  UNL     1      26.089   0.992  52.169  1.00  0.00    -0.009 A 
HETATM    4  C8  UNL     1      24.775   1.061  52.582  1.00  0.00     0.095 A 
HETATM    5  C9  UNL     1      23.970   2.091  52.115  1.00  0.00     0.096 A 
HETATM    6  C17 UNL     1      24.466   3.060  51.236  1.00  0.00     0.106 A 
HETATM    7  N2  UNL     1      24.355   0.037  53.475  1.00  0.00    -0.241 NA
HETATM    8  C21 UNL     1      25.140  -0.882  53.868  1.00  0.00     0.203 A 
HETATM    9  N3  UNL     1      26.480  -0.972  53.463  1.00  0.00    -0.380 N 
HETATM   10  C22 UNL     1      27.099  -0.040  52.565  1.00  0.00     0.161 A 
HETATM   11  H27 UNL     1      27.168  -1.700  53.753  1.00  0.00     0.160 HD
ENDROOT
BRANCH   5  12
HETATM   12  N1  UNL     1      22.650   2.005  52.639  1.00  0.00    -0.352 N 
HETATM   13  H11 UNL     1      22.584   2.465  53.594  1.00  0.00     0.166 HD
BRANCH  12  14
HETATM   14  C10 UNL     1      21.461   1.422  52.101  1.00  0.00     0.033 A 
HETATM   15  C11 UNL     1      21.019   1.709  50.827  1.00  0.00     0.029 A 
HETATM   16  C12 UNL     1      19.861   1.073  50.432  1.00  0.00     0.003 A 
HETATM   17  C13 UNL     1      19.145   0.192  51.223  1.00  0.00     0.007 A 
HETATM   18  C14 UNL     1      19.608  -0.078  52.495  1.00  0.00    -0.060 A 
HETATM   19  C15 UNL     1      18.934  -1.007  53.452  1.00  0.00     0.048 C 
HETATM   20  C16 UNL     1      20.778   0.550  52.924  1.00  0.00     0.036 A 
ENDBRANCH  12  14
ENDBRANCH   5  12
BRANCH   6  21
HETATM   21  O3  UNL     1      23.483   3.967  50.921  1.00  0.00    -0.346 OA
BRANCH  21  22
HETATM   22  C18 UNL     1      23.094   5.101  51.619  1.00  0.00     0.201 C 
BRANCH  22  23
HETATM   23  C19 UNL     1      21.754   5.540  51.006  1.00  0.00     0.193 C 
BRANCH  23  24
HETATM   24  O4  UNL     1      21.773   6.849  50.589  1.00  0.00    -0.394 OA
HETATM   25  C20 UNL     1      20.717   7.055  49.723  1.00  0.00     0.201 C 
ENDBRANCH  23  24
ENDBRANCH  22  23
ENDBRANCH  21  22
ENDBRANCH   6  21
BRANCH   1  26
HETATM   26  C4  UNL     1      26.111   4.111  49.899  1.00  0.00     0.209 C 
BRANCH  26  27
HETATM   27  O2  UNL     1      27.335   4.003  49.319  1.00  0.00    -0.384 OA
BRANCH  27  28
HETATM   28  C3  UNL     1      27.839   5.006  48.576  1.00  0.00     0.194 C 
BRANCH  28  29
HETATM   29  C2  UNL     1      27.164   6.349  48.678  1.00  0.00     0.193 C 
BRANCH  29  30
HETATM   30  O1  UNL     1      27.409   7.088  47.549  1.00  0.00    -0.394 OA
HETATM   31  C1  UNL     1      28.669   7.706  47.580  1.00  0.00     0.201 C 
ENDBRANCH  29  30
ENDBRANCH  28  29
ENDBRANCH  27  28
ENDBRANCH  26  27
ENDBRANCH   1  26
TORSDOF 11
ENDMDL
MODEL 9
REMARK VINA RESULT:      -6.1      3.060      7.551
REMARK  11 active torsions:
REMARK  status: ('A' for Active; 'I' for Inactive)
REMARK    1  A    between atoms: O1_2  and  C2_3 
REMARK    2  A    between atoms: C2_3  and  C3_4 
REMARK    3  A    between atoms: C3_4  and  O2_5 
REMARK    4  A    between atoms: O2_5  and  C4_6 
REMARK    5  A    between atoms: C4_6  and  C5_7 
REMARK    6  A    between atoms: C9_11  and  N1_12 
REMARK    7  A    between atoms: N1_12  and  C10_13 
REMARK    8  A    between atoms: C17_20  and  O3_21 
REMARK    9  A    between atoms: O3_21  and  C18_22 
REMARK   10  A    between atoms: C18_22  and  C19_23 
REMARK   11  A    between atoms: C19_23  and  O4_24 
ROOT
HETATM    1  C5  UNL     1      21.100   2.840  50.917  1.00  0.00     0.002 A 
HETATM    2  C6  UNL     1      21.607   3.639  49.919  1.00  0.00     0.023 A 
HETATM    3  C7  UNL     1      22.902   4.092  49.899  1.00  0.00    -0.009 A 
HETATM    4  C8  UNL     1      23.752   3.739  50.926  1.00  0.00     0.095 A 
HETATM    5  C9  UNL     1      23.278   2.934  51.952  1.00  0.00     0.096 A 
HETATM    6  C17 UNL     1      21.956   2.476  51.965  1.00  0.00     0.106 A 
HETATM    7  N2  UNL     1      25.076   4.250  50.833  1.00  0.00    -0.241 NA
HETATM    8  C21 UNL     1      25.452   4.983  49.866  1.00  0.00     0.203 A 
HETATM    9  N3  UNL     1      24.606   5.357  48.811  1.00  0.00    -0.380 N 
HETATM   10  C22 UNL     1      23.235   4.947  48.715  1.00  0.00     0.161 A 
HETATM   11  H27 UNL     1      24.859   5.955  47.996  1.00  0.00     0.160 HD
ENDROOT
BRANCH   5  12
HETATM   12  N1  UNL     1      24.286   2.669  52.920  1.00  0.00    -0.352 N 
HETATM   13  H11 UNL     1      24.142   3.251  53.796  1.00  0.00     0.166 HD
BRANCH  12  14
HETATM   14  C10 UNL     1      25.408   1.782  52.891  1.00  0.00     0.033 A 
HETATM   15  C11 UNL     1      25.311   0.498  52.400  1.00  0.00     0.029 A 
HETATM   16  C12 UNL     1      26.469  -0.248  52.426  1.00  0.00     0.003 A 
HETATM   17  C13 UNL     1      27.684   0.212  52.903  1.00  0.00     0.007 A 
HETATM   18  C14 UNL     1      27.755   1.502  53.390  1.00  0.00    -0.060 A 
HETATM   19  C15 UNL     1      29.000   2.124  53.935  1.00  0.00     0.048 C 
HETATM   20  C16 UNL     1      26.598   2.282  53.377  1.00  0.00     0.036 A 
ENDBRANCH  12  14
ENDBRANCH   5  12
BRANCH   6  21
HETATM   21  O3  UNL     1      21.731   1.701  53.078  1.00  0.00    -0.346 OA
BRANCH  21  22
HETATM   22  C18 UNL     1      21.711   0.318  53.182  1.00  0.00     0.201 C 
BRANCH  22  23
HETATM   23  C19 UNL     1      21.045   0.002  54.530  1.00  0.00     0.193 C 
BRANCH  23  24
HETATM   24  O4  UNL     1      21.413  -1.228  55.021  1.00  0.00    -0.394 OA
HETATM   25  C20 UNL     1      22.792  -1.293  55.065  1.00  0.00     0.201 C 
ENDBRANCH  23  24
ENDBRANCH  22  23
ENDBRANCH  21  22
ENDBRANCH   6  21
BRANCH   1  26
HETATM   26  C4  UNL     1      19.751   2.247  51.141  1.00  0.00     0.209 C 
BRANCH  26  27
HETATM   27  O2  UNL     1      19.427   1.302  50.218  1.00  0.00    -0.384 OA
BRANCH  27  28
HETATM   28  C3  UNL     1      18.380   0.478  50.410  1.00  0.00     0.194 C 
BRANCH  28  29
HETATM   29  C2  UNL     1      17.901   0.288  51.825  1.00  0.00     0.193 C 
BRANCH  29  30
HETATM   30  O1  UNL     1      17.512  -1.013  52.020  1.00  0.00    -0.394 OA
HETATM   31  C1  UNL     1      17.782  -1.460  53.323  1.00  0.00     0.201 C 
ENDBRANCH  29  30
ENDBRANCH  28  29
ENDBRANCH  27  28
ENDBRANCH  26  27
ENDBRANCH   1  26
TORSDOF 11
ENDMDL
