MODEL 1
REMARK VINA RESULT:      -8.1      0.000      0.000
REMARK  4 active torsions:
REMARK  status: ('A' for Active; 'I' for Inactive)
REMARK    1  A    between atoms: C5_6  and  C6_7 
REMARK    2  A    between atoms: C6_7  and  N1_8 
REMARK    3  A    between atoms: N1_8  and  C7_9 
REMARK    4  A    between atoms: C7_9  and  C8_10 
ROOT
HETATM    1  C8  UNL     1      23.379   1.806  52.057  1.00  0.00    -0.010 C 
HETATM    2  C9  UNL     1      23.527   0.666  52.797  1.00  0.00     0.010 C 
HETATM    3  C10 UNL     1      23.616  -0.542  53.422  1.00  0.00     0.001 C 
HETATM    4  C11 UNL     1      22.651  -0.901  54.325  1.00  0.00     0.000 C 
HETATM    5  C12 UNL     1      21.574  -0.207  54.802  1.00  0.00     0.000 C 
HETATM    6  C13 UNL     1      20.532   0.078  53.967  1.00  0.00     0.000 C 
HETATM    7  C14 UNL     1      20.255  -0.179  52.642  1.00  0.00     0.000 C 
HETATM    8  C15 UNL     1      20.461   0.702  51.603  1.00  0.00     0.002 C 
HETATM    9  C16 UNL     1      20.955   1.946  51.827  1.00  0.00     0.023 C 
HETATM   10  C17 UNL     1      22.197   2.512  51.996  1.00  0.00     0.052 C 
HETATM   11  C18 UNL     1      22.237   3.939  52.114  1.00  0.00     0.100 C 
HETATM   12  N2  UNL     1      22.276   5.095  52.207  1.00  0.00    -0.191 NA
ENDROOT
BRANCH   1  13
HETATM   13  C7  UNL     1      24.508   2.392  51.245  1.00  0.00     0.310 C 
BRANCH  13  14
HETATM   14  N1  UNL     1      25.586   2.684  52.125  1.00  0.00     0.091 N 
HETATM   15  H8  UNL     1      25.286   2.434  53.090  1.00  0.00     0.316 HD
BRANCH  14  16
HETATM   16  C6  UNL     1      26.863   2.168  51.797  1.00  0.00     0.311 C 
BRANCH  16  17
HETATM   17  C5  UNL     1      27.725   1.746  52.894  1.00  0.00    -0.001 C 
HETATM   18  C2  UNL     1      27.976   0.343  53.211  1.00  0.00    -0.034 C 
HETATM   19  C1  UNL     1      27.213  -0.647  52.790  1.00  0.00     0.022 C 
HETATM   20  C3  UNL     1      29.212   0.279  54.067  1.00  0.00     0.213 C 
HETATM   21  O1  UNL     1      29.142   1.569  54.663  1.00  0.00    -0.358 OA
HETATM   22  C4  UNL     1      28.440   2.406  53.786  1.00  0.00     0.144 C 
ENDBRANCH  16  17
ENDBRANCH  14  16
ENDBRANCH  13  14
ENDBRANCH   1  13
TORSDOF 4
ENDMDL
MODEL 2
REMARK VINA RESULT:      -7.8      0.941      1.270
REMARK  4 active torsions:
REMARK  status: ('A' for Active; 'I' for Inactive)
REMARK    1  A    between atoms: C5_6  and  C6_7 
REMARK    2  A    between atoms: C6_7  and  N1_8 
REMARK    3  A    between atoms: N1_8  and  C7_9 
REMARK    4  A    between atoms: C7_9  and  C8_10 
ROOT
HETATM    1  C8  UNL     1      23.663   2.180  52.708  1.00  0.00    -0.010 C 
HETATM    2  C9  UNL     1      23.298   0.942  53.162  1.00  0.00     0.010 C 
HETATM    3  C10 UNL     1      22.983  -0.343  53.489  1.00  0.00     0.001 C 
HETATM    4  C11 UNL     1      21.695  -0.778  53.329  1.00  0.00     0.000 C 
HETATM    5  C12 UNL     1      20.570  -0.107  52.939  1.00  0.00     0.000 C 
HETATM    6  C13 UNL     1      20.462   0.339  51.653  1.00  0.00     0.000 C 
HETATM    7  C14 UNL     1      21.269   0.281  50.538  1.00  0.00     0.000 C 
HETATM    8  C15 UNL     1      22.110   1.287  50.113  1.00  0.00     0.002 C 
HETATM    9  C16 UNL     1      22.190   2.463  50.784  1.00  0.00     0.023 C 
HETATM   10  C17 UNL     1      22.862   2.941  51.885  1.00  0.00     0.052 C 
HETATM   11  C18 UNL     1      22.700   4.335  52.175  1.00  0.00     0.100 C 
HETATM   12  N2  UNL     1      22.577   5.464  52.412  1.00  0.00    -0.191 NA
ENDROOT
BRANCH   1  13
HETATM   13  C7  UNL     1      24.979   2.818  53.077  1.00  0.00     0.310 C 
BRANCH  13  14
HETATM   14  N1  UNL     1      25.798   2.856  51.914  1.00  0.00     0.091 N 
HETATM   15  H8  UNL     1      26.146   3.831  51.802  1.00  0.00     0.316 HD
BRANCH  14  16
HETATM   16  C6  UNL     1      26.828   1.891  51.802  1.00  0.00     0.311 C 
BRANCH  16  17
HETATM   17  C5  UNL     1      27.656   1.645  52.977  1.00  0.00    -0.001 C 
HETATM   18  C2  UNL     1      27.660   0.372  53.692  1.00  0.00    -0.034 C 
HETATM   19  C1  UNL     1      26.705  -0.530  53.579  1.00  0.00     0.022 C 
HETATM   20  C3  UNL     1      28.907   0.321  54.532  1.00  0.00     0.213 C 
HETATM   21  O1  UNL     1      29.109   1.716  54.723  1.00  0.00    -0.358 OA
HETATM   22  C4  UNL     1      28.528   2.384  53.637  1.00  0.00     0.144 C 
ENDBRANCH  16  17
ENDBRANCH  14  16
ENDBRANCH  13  14
ENDBRANCH   1  13
TORSDOF 4
ENDMDL
MODEL 3
REMARK VINA RESULT:      -7.8      2.776      5.856
REMARK  4 active torsions:
REMARK  status: ('A' for Active; 'I' for Inactive)
REMARK    1  A    between atoms: C5_6  and  C6_7 
REMARK    2  A    between atoms: C6_7  and  N1_8 
REMARK    3  A    between atoms: N1_8  and  C7_9 
REMARK    4  A    between atoms: C7_9  and  C8_10 
ROOT
HETATM    1  C8  UNL     1      25.506   1.011  52.556  1.00  0.00    -0.010 C 
HETATM    2  C9  UNL     1      26.659   1.728  52.722  1.00  0.00     0.010 C 
HETATM    3  C10 UNL     1      27.863   2.363  52.779  1.00  0.00     0.001 C 
HETATM    4  C11 UNL     1      28.778   1.980  53.724  1.00  0.00     0.000 C 
HETATM    5  C12 UNL     1      28.685   1.063  54.733  1.00  0.00     0.000 C 
HETATM    6  C13 UNL     1      28.604  -0.266  54.433  1.00  0.00     0.000 C 
HETATM    7  C14 UNL     1      28.592  -0.994  53.263  1.00  0.00     0.000 C 
HETATM    8  C15 UNL     1      27.461  -1.462  52.631  1.00  0.00     0.002 C 
HETATM    9  C16 UNL     1      26.227  -1.242  53.150  1.00  0.00     0.023 C 
HETATM   10  C17 UNL     1      25.303  -0.223  53.134  1.00  0.00     0.052 C 
HETATM   11  C18 UNL     1      24.047  -0.491  53.770  1.00  0.00     0.100 C 
HETATM   12  N2  UNL     1      23.027  -0.703  54.280  1.00  0.00    -0.191 NA
ENDROOT
BRANCH   1  13
HETATM   13  C7  UNL     1      24.353   1.519  51.727  1.00  0.00     0.310 C 
BRANCH  13  14
HETATM   14  N1  UNL     1      24.287   2.933  51.872  1.00  0.00     0.091 N 
HETATM   15  H8  UNL     1      25.175   3.249  52.313  1.00  0.00     0.316 HD
BRANCH  14  16
HETATM   16  C6  UNL     1      23.939   3.696  50.732  1.00  0.00     0.311 C 
BRANCH  16  17
HETATM   17  C5  UNL     1      24.817   4.799  50.362  1.00  0.00    -0.001 C 
HETATM   18  C2  UNL     1      26.031   4.615  49.573  1.00  0.00    -0.034 C 
HETATM   19  C1  UNL     1      26.629   3.451  49.416  1.00  0.00     0.022 C 
HETATM   20  C3  UNL     1      26.426   5.957  49.017  1.00  0.00     0.213 C 
HETATM   21  O1  UNL     1      25.851   6.793  50.014  1.00  0.00    -0.358 OA
HETATM   22  C4  UNL     1      24.776   6.100  50.585  1.00  0.00     0.144 C 
ENDBRANCH  16  17
ENDBRANCH  14  16
ENDBRANCH  13  14
ENDBRANCH   1  13
TORSDOF 4
ENDMDL
MODEL 4
REMARK VINA RESULT:      -7.7      4.067      6.652
REMARK  4 active torsions:
REMARK  status: ('A' for Active; 'I' for Inactive)
REMARK    1  A    between atoms: C5_6  and  C6_7 
REMARK    2  A    between atoms: C6_7  and  N1_8 
REMARK    3  A    between atoms: N1_8  and  C7_9 
REMARK    4  A    between atoms: C7_9  and  C8_10 
ROOT
HETATM    1  C8  UNL     1      26.512   4.537  49.214  1.00  0.00    -0.010 C 
HETATM    2  C9  UNL     1      27.666   5.050  48.688  1.00  0.00     0.010 C 
HETATM    3  C10 UNL     1      28.839   5.621  48.293  1.00  0.00     0.001 C 
HETATM    4  C11 UNL     1      28.809   6.797  47.593  1.00  0.00     0.000 C 
HETATM    5  C12 UNL     1      27.753   7.528  47.124  1.00  0.00     0.000 C 
HETATM    6  C13 UNL     1      26.925   8.159  48.007  1.00  0.00     0.000 C 
HETATM    7  C14 UNL     1      26.873   8.264  49.379  1.00  0.00     0.000 C 
HETATM    8  C15 UNL     1      26.076   7.499  50.204  1.00  0.00     0.002 C 
HETATM    9  C16 UNL     1      25.239   6.560  49.695  1.00  0.00     0.023 C 
HETATM   10  C17 UNL     1      25.337   5.254  49.280  1.00  0.00     0.052 C 
HETATM   11  C18 UNL     1      24.115   4.613  48.892  1.00  0.00     0.100 C 
HETATM   12  N2  UNL     1      23.128   4.089  48.581  1.00  0.00    -0.191 NA
ENDROOT
BRANCH   1  13
HETATM   13  C7  UNL     1      26.430   3.135  49.764  1.00  0.00     0.310 C 
BRANCH  13  14
HETATM   14  N1  UNL     1      26.799   3.172  51.138  1.00  0.00     0.091 N 
HETATM   15  H8  UNL     1      26.303   3.974  51.579  1.00  0.00     0.316 HD
BRANCH  14  16
HETATM   16  C6  UNL     1      26.678   1.976  51.885  1.00  0.00     0.311 C 
BRANCH  16  17
HETATM   17  C5  UNL     1      27.555   1.805  53.037  1.00  0.00    -0.001 C 
HETATM   18  C2  UNL     1      27.403   0.714  53.994  1.00  0.00    -0.034 C 
HETATM   19  C1  UNL     1      26.300   0.002  54.119  1.00  0.00     0.022 C 
HETATM   20  C3  UNL     1      28.694   0.589  54.757  1.00  0.00     0.213 C 
HETATM   21  O1  UNL     1      29.152   1.931  54.649  1.00  0.00    -0.358 OA
HETATM   22  C4  UNL     1      28.599   2.478  53.484  1.00  0.00     0.144 C 
ENDBRANCH  16  17
ENDBRANCH  14  16
ENDBRANCH  13  14
ENDBRANCH   1  13
TORSDOF 4
ENDMDL
MODEL 5
REMARK VINA RESULT:      -7.5      1.629      3.090
REMARK  4 active torsions:
REMARK  status: ('A' for Active; 'I' for Inactive)
REMARK    1  A    between atoms: C5_6  and  C6_7 
REMARK    2  A    between atoms: C6_7  and  N1_8 
REMARK    3  A    between atoms: N1_8  and  C7_9 
REMARK    4  A    between atoms: C7_9  and  C8_10 
ROOT
HETATM    1  C8  UNL     1      23.641   1.986  52.172  1.00  0.00    -0.010 C 
HETATM    2  C9  UNL     1      23.423   2.352  50.872  1.00  0.00     0.010 C 
HETATM    3  C10 UNL     1      23.110   2.812  49.628  1.00  0.00     0.001 C 
HETATM    4  C11 UNL     1      22.212   2.117  48.863  1.00  0.00     0.000 C 
HETATM    5  C12 UNL     1      21.571   0.933  49.097  1.00  0.00     0.000 C 
HETATM    6  C13 UNL     1      20.625   0.860  50.079  1.00  0.00     0.000 C 
HETATM    7  C14 UNL     1      20.095   1.757  50.980  1.00  0.00     0.000 C 
HETATM    8  C15 UNL     1      20.491   1.890  52.293  1.00  0.00     0.002 C 
HETATM    9  C16 UNL     1      21.462   1.099  52.816  1.00  0.00     0.023 C 
HETATM   10  C17 UNL     1      22.837   1.090  52.842  1.00  0.00     0.052 C 
HETATM   11  C18 UNL     1      23.453   0.065  53.631  1.00  0.00     0.100 C 
HETATM   12  N2  UNL     1      23.958  -0.761  54.272  1.00  0.00    -0.191 NA
ENDROOT
BRANCH   1  13
HETATM   13  C7  UNL     1      24.789   2.534  52.982  1.00  0.00     0.310 C 
BRANCH  13  14
HETATM   14  N1  UNL     1      25.857   2.840  52.092  1.00  0.00     0.091 N 
HETATM   15  H8  UNL     1      26.352   3.676  52.466  1.00  0.00     0.316 HD
BRANCH  14  16
HETATM   16  C6  UNL     1      26.741   1.792  51.739  1.00  0.00     0.311 C 
BRANCH  16  17
HETATM   17  C5  UNL     1      27.616   1.265  52.779  1.00  0.00    -0.001 C 
HETATM   18  C2  UNL     1      27.781  -0.164  53.026  1.00  0.00    -0.034 C 
HETATM   19  C1  UNL     1      26.935  -1.081  52.599  1.00  0.00     0.022 C 
HETATM   20  C3  UNL     1      29.044  -0.349  53.824  1.00  0.00     0.213 C 
HETATM   21  O1  UNL     1      29.087   0.915  54.475  1.00  0.00    -0.358 OA
HETATM   22  C4  UNL     1      28.410   1.836  53.665  1.00  0.00     0.144 C 
ENDBRANCH  16  17
ENDBRANCH  14  16
ENDBRANCH  13  14
ENDBRANCH   1  13
TORSDOF 4
ENDMDL
MODEL 6
REMARK VINA RESULT:      -7.4      3.618      4.988
REMARK  4 active torsions:
REMARK  status: ('A' for Active; 'I' for Inactive)
REMARK    1  A    between atoms: C5_6  and  C6_7 
REMARK    2  A    between atoms: C6_7  and  N1_8 
REMARK    3  A    between atoms: N1_8  and  C7_9 
REMARK    4  A    between atoms: C7_9  and  C8_10 
ROOT
HETATM    1  C8  UNL     1      25.015   2.172  51.562  1.00  0.00    -0.010 C 
HETATM    2  C9  UNL     1      25.883   1.134  51.759  1.00  0.00     0.010 C 
HETATM    3  C10 UNL     1      26.650   0.015  51.889  1.00  0.00     0.001 C 
HETATM    4  C11 UNL     1      26.646  -0.665  53.078  1.00  0.00     0.000 C 
HETATM    5  C12 UNL     1      26.027  -0.382  54.264  1.00  0.00     0.000 C 
HETATM    6  C13 UNL     1      24.666  -0.449  54.347  1.00  0.00     0.000 C 
HETATM    7  C14 UNL     1      23.656  -0.758  53.462  1.00  0.00     0.000 C 
HETATM    8  C15 UNL     1      22.904   0.161  52.763  1.00  0.00     0.002 C 
HETATM    9  C16 UNL     1      23.105   1.493  52.918  1.00  0.00     0.023 C 
HETATM   10  C17 UNL     1      23.964   2.440  52.412  1.00  0.00     0.052 C 
HETATM   11  C18 UNL     1      23.727   3.796  52.812  1.00  0.00     0.100 C 
HETATM   12  N2  UNL     1      23.537   4.895  53.130  1.00  0.00    -0.191 NA
ENDROOT
BRANCH   1  13
HETATM   13  C7  UNL     1      25.141   3.118  50.394  1.00  0.00     0.310 C 
BRANCH  13  14
HETATM   14  N1  UNL     1      26.420   3.738  50.457  1.00  0.00     0.091 N 
HETATM   15  H8  UNL     1      27.049   3.114  51.003  1.00  0.00     0.316 HD
BRANCH  14  16
HETATM   16  C6  UNL     1      27.001   4.176  49.242  1.00  0.00     0.311 C 
BRANCH  16  17
HETATM   17  C5  UNL     1      26.805   5.569  48.862  1.00  0.00    -0.001 C 
HETATM   18  C2  UNL     1      27.819   6.349  48.158  1.00  0.00    -0.034 C 
HETATM   19  C1  UNL     1      29.091   6.010  48.104  1.00  0.00     0.022 C 
HETATM   20  C3  UNL     1      27.137   7.545  47.550  1.00  0.00     0.213 C 
HETATM   21  O1  UNL     1      26.053   7.677  48.461  1.00  0.00    -0.358 OA
HETATM   22  C4  UNL     1      25.798   6.411  49.006  1.00  0.00     0.144 C 
ENDBRANCH  16  17
ENDBRANCH  14  16
ENDBRANCH  13  14
ENDBRANCH   1  13
TORSDOF 4
ENDMDL
MODEL 7
REMARK VINA RESULT:      -7.4      1.363      1.991
REMARK  4 active torsions:
REMARK  status: ('A' for Active; 'I' for Inactive)
REMARK    1  A    between atoms: C5_6  and  C6_7 
REMARK    2  A    between atoms: C6_7  and  N1_8 
REMARK    3  A    between atoms: N1_8  and  C7_9 
REMARK    4  A    between atoms: C7_9  and  C8_10 
ROOT
HETATM    1  C8  UNL     1      23.826   1.001  52.608  1.00  0.00    -0.010 C 
HETATM    2  C9  UNL     1      23.193   0.102  53.421  1.00  0.00     0.010 C 
HETATM    3  C10 UNL     1      22.548  -0.878  54.115  1.00  0.00     0.001 C 
HETATM    4  C11 UNL     1      21.208  -0.748  54.367  1.00  0.00     0.000 C 
HETATM    5  C12 UNL     1      20.346   0.278  54.095  1.00  0.00     0.000 C 
HETATM    6  C13 UNL     1      20.017   0.557  52.800  1.00  0.00     0.000 C 
HETATM    7  C14 UNL     1      20.359   0.021  51.578  1.00  0.00     0.000 C 
HETATM    8  C15 UNL     1      21.333   0.517  50.739  1.00  0.00     0.002 C 
HETATM    9  C16 UNL     1      22.043   1.626  51.067  1.00  0.00     0.023 C 
HETATM   10  C17 UNL     1      23.148   1.915  51.832  1.00  0.00     0.052 C 
HETATM   11  C18 UNL     1      23.606   3.273  51.803  1.00  0.00     0.100 C 
HETATM   12  N2  UNL     1      23.985   4.369  51.780  1.00  0.00    -0.191 NA
ENDROOT
BRANCH   1  13
HETATM   13  C7  UNL     1      25.329   1.069  52.497  1.00  0.00     0.310 C 
BRANCH  13  14
HETATM   14  N1  UNL     1      25.850   1.507  53.747  1.00  0.00     0.091 N 
HETATM   15  H8  UNL     1      25.071   1.947  54.279  1.00  0.00     0.316 HD
BRANCH  14  16
HETATM   16  C6  UNL     1      26.582   0.573  54.519  1.00  0.00     0.311 C 
BRANCH  16  17
HETATM   17  C5  UNL     1      27.801   0.022  53.938  1.00  0.00    -0.001 C 
HETATM   18  C2  UNL     1      29.048   0.776  53.852  1.00  0.00    -0.034 C 
HETATM   19  C1  UNL     1      29.116   2.088  53.958  1.00  0.00     0.022 C 
HETATM   20  C3  UNL     1      30.165  -0.208  53.628  1.00  0.00     0.213 C 
HETATM   21  O1  UNL     1      29.430  -1.241  52.981  1.00  0.00    -0.358 OA
HETATM   22  C4  UNL     1      28.099  -1.150  53.409  1.00  0.00     0.144 C 
ENDBRANCH  16  17
ENDBRANCH  14  16
ENDBRANCH  13  14
ENDBRANCH   1  13
TORSDOF 4
ENDMDL
MODEL 8
REMARK VINA RESULT:      -7.4      2.811      5.510
REMARK  4 active torsions:
REMARK  status: ('A' for Active; 'I' for Inactive)
REMARK    1  A    between atoms: C5_6  and  C6_7 
REMARK    2  A    between atoms: C6_7  and  N1_8 
REMARK    3  A    between atoms: N1_8  and  C7_9 
REMARK    4  A    between atoms: C7_9  and  C8_10 
ROOT
HETATM    1  C8  UNL     1      22.750   2.665  51.145  1.00  0.00    -0.010 C 
HETATM    2  C9  UNL     1      23.780   2.691  52.045  1.00  0.00     0.010 C 
HETATM    3  C10 UNL     1      24.814   2.859  52.916  1.00  0.00     0.001 C 
HETATM    4  C11 UNL     1      26.088   2.568  52.507  1.00  0.00     0.000 C 
HETATM    5  C12 UNL     1      26.548   2.043  51.332  1.00  0.00     0.000 C 
HETATM    6  C13 UNL     1      26.467   2.780  50.186  1.00  0.00     0.000 C 
HETATM    7  C14 UNL     1      25.998   4.038  49.876  1.00  0.00     0.000 C 
HETATM    8  C15 UNL     1      24.753   4.315  49.354  1.00  0.00     0.002 C 
HETATM    9  C16 UNL     1      23.871   3.321  49.081  1.00  0.00     0.023 C 
HETATM   10  C17 UNL     1      22.948   2.584  49.784  1.00  0.00     0.052 C 
HETATM   11  C18 UNL     1      22.146   1.672  49.022  1.00  0.00     0.100 C 
HETATM   12  N2  UNL     1      21.491   0.935  48.411  1.00  0.00    -0.191 NA
ENDROOT
BRANCH   1  13
HETATM   13  C7  UNL     1      21.304   2.719  51.572  1.00  0.00     0.310 C 
BRANCH  13  14
HETATM   14  N1  UNL     1      21.107   1.758  52.603  1.00  0.00     0.091 N 
HETATM   15  H8  UNL     1      20.147   1.891  52.982  1.00  0.00     0.316 HD
BRANCH  14  16
HETATM   16  C6  UNL     1      21.397   0.405  52.306  1.00  0.00     0.311 C 
BRANCH  16  17
HETATM   17  C5  UNL     1      21.666  -0.491  53.424  1.00  0.00    -0.001 C 
HETATM   18  C2  UNL     1      23.017  -0.802  53.883  1.00  0.00    -0.034 C 
HETATM   19  C1  UNL     1      24.098  -0.602  53.156  1.00  0.00     0.022 C 
HETATM   20  C3  UNL     1      22.910  -1.366  55.274  1.00  0.00     0.213 C 
HETATM   21  O1  UNL     1      21.598  -1.909  55.199  1.00  0.00    -0.358 OA
HETATM   22  C4  UNL     1      20.887  -1.175  54.241  1.00  0.00     0.144 C 
ENDBRANCH  16  17
ENDBRANCH  14  16
ENDBRANCH  13  14
ENDBRANCH   1  13
TORSDOF 4
ENDMDL
MODEL 9
REMARK VINA RESULT:      -7.4      2.056      4.074
REMARK  4 active torsions:
REMARK  status: ('A' for Active; 'I' for Inactive)
REMARK    1  A    between atoms: C5_6  and  C6_7 
REMARK    2  A    between atoms: C6_7  and  N1_8 
REMARK    3  A    between atoms: N1_8  and  C7_9 
REMARK    4  A    between atoms: C7_9  and  C8_10 
ROOT
HETATM    1  C8  UNL     1      24.300   1.336  52.162  1.00  0.00    -0.010 C 
HETATM    2  C9  UNL     1      25.424   1.884  51.610  1.00  0.00     0.010 C 
HETATM    3  C10 UNL     1      26.542   2.526  51.168  1.00  0.00     0.001 C 
HETATM    4  C11 UNL     1      26.431   3.453  50.167  1.00  0.00     0.000 C 
HETATM    5  C12 UNL     1      25.347   3.841  49.429  1.00  0.00     0.000 C 
HETATM    6  C13 UNL     1      24.332   4.529  50.029  1.00  0.00     0.000 C 
HETATM    7  C14 UNL     1      24.094   4.979  51.309  1.00  0.00     0.000 C 
HETATM    8  C15 UNL     1      23.319   4.331  52.247  1.00  0.00     0.002 C 
HETATM    9  C16 UNL     1      22.697   3.162  51.954  1.00  0.00     0.023 C 
HETATM   10  C17 UNL     1      23.035   1.829  51.930  1.00  0.00     0.052 C 
HETATM   11  C18 UNL     1      21.976   0.908  51.638  1.00  0.00     0.100 C 
HETATM   12  N2  UNL     1      21.123   0.157  51.408  1.00  0.00    -0.191 NA
ENDROOT
BRANCH   1  13
HETATM   13  C7  UNL     1      24.353   0.135  53.074  1.00  0.00     0.310 C 
BRANCH  13  14
HETATM   14  N1  UNL     1      25.429  -0.696  52.655  1.00  0.00     0.091 N 
HETATM   15  H8  UNL     1      25.896  -0.231  51.850  1.00  0.00     0.316 HD
BRANCH  14  16
HETATM   16  C6  UNL     1      26.345  -1.135  53.641  1.00  0.00     0.311 C 
BRANCH  16  17
HETATM   17  C5  UNL     1      27.452  -0.248  53.979  1.00  0.00    -0.001 C 
HETATM   18  C2  UNL     1      28.839  -0.546  53.636  1.00  0.00    -0.034 C 
HETATM   19  C1  UNL     1      29.268  -1.750  53.314  1.00  0.00     0.022 C 
HETATM   20  C3  UNL     1      29.619   0.738  53.725  1.00  0.00     0.213 C 
HETATM   21  O1  UNL     1      28.823   1.421  54.685  1.00  0.00    -0.358 OA
HETATM   22  C4  UNL     1      27.518   0.919  54.593  1.00  0.00     0.144 C 
ENDBRANCH  16  17
ENDBRANCH  14  16
ENDBRANCH  13  14
ENDBRANCH   1  13
TORSDOF 4
ENDMDL
