MODEL 1
REMARK VINA RESULT:      -8.0      0.000      0.000
REMARK  8 active torsions:
REMARK  status: ('A' for Active; 'I' for Inactive)
REMARK    1  A    between atoms: O1_2  and  C2_3 
REMARK    2  A    between atoms: C5_6  and  O2_7 
REMARK    3  A    between atoms: O2_7  and  C6_8 
REMARK    4  A    between atoms: C6_8  and  N1_9 
REMARK    5  A    between atoms: C6_8  and  C13_18 
REMARK    6  A    between atoms: N1_9  and  C7_10 
REMARK    7  A    between atoms: C13_18  and  C15_21 
REMARK    8  A    between atoms: C15_21  and  O4_23 
ROOT
HETATM    1  C6  UNL     1      26.936   0.563  53.161  1.00  0.00     0.245 C 
ENDROOT
BRANCH   1   2
HETATM    2  O2  UNL     1      26.264   0.261  54.366  1.00  0.00    -0.356 OA
BRANCH   2   3
HETATM    3  C5  UNL     1      25.449  -0.857  54.225  1.00  0.00     0.150 A 
HETATM    4  C4  UNL     1      24.842  -1.189  55.549  1.00  0.00     0.066 A 
HETATM    5  C3  UNL     1      23.339  -1.177  55.525  1.00  0.00     0.013 A 
HETATM    6  C2  UNL     1      22.488  -0.925  54.544  1.00  0.00     0.064 A 
HETATM    7  C17 UNL     1      23.110  -0.605  53.266  1.00  0.00     0.035 A 
HETATM    8  C16 UNL     1      24.427  -0.584  53.162  1.00  0.00     0.008 A 
BRANCH   6   9
HETATM    9  O1  UNL     1      21.106  -0.953  54.679  1.00  0.00    -0.356 OA
HETATM   10  C1  UNL     1      20.171  -0.592  53.718  1.00  0.00     0.210 C 
ENDBRANCH   6   9
ENDBRANCH   2   3
ENDBRANCH   1   2
BRANCH   1  11
HETATM   11  N1  UNL     1      26.731   1.971  52.885  1.00  0.00    -0.362 N 
HETATM   12  H9  UNL     1      27.129   2.702  53.541  1.00  0.00     0.162 HD
BRANCH  11  13
HETATM   13  C7  UNL     1      26.027   2.572  51.789  1.00  0.00     0.031 A 
HETATM   14  C8  UNL     1      26.581   2.840  50.541  1.00  0.00     0.032 A 
HETATM   15  C9  UNL     1      25.795   3.426  49.574  1.00  0.00     0.046 A 
HETATM   16  C10 UNL     1      24.475   3.772  49.761  1.00  0.00     0.138 A 
HETATM   17  F1  UNL     1      23.818   4.346  48.716  1.00  0.00    -0.204 F 
HETATM   18  C11 UNL     1      23.921   3.513  50.983  1.00  0.00     0.074 A 
HETATM   19 CL1  UNL     1      22.249   3.956  51.207  1.00  0.00    -0.081 Cl
HETATM   20  C12 UNL     1      24.693   2.922  51.976  1.00  0.00     0.056 A 
ENDBRANCH  11  13
ENDBRANCH   1  11
BRANCH   1  21
HETATM   21  C13 UNL     1      28.395   0.397  53.512  1.00  0.00     0.145 C 
HETATM   22  C14 UNL     1      29.064  -0.744  53.487  1.00  0.00     0.440 C 
HETATM   23  F2  UNL     1      30.375  -0.853  53.809  1.00  0.00    -0.454 F 
BRANCH  21  24
HETATM   24  C15 UNL     1      28.981   1.701  53.898  1.00  0.00     0.157 C 
HETATM   25  O3  UNL     1      29.260   2.137  55.053  1.00  0.00    -0.649 OA
BRANCH  24  26
HETATM   26  O4  UNL     1      29.333   2.695  53.003  1.00  0.00    -0.776 OA
HETATM   27  H14 UNL     1      28.917   3.619  53.027  1.00  0.00     0.167 HD
ENDBRANCH  24  26
ENDBRANCH  21  24
ENDBRANCH   1  21
TORSDOF 8
ENDMDL
MODEL 2
REMARK VINA RESULT:      -8.0      2.539      4.630
REMARK  8 active torsions:
REMARK  status: ('A' for Active; 'I' for Inactive)
REMARK    1  A    between atoms: O1_2  and  C2_3 
REMARK    2  A    between atoms: C5_6  and  O2_7 
REMARK    3  A    between atoms: O2_7  and  C6_8 
REMARK    4  A    between atoms: C6_8  and  N1_9 
REMARK    5  A    between atoms: C6_8  and  C13_18 
REMARK    6  A    between atoms: N1_9  and  C7_10 
REMARK    7  A    between atoms: C13_18  and  C15_21 
REMARK    8  A    between atoms: C15_21  and  O4_23 
ROOT
HETATM    1  C6  UNL     1      26.947   0.796  53.584  1.00  0.00     0.245 C 
ENDROOT
BRANCH   1   2
HETATM    2  O2  UNL     1      26.832   1.104  52.211  1.00  0.00    -0.356 OA
BRANCH   2   3
HETATM    3  C5  UNL     1      26.405   2.414  52.020  1.00  0.00     0.150 A 
HETATM    4  C4  UNL     1      25.854   2.551  50.638  1.00  0.00     0.066 A 
HETATM    5  C3  UNL     1      24.422   3.009  50.620  1.00  0.00     0.013 A 
HETATM    6  C2  UNL     1      23.591   3.302  51.606  1.00  0.00     0.064 A 
HETATM    7  C17 UNL     1      24.158   3.159  52.941  1.00  0.00     0.035 A 
HETATM    8  C16 UNL     1      25.409   2.763  53.086  1.00  0.00     0.008 A 
BRANCH   6   9
HETATM    9  O1  UNL     1      22.279   3.718  51.427  1.00  0.00    -0.356 OA
HETATM   10  C1  UNL     1      21.192   3.407  52.236  1.00  0.00     0.210 C 
ENDBRANCH   6   9
ENDBRANCH   2   3
ENDBRANCH   1   2
BRANCH   1  11
HETATM   11  N1  UNL     1      26.281  -0.472  53.807  1.00  0.00    -0.362 N 
HETATM   12  H9  UNL     1      26.830  -1.376  53.743  1.00  0.00     0.162 HD
BRANCH  11  13
HETATM   13  C7  UNL     1      24.902  -0.712  54.122  1.00  0.00     0.031 A 
HETATM   14  C8  UNL     1      24.442  -1.221  55.333  1.00  0.00     0.032 A 
HETATM   15  C9  UNL     1      23.088  -1.409  55.506  1.00  0.00     0.046 A 
HETATM   16  C10 UNL     1      22.143  -1.123  54.547  1.00  0.00     0.138 A 
HETATM   17  F1  UNL     1      20.838  -1.359  54.855  1.00  0.00    -0.204 F 
HETATM   18  C11 UNL     1      22.585  -0.622  53.354  1.00  0.00     0.074 A 
HETATM   19 CL1  UNL     1      21.377  -0.264  52.147  1.00  0.00    -0.081 Cl
HETATM   20  C12 UNL     1      23.945  -0.423  53.154  1.00  0.00     0.056 A 
ENDBRANCH  11  13
ENDBRANCH   1  11
BRANCH   1  21
HETATM   21  C13 UNL     1      28.424   0.550  53.774  1.00  0.00     0.145 C 
HETATM   22  C14 UNL     1      29.024  -0.625  53.672  1.00  0.00     0.440 C 
HETATM   23  F2  UNL     1      30.354  -0.807  53.850  1.00  0.00    -0.454 F 
BRANCH  21  24
HETATM   24  C15 UNL     1      29.118   1.816  54.102  1.00  0.00     0.157 C 
HETATM   25  O3  UNL     1      29.568   2.212  55.216  1.00  0.00    -0.649 OA
BRANCH  24  26
HETATM   26  O4  UNL     1      29.395   2.814  53.185  1.00  0.00    -0.776 OA
HETATM   27  H14 UNL     1      28.723   3.112  52.487  1.00  0.00     0.167 HD
ENDBRANCH  24  26
ENDBRANCH  21  24
ENDBRANCH   1  21
TORSDOF 8
ENDMDL
MODEL 3
REMARK VINA RESULT:      -7.9      2.719      4.874
REMARK  8 active torsions:
REMARK  status: ('A' for Active; 'I' for Inactive)
REMARK    1  A    between atoms: O1_2  and  C2_3 
REMARK    2  A    between atoms: C5_6  and  O2_7 
REMARK    3  A    between atoms: O2_7  and  C6_8 
REMARK    4  A    between atoms: C6_8  and  N1_9 
REMARK    5  A    between atoms: C6_8  and  C13_18 
REMARK    6  A    between atoms: N1_9  and  C7_10 
REMARK    7  A    between atoms: C13_18  and  C15_21 
REMARK    8  A    between atoms: C15_21  and  O4_23 
ROOT
HETATM    1  C6  UNL     1      26.924  -0.151  53.641  1.00  0.00     0.245 C 
ENDROOT
BRANCH   1   2
HETATM    2  O2  UNL     1      26.732   0.367  52.341  1.00  0.00    -0.356 OA
BRANCH   2   3
HETATM    3  C5  UNL     1      26.688   1.757  52.352  1.00  0.00     0.150 A 
HETATM    4  C4  UNL     1      26.150   2.238  51.044  1.00  0.00     0.066 A 
HETATM    5  C3  UNL     1      24.907   3.072  51.192  1.00  0.00     0.013 A 
HETATM    6  C2  UNL     1      24.230   3.438  52.268  1.00  0.00     0.064 A 
HETATM    7  C17 UNL     1      24.780   2.954  53.527  1.00  0.00     0.035 A 
HETATM    8  C16 UNL     1      25.872   2.210  53.526  1.00  0.00     0.008 A 
BRANCH   6   9
HETATM    9  O1  UNL     1      23.084   4.222  52.243  1.00  0.00    -0.356 OA
HETATM   10  C1  UNL     1      21.776   3.774  52.104  1.00  0.00     0.210 C 
ENDBRANCH   6   9
ENDBRANCH   2   3
ENDBRANCH   1   2
BRANCH   1  11
HETATM   11  N1  UNL     1      25.894  -1.144  53.874  1.00  0.00    -0.362 N 
HETATM   12  H9  UNL     1      26.156  -2.167  53.963  1.00  0.00     0.162 HD
BRANCH  11  13
HETATM   13  C7  UNL     1      24.480  -0.946  54.014  1.00  0.00     0.031 A 
HETATM   14  C8  UNL     1      23.766  -1.131  55.194  1.00  0.00     0.032 A 
HETATM   15  C9  UNL     1      22.406  -0.910  55.193  1.00  0.00     0.046 A 
HETATM   16  C10 UNL     1      21.693  -0.514  54.084  1.00  0.00     0.138 A 
HETATM   17  F1  UNL     1      20.351  -0.334  54.226  1.00  0.00    -0.204 F 
HETATM   18  C11 UNL     1      22.385  -0.330  52.919  1.00  0.00     0.074 A 
HETATM   19 CL1  UNL     1      21.469   0.172  51.522  1.00  0.00    -0.081 Cl
HETATM   20  C12 UNL     1      23.757  -0.545  52.895  1.00  0.00     0.056 A 
ENDBRANCH  11  13
ENDBRANCH   1  11
BRANCH   1  21
HETATM   21  C13 UNL     1      28.232  -0.899  53.539  1.00  0.00     0.145 C 
HETATM   22  C14 UNL     1      29.418  -0.415  53.871  1.00  0.00     0.440 C 
HETATM   23  F2  UNL     1      30.572  -1.118  53.766  1.00  0.00    -0.454 F 
BRANCH  21  24
HETATM   24  C15 UNL     1      28.005  -2.261  53.005  1.00  0.00     0.157 C 
HETATM   25  O3  UNL     1      27.242  -2.631  52.066  1.00  0.00    -0.649 OA
BRANCH  24  26
HETATM   26  O4  UNL     1      28.630  -3.400  53.480  1.00  0.00    -0.776 OA
HETATM   27  H14 UNL     1      29.576  -3.650  53.216  1.00  0.00     0.167 HD
ENDBRANCH  24  26
ENDBRANCH  21  24
ENDBRANCH   1  21
TORSDOF 8
ENDMDL
MODEL 4
REMARK VINA RESULT:      -7.9      3.220      6.149
REMARK  8 active torsions:
REMARK  status: ('A' for Active; 'I' for Inactive)
REMARK    1  A    between atoms: O1_2  and  C2_3 
REMARK    2  A    between atoms: C5_6  and  O2_7 
REMARK    3  A    between atoms: O2_7  and  C6_8 
REMARK    4  A    between atoms: C6_8  and  N1_9 
REMARK    5  A    between atoms: C6_8  and  C13_18 
REMARK    6  A    between atoms: N1_9  and  C7_10 
REMARK    7  A    between atoms: C13_18  and  C15_21 
REMARK    8  A    between atoms: C15_21  and  O4_23 
ROOT
HETATM    1  C6  UNL     1      24.483   2.454  51.658  1.00  0.00     0.245 C 
ENDROOT
BRANCH   1   2
HETATM    2  O2  UNL     1      25.582   2.763  52.490  1.00  0.00    -0.356 OA
BRANCH   2   3
HETATM    3  C5  UNL     1      26.737   2.118  52.062  1.00  0.00     0.150 A 
HETATM    4  C4  UNL     1      27.794   2.266  53.107  1.00  0.00     0.066 A 
HETATM    5  C3  UNL     1      28.300   0.946  53.622  1.00  0.00     0.013 A 
HETATM    6  C2  UNL     1      27.966  -0.294  53.306  1.00  0.00     0.064 A 
HETATM    7  C17 UNL     1      26.934  -0.406  52.284  1.00  0.00     0.035 A 
HETATM    8  C16 UNL     1      26.411   0.686  51.755  1.00  0.00     0.008 A 
BRANCH   6   9
HETATM    9  O1  UNL     1      28.532  -1.427  53.878  1.00  0.00    -0.356 OA
HETATM   10  C1  UNL     1      29.043  -2.529  53.204  1.00  0.00     0.210 C 
ENDBRANCH   6   9
ENDBRANCH   2   3
ENDBRANCH   1   2
BRANCH   1  11
HETATM   11  N1  UNL     1      23.313   2.328  52.505  1.00  0.00    -0.362 N 
HETATM   12  H9  UNL     1      22.771   3.193  52.789  1.00  0.00     0.162 HD
BRANCH  11  13
HETATM   13  C7  UNL     1      22.735   1.136  53.056  1.00  0.00     0.031 A 
HETATM   14  C8  UNL     1      23.435   0.176  53.780  1.00  0.00     0.032 A 
HETATM   15  C9  UNL     1      22.759  -0.928  54.251  1.00  0.00     0.046 A 
HETATM   16  C10 UNL     1      21.415  -1.151  54.049  1.00  0.00     0.138 A 
HETATM   17  F1  UNL     1      20.877  -2.288  54.572  1.00  0.00    -0.204 F 
HETATM   18  C11 UNL     1      20.718  -0.214  53.339  1.00  0.00     0.074 A 
HETATM   19 CL1  UNL     1      19.017  -0.509  53.090  1.00  0.00    -0.081 Cl
HETATM   20  C12 UNL     1      21.377   0.909  52.853  1.00  0.00     0.056 A 
ENDBRANCH  11  13
ENDBRANCH   1  11
BRANCH   1  21
HETATM   21  C13 UNL     1      24.291   3.706  50.837  1.00  0.00     0.145 C 
HETATM   22  C14 UNL     1      24.745   3.893  49.608  1.00  0.00     0.440 C 
HETATM   23  F2  UNL     1      24.552   5.033  48.902  1.00  0.00    -0.454 F 
BRANCH  21  24
HETATM   24  C15 UNL     1      23.522   4.711  51.605  1.00  0.00     0.157 C 
HETATM   25  O3  UNL     1      22.329   5.098  51.439  1.00  0.00    -0.649 OA
BRANCH  24  26
HETATM   26  O4  UNL     1      24.023   5.421  52.682  1.00  0.00    -0.776 OA
HETATM   27  H14 UNL     1      24.978   5.757  52.714  1.00  0.00     0.167 HD
ENDBRANCH  24  26
ENDBRANCH  21  24
ENDBRANCH   1  21
TORSDOF 8
ENDMDL
MODEL 5
REMARK VINA RESULT:      -7.8      2.093      2.767
REMARK  8 active torsions:
REMARK  status: ('A' for Active; 'I' for Inactive)
REMARK    1  A    between atoms: O1_2  and  C2_3 
REMARK    2  A    between atoms: C5_6  and  O2_7 
REMARK    3  A    between atoms: O2_7  and  C6_8 
REMARK    4  A    between atoms: C6_8  and  N1_9 
REMARK    5  A    between atoms: C6_8  and  C13_18 
REMARK    6  A    between atoms: N1_9  and  C7_10 
REMARK    7  A    between atoms: C13_18  and  C15_21 
REMARK    8  A    between atoms: C15_21  and  O4_23 
ROOT
HETATM    1  C6  UNL     1      25.093   0.484  52.528  1.00  0.00     0.245 C 
ENDROOT
BRANCH   1   2
HETATM    2  O2  UNL     1      24.061   0.366  53.485  1.00  0.00    -0.356 OA
BRANCH   2   3
HETATM    3  C5  UNL     1      23.158  -0.632  53.135  1.00  0.00     0.150 A 
HETATM    4  C4  UNL     1      22.486  -1.137  54.370  1.00  0.00     0.066 A 
HETATM    5  C3  UNL     1      20.991  -0.986  54.327  1.00  0.00     0.013 A 
HETATM    6  C2  UNL     1      20.194  -0.489  53.396  1.00  0.00     0.064 A 
HETATM    7  C17 UNL     1      20.879  -0.005  52.204  1.00  0.00     0.035 A 
HETATM    8  C16 UNL     1      22.194  -0.085  52.124  1.00  0.00     0.008 A 
BRANCH   6   9
HETATM    9  O1  UNL     1      18.811  -0.417  53.505  1.00  0.00    -0.356 OA
HETATM   10  C1  UNL     1      17.908  -1.454  53.305  1.00  0.00     0.210 C 
ENDBRANCH   6   9
ENDBRANCH   2   3
ENDBRANCH   1   2
BRANCH   1  11
HETATM   11  N1  UNL     1      25.501   1.875  52.490  1.00  0.00    -0.362 N 
HETATM   12  H9  UNL     1      26.030   2.293  53.308  1.00  0.00     0.162 HD
BRANCH  11  13
HETATM   13  C7  UNL     1      25.286   2.839  51.451  1.00  0.00     0.031 A 
HETATM   14  C8  UNL     1      24.060   3.424  51.151  1.00  0.00     0.032 A 
HETATM   15  C9  UNL     1      23.989   4.336  50.121  1.00  0.00     0.046 A 
HETATM   16  C10 UNL     1      25.068   4.714  49.353  1.00  0.00     0.138 A 
HETATM   17  F1  UNL     1      24.852   5.627  48.366  1.00  0.00    -0.204 F 
HETATM   18  C11 UNL     1      26.277   4.146  49.640  1.00  0.00     0.074 A 
HETATM   19 CL1  UNL     1      27.635   4.634  48.659  1.00  0.00    -0.081 Cl
HETATM   20  C12 UNL     1      26.375   3.224  50.673  1.00  0.00     0.056 A 
ENDBRANCH  11  13
ENDBRANCH   1  11
BRANCH   1  21
HETATM   21  C13 UNL     1      26.239  -0.287  53.138  1.00  0.00     0.145 C 
HETATM   22  C14 UNL     1      26.968  -1.197  52.513  1.00  0.00     0.440 C 
HETATM   23  F2  UNL     1      27.990  -1.870  53.095  1.00  0.00    -0.454 F 
BRANCH  21  24
HETATM   24  C15 UNL     1      26.433   0.112  54.550  1.00  0.00     0.157 C 
HETATM   25  O3  UNL     1      27.042   1.118  55.016  1.00  0.00    -0.649 OA
BRANCH  24  26
HETATM   26  O4  UNL     1      25.949  -0.596  55.635  1.00  0.00    -0.776 OA
HETATM   27  H14 UNL     1      24.967  -0.825  55.740  1.00  0.00     0.167 HD
ENDBRANCH  24  26
ENDBRANCH  21  24
ENDBRANCH   1  21
TORSDOF 8
ENDMDL
MODEL 6
REMARK VINA RESULT:      -7.8      3.536      7.729
REMARK  8 active torsions:
REMARK  status: ('A' for Active; 'I' for Inactive)
REMARK    1  A    between atoms: O1_2  and  C2_3 
REMARK    2  A    between atoms: C5_6  and  O2_7 
REMARK    3  A    between atoms: O2_7  and  C6_8 
REMARK    4  A    between atoms: C6_8  and  N1_9 
REMARK    5  A    between atoms: C6_8  and  C13_18 
REMARK    6  A    between atoms: N1_9  and  C7_10 
REMARK    7  A    between atoms: C13_18  and  C15_21 
REMARK    8  A    between atoms: C15_21  and  O4_23 
ROOT
HETATM    1  C6  UNL     1      25.435   2.961  51.105  1.00  0.00     0.245 C 
ENDROOT
BRANCH   1   2
HETATM    2  O2  UNL     1      25.402   4.322  50.731  1.00  0.00    -0.356 OA
BRANCH   2   3
HETATM    3  C5  UNL     1      25.655   4.479  49.372  1.00  0.00     0.150 A 
HETATM    4  C4  UNL     1      25.233   5.849  48.953  1.00  0.00     0.066 A 
HETATM    5  C3  UNL     1      26.358   6.653  48.360  1.00  0.00     0.013 A 
HETATM    6  C2  UNL     1      27.629   6.351  48.157  1.00  0.00     0.064 A 
HETATM    7  C17 UNL     1      28.009   5.008  48.576  1.00  0.00     0.035 A 
HETATM    8  C16 UNL     1      27.107   4.206  49.111  1.00  0.00     0.008 A 
BRANCH   6   9
HETATM    9  O1  UNL     1      28.559   7.213  47.592  1.00  0.00    -0.356 OA
HETATM   10  C1  UNL     1      29.503   7.975  48.268  1.00  0.00     0.210 C 
ENDBRANCH   6   9
ENDBRANCH   2   3
ENDBRANCH   1   2
BRANCH   1  11
HETATM   11  N1  UNL     1      26.231   2.857  52.313  1.00  0.00    -0.362 N 
HETATM   12  H9  UNL     1      26.203   3.634  53.033  1.00  0.00     0.162 HD
BRANCH  11  13
HETATM   13  C7  UNL     1      27.109   1.796  52.713  1.00  0.00     0.031 A 
HETATM   14  C8  UNL     1      28.339   1.978  53.338  1.00  0.00     0.032 A 
HETATM   15  C9  UNL     1      29.090   0.870  53.667  1.00  0.00     0.046 A 
HETATM   16  C10 UNL     1      28.700  -0.426  53.415  1.00  0.00     0.138 A 
HETATM   17  F1  UNL     1      29.544  -1.425  53.795  1.00  0.00    -0.204 F 
HETATM   18  C11 UNL     1      27.494  -0.615  52.802  1.00  0.00     0.074 A 
HETATM   19 CL1  UNL     1      27.012  -2.262  52.488  1.00  0.00    -0.081 Cl
HETATM   20  C12 UNL     1      26.718   0.485  52.460  1.00  0.00     0.056 A 
ENDBRANCH  11  13
ENDBRANCH   1  11
BRANCH   1  21
HETATM   21  C13 UNL     1      24.008   2.662  51.499  1.00  0.00     0.145 C 
HETATM   22  C14 UNL     1      23.342   1.562  51.188  1.00  0.00     0.440 C 
HETATM   23  F2  UNL     1      22.061   1.330  51.560  1.00  0.00    -0.454 F 
BRANCH  21  24
HETATM   24  C15 UNL     1      23.447   3.784  52.284  1.00  0.00     0.157 C 
HETATM   25  O3  UNL     1      22.337   4.377  52.145  1.00  0.00    -0.649 OA
BRANCH  24  26
HETATM   26  O4  UNL     1      24.088   4.389  53.350  1.00  0.00    -0.776 OA
HETATM   27  H14 UNL     1      23.678   5.160  53.865  1.00  0.00     0.167 HD
ENDBRANCH  24  26
ENDBRANCH  21  24
ENDBRANCH   1  21
TORSDOF 8
ENDMDL
MODEL 7
REMARK VINA RESULT:      -7.6      2.734      5.627
REMARK  8 active torsions:
REMARK  status: ('A' for Active; 'I' for Inactive)
REMARK    1  A    between atoms: O1_2  and  C2_3 
REMARK    2  A    between atoms: C5_6  and  O2_7 
REMARK    3  A    between atoms: O2_7  and  C6_8 
REMARK    4  A    between atoms: C6_8  and  N1_9 
REMARK    5  A    between atoms: C6_8  and  C13_18 
REMARK    6  A    between atoms: N1_9  and  C7_10 
REMARK    7  A    between atoms: C13_18  and  C15_21 
REMARK    8  A    between atoms: C15_21  and  O4_23 
ROOT
HETATM    1  C6  UNL     1      25.890   1.247  53.547  1.00  0.00     0.245 C 
ENDROOT
BRANCH   1   2
HETATM    2  O2  UNL     1      26.129   2.462  52.867  1.00  0.00    -0.356 OA
BRANCH   2   3
HETATM    3  C5  UNL     1      25.494   2.482  51.630  1.00  0.00     0.150 A 
HETATM    4  C4  UNL     1      24.448   3.549  51.635  1.00  0.00     0.066 A 
HETATM    5  C3  UNL     1      24.657   4.581  50.562  1.00  0.00     0.013 A 
HETATM    6  C2  UNL     1      25.596   4.695  49.638  1.00  0.00     0.064 A 
HETATM    7  C17 UNL     1      26.601   3.640  49.658  1.00  0.00     0.035 A 
HETATM    8  C16 UNL     1      26.524   2.675  50.556  1.00  0.00     0.008 A 
BRANCH   6   9
HETATM    9  O1  UNL     1      25.655   5.721  48.704  1.00  0.00    -0.356 OA
HETATM   10  C1  UNL     1      26.753   6.524  48.421  1.00  0.00     0.210 C 
ENDBRANCH   6   9
ENDBRANCH   2   3
ENDBRANCH   1   2
BRANCH   1  11
HETATM   11  N1  UNL     1      24.933   0.488  52.767  1.00  0.00    -0.362 N 
HETATM   12  H9  UNL     1      25.140   0.259  51.754  1.00  0.00     0.162 HD
BRANCH  11  13
HETATM   13  C7  UNL     1      23.664  -0.038  53.180  1.00  0.00     0.031 A 
HETATM   14  C8  UNL     1      23.461  -0.830  54.305  1.00  0.00     0.032 A 
HETATM   15  C9  UNL     1      22.188  -1.276  54.588  1.00  0.00     0.046 A 
HETATM   16  C10 UNL     1      21.084  -0.986  53.818  1.00  0.00     0.138 A 
HETATM   17  F1  UNL     1      19.885  -1.494  54.216  1.00  0.00    -0.204 F 
HETATM   18  C11 UNL     1      21.272  -0.208  52.710  1.00  0.00     0.074 A 
HETATM   19 CL1  UNL     1      19.865   0.151  51.744  1.00  0.00    -0.081 Cl
HETATM   20  C12 UNL     1      22.546   0.254  52.404  1.00  0.00     0.056 A 
ENDBRANCH  11  13
ENDBRANCH   1  11
BRANCH   1  21
HETATM   21  C13 UNL     1      27.208   0.516  53.448  1.00  0.00     0.145 C 
HETATM   22  C14 UNL     1      27.361  -0.735  53.046  1.00  0.00     0.440 C 
HETATM   23  F2  UNL     1      28.561  -1.358  52.970  1.00  0.00    -0.454 F 
BRANCH  21  24
HETATM   24  C15 UNL     1      28.318   1.398  53.875  1.00  0.00     0.157 C 
HETATM   25  O3  UNL     1      28.827   1.537  55.025  1.00  0.00    -0.649 OA
BRANCH  24  26
HETATM   26  O4  UNL     1      29.004   2.252  53.031  1.00  0.00    -0.776 OA
HETATM   27  H14 UNL     1      29.648   2.955  53.376  1.00  0.00     0.167 HD
ENDBRANCH  24  26
ENDBRANCH  21  24
ENDBRANCH   1  21
TORSDOF 8
ENDMDL
MODEL 8
REMARK VINA RESULT:      -7.5      2.527      5.387
REMARK  8 active torsions:
REMARK  status: ('A' for Active; 'I' for Inactive)
REMARK    1  A    between atoms: O1_2  and  C2_3 
REMARK    2  A    between atoms: C5_6  and  O2_7 
REMARK    3  A    between atoms: O2_7  and  C6_8 
REMARK    4  A    between atoms: C6_8  and  N1_9 
REMARK    5  A    between atoms: C6_8  and  C13_18 
REMARK    6  A    between atoms: N1_9  and  C7_10 
REMARK    7  A    between atoms: C13_18  and  C15_21 
REMARK    8  A    between atoms: C15_21  and  O4_23 
ROOT
HETATM    1  C6  UNL     1      23.453   0.341  53.591  1.00  0.00     0.245 C 
ENDROOT
BRANCH   1   2
HETATM    2  O2  UNL     1      24.211  -0.450  52.700  1.00  0.00    -0.356 OA
BRANCH   2   3
HETATM    3  C5  UNL     1      25.283  -1.055  53.348  1.00  0.00     0.150 A 
HETATM    4  C4  UNL     1      26.500  -0.941  52.489  1.00  0.00     0.066 A 
HETATM    5  C3  UNL     1      27.631  -0.219  53.168  1.00  0.00     0.013 A 
HETATM    6  C2  UNL     1      27.719   0.318  54.374  1.00  0.00     0.064 A 
HETATM    7  C17 UNL     1      26.517   0.190  55.187  1.00  0.00     0.035 A 
HETATM    8  C16 UNL     1      25.455  -0.425  54.699  1.00  0.00     0.008 A 
BRANCH   6   9
HETATM    9  O1  UNL     1      28.849   0.960  54.864  1.00  0.00    -0.356 OA
HETATM   10  C1  UNL     1      29.448   2.100  54.342  1.00  0.00     0.210 C 
ENDBRANCH   6   9
ENDBRANCH   2   3
ENDBRANCH   1   2
BRANCH   1  11
HETATM   11  N1  UNL     1      23.241   1.630  52.962  1.00  0.00    -0.362 N 
HETATM   12  H9  UNL     1      22.410   2.225  53.242  1.00  0.00     0.162 HD
BRANCH  11  13
HETATM   13  C7  UNL     1      24.034   2.271  51.953  1.00  0.00     0.031 A 
HETATM   14  C8  UNL     1      25.413   2.448  52.021  1.00  0.00     0.032 A 
HETATM   15  C9  UNL     1      26.055   3.087  50.983  1.00  0.00     0.046 A 
HETATM   16  C10 UNL     1      25.415   3.570  49.864  1.00  0.00     0.138 A 
HETATM   17  F1  UNL     1      26.177   4.181  48.915  1.00  0.00    -0.204 F 
HETATM   18  C11 UNL     1      24.061   3.401  49.787  1.00  0.00     0.074 A 
HETATM   19 CL1  UNL     1      23.263   4.019  48.364  1.00  0.00    -0.081 Cl
HETATM   20  C12 UNL     1      23.390   2.761  50.821  1.00  0.00     0.056 A 
ENDBRANCH  11  13
ENDBRANCH   1  11
BRANCH   1  21
HETATM   21  C13 UNL     1      22.110  -0.348  53.629  1.00  0.00     0.145 C 
HETATM   22  C14 UNL     1      21.766  -1.310  54.470  1.00  0.00     0.440 C 
HETATM   23  F2  UNL     1      20.550  -1.905  54.474  1.00  0.00    -0.454 F 
BRANCH  21  24
HETATM   24  C15 UNL     1      21.221   0.200  52.580  1.00  0.00     0.157 C 
HETATM   25  O3  UNL     1      20.198   0.934  52.706  1.00  0.00    -0.649 OA
BRANCH  24  26
HETATM   26  O4  UNL     1      21.385  -0.021  51.224  1.00  0.00    -0.776 OA
HETATM   27  H14 UNL     1      21.147  -0.904  50.785  1.00  0.00     0.167 HD
ENDBRANCH  24  26
ENDBRANCH  21  24
ENDBRANCH   1  21
TORSDOF 8
ENDMDL
MODEL 9
REMARK VINA RESULT:      -7.4      3.874      8.272
REMARK  8 active torsions:
REMARK  status: ('A' for Active; 'I' for Inactive)
REMARK    1  A    between atoms: O1_2  and  C2_3 
REMARK    2  A    between atoms: C5_6  and  O2_7 
REMARK    3  A    between atoms: O2_7  and  C6_8 
REMARK    4  A    between atoms: C6_8  and  N1_9 
REMARK    5  A    between atoms: C6_8  and  C13_18 
REMARK    6  A    between atoms: N1_9  and  C7_10 
REMARK    7  A    between atoms: C13_18  and  C15_21 
REMARK    8  A    between atoms: C15_21  and  O4_23 
ROOT
HETATM    1  C6  UNL     1      25.033   4.306  50.283  1.00  0.00     0.245 C 
ENDROOT
BRANCH   1   2
HETATM    2  O2  UNL     1      25.865   5.424  50.052  1.00  0.00    -0.356 OA
BRANCH   2   3
HETATM    3  C5  UNL     1      26.326   5.449  48.740  1.00  0.00     0.150 A 
HETATM    4  C4  UNL     1      26.326   6.860  48.250  1.00  0.00     0.066 A 
HETATM    5  C3  UNL     1      27.685   7.329  47.811  1.00  0.00     0.013 A 
HETATM    6  C2  UNL     1      28.853   6.708  47.790  1.00  0.00     0.064 A 
HETATM    7  C17 UNL     1      28.821   5.334  48.274  1.00  0.00     0.035 A 
HETATM    8  C16 UNL     1      27.682   4.809  48.688  1.00  0.00     0.008 A 
BRANCH   6   9
HETATM    9  O1  UNL     1      30.037   7.283  47.349  1.00  0.00    -0.356 OA
HETATM   10  C1  UNL     1      31.255   6.640  47.168  1.00  0.00     0.210 C 
ENDBRANCH   6   9
ENDBRANCH   2   3
ENDBRANCH   1   2
BRANCH   1  11
HETATM   11  N1  UNL     1      25.397   3.746  51.569  1.00  0.00    -0.362 N 
HETATM   12  H9  UNL     1      25.527   4.383  52.406  1.00  0.00     0.162 HD
BRANCH  11  13
HETATM   13  C7  UNL     1      25.625   2.371  51.912  1.00  0.00     0.031 A 
HETATM   14  C8  UNL     1      26.760   1.645  51.565  1.00  0.00     0.032 A 
HETATM   15  C9  UNL     1      26.852   0.326  51.953  1.00  0.00     0.046 A 
HETATM   16  C10 UNL     1      25.881  -0.334  52.672  1.00  0.00     0.138 A 
HETATM   17  F1  UNL     1      26.105  -1.639  52.987  1.00  0.00    -0.204 F 
HETATM   18  C11 UNL     1      24.762   0.371  53.017  1.00  0.00     0.074 A 
HETATM   19 CL1  UNL     1      23.539  -0.478  53.927  1.00  0.00    -0.081 Cl
HETATM   20  C12 UNL     1      24.644   1.702  52.638  1.00  0.00     0.056 A 
ENDBRANCH  11  13
ENDBRANCH   1  11
BRANCH   1  21
HETATM   21  C13 UNL     1      23.658   4.909  50.446  1.00  0.00     0.145 C 
HETATM   22  C14 UNL     1      22.731   4.967  49.504  1.00  0.00     0.440 C 
HETATM   23  F2  UNL     1      21.507   5.517  49.688  1.00  0.00    -0.454 F 
BRANCH  21  24
HETATM   24  C15 UNL     1      23.489   5.439  51.817  1.00  0.00     0.157 C 
HETATM   25  O3  UNL     1      22.682   5.072  52.720  1.00  0.00    -0.649 OA
BRANCH  24  26
HETATM   26  O4  UNL     1      24.232   6.478  52.350  1.00  0.00    -0.776 OA
HETATM   27  H14 UNL     1      23.804   7.265  52.823  1.00  0.00     0.167 HD
ENDBRANCH  24  26
ENDBRANCH  21  24
ENDBRANCH   1  21
TORSDOF 8
ENDMDL
