MODEL 1
REMARK VINA RESULT:      -8.1      0.000      0.000
REMARK  4 active torsions:
REMARK  status: ('A' for Active; 'I' for Inactive)
REMARK    1  A    between atoms: N1_2  and  C3_4 
REMARK    2  A    between atoms: C3_4  and  C4_5 
REMARK    3  A    between atoms: C5_6  and  C6_7 
REMARK       I    between atoms: C6_7  and  N2_9 
REMARK    4  A    between atoms: N2_9  and  C7_10 
ROOT
HETATM    1  C7  UNL     1      24.857   3.027  51.712  1.00  0.00     0.042 C 
HETATM    2  C8  UNL     1      23.628   2.761  51.194  1.00  0.00    -0.032 C 
HETATM    3  C9  UNL     1      23.240   4.060  50.528  1.00  0.00     0.017 C 
HETATM    4  C10 UNL     1      22.801   5.252  50.967  1.00  0.00    -0.041 C 
HETATM    5  C11 UNL     1      22.456   5.095  52.253  1.00  0.00     0.010 C 
HETATM    6  C12 UNL     1      21.708   3.969  52.246  1.00  0.00     0.025 C 
HETATM    7  C13 UNL     1      20.605   3.832  51.326  1.00  0.00    -0.007 C 
HETATM    8  C14 UNL     1      19.822   2.785  51.715  1.00  0.00    -0.022 C 
HETATM    9  C15 UNL     1      20.383   2.168  52.904  1.00  0.00     0.077 C 
HETATM   10  C16 UNL     1      20.655   0.703  52.801  1.00  0.00     0.022 C 
HETATM   11  C17 UNL     1      19.492  -0.179  52.766  1.00  0.00     0.095 C 
HETATM   12  N3  UNL     1      18.547  -0.882  52.721  1.00  0.00    -0.192 NA
HETATM   13  C18 UNL     1      21.838   0.064  52.726  1.00  0.00    -0.001 C 
HETATM   14  C19 UNL     1      23.035   0.991  52.728  1.00  0.00     0.037 C 
HETATM   15  C20 UNL     1      24.322   0.275  52.973  1.00  0.00     0.177 C 
HETATM   16  O2  UNL     1      25.428   1.007  52.648  1.00  0.00    -0.385 OA
HETATM   17  C21 UNL     1      25.405   2.371  52.923  1.00  0.00     0.225 C 
HETATM   18  C22 UNL     1      23.007   1.442  51.285  1.00  0.00     0.051 C 
ENDROOT
BRANCH   1  19
HETATM   19  N2  UNL     1      25.474   4.018  50.844  1.00  0.00    -0.325 N 
HETATM   20  C6  UNL     1      26.450   3.832  49.845  1.00  0.00     0.245 C 
HETATM   21  O1  UNL     1      26.866   2.658  49.671  1.00  0.00    -0.268 OA
HETATM   22  H11 UNL     1      25.315   5.040  50.810  1.00  0.00     0.169 HD
BRANCH  20  23
HETATM   23  C5  UNL     1      27.072   4.768  48.961  1.00  0.00     0.072 C 
HETATM   24  C4  UNL     1      26.716   6.017  48.934  1.00  0.00     0.008 C 
BRANCH  24  25
HETATM   25  C3  UNL     1      27.424   6.909  47.982  1.00  0.00     0.299 C 
BRANCH  25  26
HETATM   26  N1  UNL     1      27.552   8.208  48.608  1.00  0.00     0.083 N 
HETATM   27  C1  UNL     1      28.929   8.502  48.936  1.00  0.00     0.309 C 
HETATM   28  C2  UNL     1      26.702   8.320  49.756  1.00  0.00     0.309 C 
ENDBRANCH  25  26
ENDBRANCH  24  25
ENDBRANCH  20  23
ENDBRANCH   1  19
TORSDOF 4
ENDMDL
MODEL 2
REMARK VINA RESULT:      -7.9      4.104      5.480
REMARK  4 active torsions:
REMARK  status: ('A' for Active; 'I' for Inactive)
REMARK    1  A    between atoms: N1_2  and  C3_4 
REMARK    2  A    between atoms: C3_4  and  C4_5 
REMARK    3  A    between atoms: C5_6  and  C6_7 
REMARK       I    between atoms: C6_7  and  N2_9 
REMARK    4  A    between atoms: N2_9  and  C7_10 
ROOT
HETATM    1  C7  UNL     1      22.161   0.402  53.236  1.00  0.00     0.042 C 
HETATM    2  C8  UNL     1      21.856   0.695  51.943  1.00  0.00    -0.032 C 
HETATM    3  C9  UNL     1      23.050   1.493  51.473  1.00  0.00     0.017 C 
HETATM    4  C10 UNL     1      23.477   2.753  51.663  1.00  0.00    -0.041 C 
HETATM    5  C11 UNL     1      22.461   3.434  52.212  1.00  0.00     0.010 C 
HETATM    6  C12 UNL     1      21.403   3.103  51.441  1.00  0.00     0.025 C 
HETATM    7  C13 UNL     1      21.478   3.227  50.006  1.00  0.00    -0.007 C 
HETATM    8  C14 UNL     1      20.221   3.149  49.481  1.00  0.00    -0.022 C 
HETATM    9  C15 UNL     1      19.255   2.951  50.547  1.00  0.00     0.077 C 
HETATM   10  C16 UNL     1      18.371   1.757  50.401  1.00  0.00     0.022 C 
HETATM   11  C17 UNL     1      17.356   1.818  49.352  1.00  0.00     0.095 C 
HETATM   12  N3  UNL     1      16.551   1.868  48.492  1.00  0.00    -0.192 NA
HETATM   13  C18 UNL     1      18.377   0.607  51.102  1.00  0.00    -0.001 C 
HETATM   14  C19 UNL     1      19.455   0.543  52.162  1.00  0.00     0.037 C 
HETATM   15  C20 UNL     1      19.248  -0.573  53.132  1.00  0.00     0.177 C 
HETATM   16  O2  UNL     1      20.355  -0.865  53.876  1.00  0.00    -0.385 OA
HETATM   17  C21 UNL     1      21.150   0.195  54.298  1.00  0.00     0.225 C 
HETATM   18  C22 UNL     1      20.644   0.204  51.291  1.00  0.00     0.051 C 
ENDROOT
BRANCH   1  19
HETATM   19  N2  UNL     1      23.612   0.317  53.316  1.00  0.00    -0.325 N 
HETATM   20  C6  UNL     1      24.405  -0.461  54.181  1.00  0.00     0.245 C 
HETATM   21  O1  UNL     1      23.796  -1.182  55.013  1.00  0.00    -0.268 OA
HETATM   22  H11 UNL     1      24.323   0.822  52.758  1.00  0.00     0.169 HD
BRANCH  20  23
HETATM   23  C5  UNL     1      25.826  -0.587  54.287  1.00  0.00     0.072 C 
HETATM   24  C4  UNL     1      26.552   0.346  54.825  1.00  0.00     0.008 C 
BRANCH  24  25
HETATM   25  C3  UNL     1      28.017   0.120  54.890  1.00  0.00     0.299 C 
BRANCH  25  26
HETATM   26  N1  UNL     1      28.595   0.612  53.657  1.00  0.00     0.083 N 
HETATM   27  C1  UNL     1      29.887   0.014  53.404  1.00  0.00     0.309 C 
HETATM   28  C2  UNL     1      28.665   2.042  53.648  1.00  0.00     0.309 C 
ENDBRANCH  25  26
ENDBRANCH  24  25
ENDBRANCH  20  23
ENDBRANCH   1  19
TORSDOF 4
ENDMDL
MODEL 3
REMARK VINA RESULT:      -7.8      2.096      3.464
REMARK  4 active torsions:
REMARK  status: ('A' for Active; 'I' for Inactive)
REMARK    1  A    between atoms: N1_2  and  C3_4 
REMARK    2  A    between atoms: C3_4  and  C4_5 
REMARK    3  A    between atoms: C5_6  and  C6_7 
REMARK       I    between atoms: C6_7  and  N2_9 
REMARK    4  A    between atoms: N2_9  and  C7_10 
ROOT
HETATM    1  C7  UNL     1      24.245   3.066  50.279  1.00  0.00     0.042 C 
HETATM    2  C8  UNL     1      24.232   2.646  51.573  1.00  0.00    -0.032 C 
HETATM    3  C9  UNL     1      25.644   2.908  52.040  1.00  0.00     0.017 C 
HETATM    4  C10 UNL     1      26.829   2.304  51.851  1.00  0.00    -0.041 C 
HETATM    5  C11 UNL     1      26.577   1.105  51.304  1.00  0.00     0.010 C 
HETATM    6  C12 UNL     1      25.588   0.605  52.077  1.00  0.00     0.025 C 
HETATM    7  C13 UNL     1      25.730   0.573  53.512  1.00  0.00    -0.007 C 
HETATM    8  C14 UNL     1      24.777  -0.248  54.040  1.00  0.00    -0.022 C 
HETATM    9  C15 UNL     1      23.946  -0.783  52.976  1.00  0.00     0.077 C 
HETATM   10  C16 UNL     1      22.480  -0.545  53.123  1.00  0.00     0.022 C 
HETATM   11  C17 UNL     1      21.796  -1.294  54.174  1.00  0.00     0.095 C 
HETATM   12  N3  UNL     1      21.255  -1.890  55.035  1.00  0.00    -0.192 NA
HETATM   13  C18 UNL     1      21.680   0.281  52.421  1.00  0.00    -0.001 C 
HETATM   14  C19 UNL     1      22.406   1.077  51.358  1.00  0.00     0.037 C 
HETATM   15  C20 UNL     1      21.478   1.730  50.388  1.00  0.00     0.177 C 
HETATM   16  O2  UNL     1      22.066   2.710  49.641  1.00  0.00    -0.385 OA
HETATM   17  C21 UNL     1      23.375   2.505  49.218  1.00  0.00     0.225 C 
HETATM   18  C22 UNL     1      23.022   2.152  52.226  1.00  0.00     0.051 C 
ENDROOT
BRANCH   1  19
HETATM   19  N2  UNL     1      25.224   4.138  50.195  1.00  0.00    -0.325 N 
HETATM   20  C6  UNL     1      25.220   5.276  49.366  1.00  0.00     0.245 C 
HETATM   21  O1  UNL     1      24.249   5.397  48.574  1.00  0.00    -0.268 OA
HETATM   22  H11 UNL     1      26.107   4.253  50.723  1.00  0.00     0.169 HD
BRANCH  20  23
HETATM   23  C5  UNL     1      26.148   6.359  49.259  1.00  0.00     0.072 C 
HETATM   24  C4  UNL     1      27.184   6.290  48.478  1.00  0.00     0.008 C 
BRANCH  24  25
HETATM   25  C3  UNL     1      28.087   7.468  48.436  1.00  0.00     0.299 C 
BRANCH  25  26
HETATM   26  N1  UNL     1      27.316   8.629  48.828  1.00  0.00     0.083 N 
HETATM   27  C1  UNL     1      26.945   9.428  47.682  1.00  0.00     0.309 C 
HETATM   28  C2  UNL     1      28.010   9.407  49.811  1.00  0.00     0.309 C 
ENDBRANCH  25  26
ENDBRANCH  24  25
ENDBRANCH  20  23
ENDBRANCH   1  19
TORSDOF 4
ENDMDL
MODEL 4
REMARK VINA RESULT:      -7.6      3.497      9.177
REMARK  4 active torsions:
REMARK  status: ('A' for Active; 'I' for Inactive)
REMARK    1  A    between atoms: N1_2  and  C3_4 
REMARK    2  A    between atoms: C3_4  and  C4_5 
REMARK    3  A    between atoms: C5_6  and  C6_7 
REMARK       I    between atoms: C6_7  and  N2_9 
REMARK    4  A    between atoms: N2_9  and  C7_10 
ROOT
HETATM    1  C7  UNL     1      19.644   1.464  51.948  1.00  0.00     0.042 C 
HETATM    2  C8  UNL     1      20.827   0.818  51.764  1.00  0.00    -0.032 C 
HETATM    3  C9  UNL     1      20.624  -0.496  52.482  1.00  0.00     0.017 C 
HETATM    4  C10 UNL     1      20.612  -0.877  53.770  1.00  0.00    -0.041 C 
HETATM    5  C11 UNL     1      21.110   0.142  54.486  1.00  0.00     0.010 C 
HETATM    6  C12 UNL     1      22.227   0.488  53.810  1.00  0.00     0.025 C 
HETATM    7  C13 UNL     1      23.207  -0.511  53.460  1.00  0.00    -0.007 C 
HETATM    8  C14 UNL     1      24.365   0.106  53.084  1.00  0.00    -0.022 C 
HETATM    9  C15 UNL     1      24.197   1.547  53.151  1.00  0.00     0.077 C 
HETATM   10  C16 UNL     1      24.498   2.289  51.891  1.00  0.00     0.022 C 
HETATM   11  C17 UNL     1      25.902   2.367  51.496  1.00  0.00     0.095 C 
HETATM   12  N3  UNL     1      27.035   2.411  51.175  1.00  0.00    -0.192 NA
HETATM   13  C18 UNL     1      23.649   2.903  51.044  1.00  0.00    -0.001 C 
HETATM   14  C19 UNL     1      22.194   2.785  51.446  1.00  0.00     0.037 C 
HETATM   15  C20 UNL     1      21.309   3.727  50.699  1.00  0.00     0.177 C 
HETATM   16  O2  UNL     1      19.982   3.417  50.785  1.00  0.00    -0.385 OA
HETATM   17  C21 UNL     1      19.506   2.938  52.002  1.00  0.00     0.225 C 
HETATM   18  C22 UNL     1      21.912   1.380  50.963  1.00  0.00     0.051 C 
ENDROOT
BRANCH   1  19
HETATM   19  N2  UNL     1      18.616   0.439  52.046  1.00  0.00    -0.325 N 
HETATM   20  C6  UNL     1      17.553   0.167  51.164  1.00  0.00     0.245 C 
HETATM   21  O1  UNL     1      17.454   0.906  50.151  1.00  0.00    -0.268 OA
HETATM   22  H11 UNL     1      18.476  -0.270  52.787  1.00  0.00     0.169 HD
BRANCH  20  23
HETATM   23  C5  UNL     1      16.532  -0.834  51.210  1.00  0.00     0.072 C 
HETATM   24  C4  UNL     1      16.378  -1.599  52.249  1.00  0.00     0.008 C 
BRANCH  24  25
HETATM   25  C3  UNL     1      15.289  -2.605  52.201  1.00  0.00     0.299 C 
BRANCH  25  26
HETATM   26  N1  UNL     1      15.633  -3.672  53.118  1.00  0.00     0.083 N 
HETATM   27  C1  UNL     1      17.037  -3.639  53.462  1.00  0.00     0.309 C 
HETATM   28  C2  UNL     1      15.246  -4.950  52.599  1.00  0.00     0.309 C 
ENDBRANCH  25  26
ENDBRANCH  24  25
ENDBRANCH  20  23
ENDBRANCH   1  19
TORSDOF 4
ENDMDL
MODEL 5
REMARK VINA RESULT:      -7.5      2.822      4.414
REMARK  4 active torsions:
REMARK  status: ('A' for Active; 'I' for Inactive)
REMARK    1  A    between atoms: N1_2  and  C3_4 
REMARK    2  A    between atoms: C3_4  and  C4_5 
REMARK    3  A    between atoms: C5_6  and  C6_7 
REMARK       I    between atoms: C6_7  and  N2_9 
REMARK    4  A    between atoms: N2_9  and  C7_10 
ROOT
HETATM    1  C7  UNL     1      23.255   3.205  49.859  1.00  0.00     0.042 C 
HETATM    2  C8  UNL     1      24.007   3.173  50.992  1.00  0.00    -0.032 C 
HETATM    3  C9  UNL     1      25.148   4.113  50.682  1.00  0.00     0.017 C 
HETATM    4  C10 UNL     1      26.262   4.032  49.935  1.00  0.00    -0.041 C 
HETATM    5  C11 UNL     1      26.427   2.740  49.613  1.00  0.00     0.010 C 
HETATM    6  C12 UNL     1      26.255   2.096  50.788  1.00  0.00     0.025 C 
HETATM    7  C13 UNL     1      26.994   2.503  51.958  1.00  0.00    -0.007 C 
HETATM    8  C14 UNL     1      26.902   1.530  52.910  1.00  0.00    -0.022 C 
HETATM    9  C15 UNL     1      26.080   0.438  52.418  1.00  0.00     0.077 C 
HETATM   10  C16 UNL     1      24.915   0.073  53.276  1.00  0.00     0.022 C 
HETATM   11  C17 UNL     1      25.216  -0.589  54.543  1.00  0.00     0.095 C 
HETATM   12  N3  UNL     1      25.470  -1.107  55.571  1.00  0.00    -0.192 NA
HETATM   13  C18 UNL     1      23.602   0.274  53.055  1.00  0.00    -0.001 C 
HETATM   14  C19 UNL     1      23.304   0.991  51.755  1.00  0.00     0.037 C 
HETATM   15  C20 UNL     1      21.864   0.917  51.369  1.00  0.00     0.177 C 
HETATM   16  O2  UNL     1      21.506   1.820  50.409  1.00  0.00    -0.385 OA
HETATM   17  C21 UNL     1      22.418   2.076  49.390  1.00  0.00     0.225 C 
HETATM   18  C22 UNL     1      23.614   2.411  52.175  1.00  0.00     0.051 C 
ENDROOT
BRANCH   1  19
HETATM   19  N2  UNL     1      23.433   4.525  49.273  1.00  0.00    -0.325 N 
HETATM   20  C6  UNL     1      22.544   5.616  49.267  1.00  0.00     0.245 C 
HETATM   21  O1  UNL     1      21.433   5.445  49.832  1.00  0.00    -0.268 OA
HETATM   22  H11 UNL     1      24.243   4.896  48.746  1.00  0.00     0.169 HD
BRANCH  20  23
HETATM   23  C5  UNL     1      22.680   6.930  48.720  1.00  0.00     0.072 C 
HETATM   24  C4  UNL     1      23.461   7.815  49.264  1.00  0.00     0.008 C 
BRANCH  24  25
HETATM   25  C3  UNL     1      23.535   9.149  48.619  1.00  0.00     0.299 C 
BRANCH  25  26
HETATM   26  N1  UNL     1      24.930   9.531  48.555  1.00  0.00     0.083 N 
HETATM   27  C1  UNL     1      25.534   9.113  47.310  1.00  0.00     0.309 C 
HETATM   28  C2  UNL     1      25.658   9.037  49.686  1.00  0.00     0.309 C 
ENDBRANCH  25  26
ENDBRANCH  24  25
ENDBRANCH  20  23
ENDBRANCH   1  19
TORSDOF 4
ENDMDL
MODEL 6
REMARK VINA RESULT:      -7.4      3.783      8.481
REMARK  4 active torsions:
REMARK  status: ('A' for Active; 'I' for Inactive)
REMARK    1  A    between atoms: N1_2  and  C3_4 
REMARK    2  A    between atoms: C3_4  and  C4_5 
REMARK    3  A    between atoms: C5_6  and  C6_7 
REMARK       I    between atoms: C6_7  and  N2_9 
REMARK    4  A    between atoms: N2_9  and  C7_10 
ROOT
HETATM    1  C7  UNL     1      20.400   2.429  51.654  1.00  0.00     0.042 C 
HETATM    2  C8  UNL     1      21.206   1.337  51.565  1.00  0.00    -0.032 C 
HETATM    3  C9  UNL     1      20.278   0.189  51.885  1.00  0.00     0.017 C 
HETATM    4  C10 UNL     1      19.734  -0.299  53.013  1.00  0.00    -0.041 C 
HETATM    5  C11 UNL     1      20.376   0.275  54.040  1.00  0.00     0.010 C 
HETATM    6  C12 UNL     1      21.680   0.145  53.712  1.00  0.00     0.025 C 
HETATM    7  C13 UNL     1      22.214  -1.142  53.337  1.00  0.00    -0.007 C 
HETATM    8  C14 UNL     1      23.577  -1.091  53.367  1.00  0.00    -0.022 C 
HETATM    9  C15 UNL     1      24.009   0.244  53.745  1.00  0.00     0.077 C 
HETATM   10  C16 UNL     1      24.943   0.912  52.791  1.00  0.00     0.022 C 
HETATM   11  C17 UNL     1      26.302   0.379  52.722  1.00  0.00     0.095 C 
HETATM   12  N3  UNL     1      27.391  -0.068  52.661  1.00  0.00    -0.192 NA
HETATM   13  C18 UNL     1      24.712   1.949  51.963  1.00  0.00    -0.001 C 
HETATM   14  C19 UNL     1      23.292   2.469  52.019  1.00  0.00     0.037 C 
HETATM   15  C20 UNL     1      23.136   3.798  51.357  1.00  0.00     0.177 C 
HETATM   16  O2  UNL     1      21.838   4.131  51.092  1.00  0.00    -0.385 OA
HETATM   17  C21 UNL     1      20.875   3.780  52.033  1.00  0.00     0.225 C 
HETATM   18  C22 UNL     1      22.607   1.427  51.163  1.00  0.00     0.051 C 
ENDROOT
BRANCH   1  19
HETATM   19  N2  UNL     1      19.060   1.993  51.288  1.00  0.00    -0.325 N 
HETATM   20  C6  UNL     1      17.838   2.678  51.431  1.00  0.00     0.245 C 
HETATM   21  O1  UNL     1      17.887   3.821  51.954  1.00  0.00    -0.268 OA
HETATM   22  H11 UNL     1      18.763   1.096  50.865  1.00  0.00     0.169 HD
BRANCH  20  23
HETATM   23  C5  UNL     1      16.506   2.298  51.075  1.00  0.00     0.072 C 
HETATM   24  C4  UNL     1      15.533   2.350  51.934  1.00  0.00     0.008 C 
BRANCH  24  25
HETATM   25  C3  UNL     1      14.186   1.937  51.466  1.00  0.00     0.299 C 
BRANCH  25  26
HETATM   26  N1  UNL     1      13.429   1.509  52.623  1.00  0.00     0.083 N 
HETATM   27  C1  UNL     1      13.076   2.630  53.466  1.00  0.00     0.309 C 
HETATM   28  C2  UNL     1      14.127   0.497  53.358  1.00  0.00     0.309 C 
ENDBRANCH  25  26
ENDBRANCH  24  25
ENDBRANCH  20  23
ENDBRANCH   1  19
TORSDOF 4
ENDMDL
MODEL 7
REMARK VINA RESULT:      -7.2      3.445      5.779
REMARK  4 active torsions:
REMARK  status: ('A' for Active; 'I' for Inactive)
REMARK    1  A    between atoms: N1_2  and  C3_4 
REMARK    2  A    between atoms: C3_4  and  C4_5 
REMARK    3  A    between atoms: C5_6  and  C6_7 
REMARK       I    between atoms: C6_7  and  N2_9 
REMARK    4  A    between atoms: N2_9  and  C7_10 
ROOT
HETATM    1  C7  UNL     1      22.128   2.033  51.285  1.00  0.00     0.042 C 
HETATM    2  C8  UNL     1      23.272   2.453  51.890  1.00  0.00    -0.032 C 
HETATM    3  C9  UNL     1      23.665   3.672  51.089  1.00  0.00     0.017 C 
HETATM    4  C10 UNL     1      24.225   3.870  49.884  1.00  0.00    -0.041 C 
HETATM    5  C11 UNL     1      24.702   2.686  49.472  1.00  0.00     0.010 C 
HETATM    6  C12 UNL     1      25.371   2.222  50.549  1.00  0.00     0.025 C 
HETATM    7  C13 UNL     1      26.352   3.047  51.211  1.00  0.00    -0.007 C 
HETATM    8  C14 UNL     1      27.106   2.271  52.042  1.00  0.00    -0.022 C 
HETATM    9  C15 UNL     1      26.644   0.895  51.983  1.00  0.00     0.077 C 
HETATM   10  C16 UNL     1      26.270   0.285  53.293  1.00  0.00     0.022 C 
HETATM   11  C17 UNL     1      27.364  -0.013  54.213  1.00  0.00     0.095 C 
HETATM   12  N3  UNL     1      28.251  -0.235  54.957  1.00  0.00    -0.192 NA
HETATM   13  C18 UNL     1      25.048  -0.029  53.763  1.00  0.00    -0.001 C 
HETATM   14  C19 UNL     1      23.920   0.316  52.815  1.00  0.00     0.037 C 
HETATM   15  C20 UNL     1      22.626  -0.323  53.196  1.00  0.00     0.177 C 
HETATM   16  O2  UNL     1      21.540   0.227  52.578  1.00  0.00    -0.385 OA
HETATM   17  C21 UNL     1      21.679   0.622  51.251  1.00  0.00     0.225 C 
HETATM   18  C22 UNL     1      23.815   1.802  53.080  1.00  0.00     0.051 C 
ENDROOT
BRANCH   1  19
HETATM   19  N2  UNL     1      21.481   3.217  50.741  1.00  0.00    -0.325 N 
HETATM   20  C6  UNL     1      20.327   3.883  51.197  1.00  0.00     0.245 C 
HETATM   21  O1  UNL     1      19.756   3.397  52.207  1.00  0.00    -0.268 OA
HETATM   22  H11 UNL     1      21.748   3.779  49.913  1.00  0.00     0.169 HD
BRANCH  20  23
HETATM   23  C5  UNL     1      19.667   5.052  50.707  1.00  0.00     0.072 C 
HETATM   24  C4  UNL     1      20.055   5.644  49.617  1.00  0.00     0.008 C 
BRANCH  24  25
HETATM   25  C3  UNL     1      19.302   6.850  49.190  1.00  0.00     0.299 C 
BRANCH  25  26
HETATM   26  N1  UNL     1      19.727   7.182  47.846  1.00  0.00     0.083 N 
HETATM   27  C1  UNL     1      20.563   6.144  47.286  1.00  0.00     0.309 C 
HETATM   28  C2  UNL     1      20.374   8.460  47.805  1.00  0.00     0.309 C 
ENDBRANCH  25  26
ENDBRANCH  24  25
ENDBRANCH  20  23
ENDBRANCH   1  19
TORSDOF 4
ENDMDL
MODEL 8
REMARK VINA RESULT:      -7.1      4.949      8.220
REMARK  4 active torsions:
REMARK  status: ('A' for Active; 'I' for Inactive)
REMARK    1  A    between atoms: N1_2  and  C3_4 
REMARK    2  A    between atoms: C3_4  and  C4_5 
REMARK    3  A    between atoms: C5_6  and  C6_7 
REMARK       I    between atoms: C6_7  and  N2_9 
REMARK    4  A    between atoms: N2_9  and  C7_10 
ROOT
HETATM    1  C7  UNL     1      19.201   0.873  52.049  1.00  0.00     0.042 C 
HETATM    2  C8  UNL     1      20.297   1.331  52.712  1.00  0.00    -0.032 C 
HETATM    3  C9  UNL     1      20.676   2.576  51.946  1.00  0.00     0.017 C 
HETATM    4  C10 UNL     1      21.282   2.815  50.771  1.00  0.00    -0.041 C 
HETATM    5  C11 UNL     1      21.826   1.657  50.367  1.00  0.00     0.010 C 
HETATM    6  C12 UNL     1      22.464   1.205  51.469  1.00  0.00     0.025 C 
HETATM    7  C13 UNL     1      23.379   2.061  52.186  1.00  0.00    -0.007 C 
HETATM    8  C14 UNL     1      24.125   1.305  53.042  1.00  0.00    -0.022 C 
HETATM    9  C15 UNL     1      23.724  -0.088  52.944  1.00  0.00     0.077 C 
HETATM   10  C16 UNL     1      23.315  -0.731  54.228  1.00  0.00     0.022 C 
HETATM   11  C17 UNL     1      24.376  -0.997  55.195  1.00  0.00     0.095 C 
HETATM   12  N3  UNL     1      25.237  -1.193  55.976  1.00  0.00    -0.192 NA
HETATM   13  C18 UNL     1      22.086  -1.102  54.636  1.00  0.00    -0.001 C 
HETATM   14  C19 UNL     1      20.991  -0.790  53.640  1.00  0.00     0.037 C 
HETATM   15  C20 UNL     1      19.708  -1.487  53.952  1.00  0.00     0.177 C 
HETATM   16  O2  UNL     1      18.629  -0.974  53.291  1.00  0.00    -0.385 OA
HETATM   17  C21 UNL     1      18.814  -0.555  51.977  1.00  0.00     0.225 C 
HETATM   18  C22 UNL     1      20.811   0.686  53.918  1.00  0.00     0.051 C 
ENDROOT
BRANCH   1  19
HETATM   19  N2  UNL     1      18.532   2.038  51.490  1.00  0.00    -0.325 N 
HETATM   20  C6  UNL     1      17.152   2.304  51.396  1.00  0.00     0.245 C 
HETATM   21  O1  UNL     1      16.373   1.422  51.842  1.00  0.00    -0.268 OA
HETATM   22  H11 UNL     1      18.949   2.877  51.051  1.00  0.00     0.169 HD
BRANCH  20  23
HETATM   23  C5  UNL     1      16.452   3.434  50.871  1.00  0.00     0.072 C 
HETATM   24  C4  UNL     1      15.200   3.359  50.531  1.00  0.00     0.008 C 
BRANCH  24  25
HETATM   25  C3  UNL     1      14.562   4.589  49.998  1.00  0.00     0.299 C 
BRANCH  25  26
HETATM   26  N1  UNL     1      13.203   4.631  50.494  1.00  0.00     0.083 N 
HETATM   27  C1  UNL     1      12.896   3.465  51.292  1.00  0.00     0.309 C 
HETATM   28  C2  UNL     1      12.263   4.801  49.427  1.00  0.00     0.309 C 
ENDBRANCH  25  26
ENDBRANCH  24  25
ENDBRANCH  20  23
ENDBRANCH   1  19
TORSDOF 4
ENDMDL
MODEL 9
REMARK VINA RESULT:      -6.9      3.357      4.604
REMARK  4 active torsions:
REMARK  status: ('A' for Active; 'I' for Inactive)
REMARK    1  A    between atoms: N1_2  and  C3_4 
REMARK    2  A    between atoms: C3_4  and  C4_5 
REMARK    3  A    between atoms: C5_6  and  C6_7 
REMARK       I    between atoms: C6_7  and  N2_9 
REMARK    4  A    between atoms: N2_9  and  C7_10 
ROOT
HETATM    1  C7  UNL     1      22.643   3.759  50.670  1.00  0.00     0.042 C 
HETATM    2  C8  UNL     1      22.081   2.525  50.785  1.00  0.00    -0.032 C 
HETATM    3  C9  UNL     1      20.774   2.664  50.039  1.00  0.00     0.017 C 
HETATM    4  C10 UNL     1      19.588   3.234  50.311  1.00  0.00    -0.041 C 
HETATM    5  C11 UNL     1      19.581   3.522  51.621  1.00  0.00     0.010 C 
HETATM    6  C12 UNL     1      20.023   2.384  52.198  1.00  0.00     0.025 C 
HETATM    7  C13 UNL     1      19.411   1.117  51.877  1.00  0.00    -0.007 C 
HETATM    8  C14 UNL     1      19.792   0.186  52.798  1.00  0.00    -0.022 C 
HETATM    9  C15 UNL     1      20.693   0.792  53.764  1.00  0.00     0.077 C 
HETATM   10  C16 UNL     1      22.014   0.117  53.923  1.00  0.00     0.022 C 
HETATM   11  C17 UNL     1      22.010  -1.184  54.588  1.00  0.00     0.095 C 
HETATM   12  N3  UNL     1      21.996  -2.241  55.109  1.00  0.00    -0.192 NA
HETATM   13  C18 UNL     1      23.233   0.535  53.530  1.00  0.00    -0.001 C 
HETATM   14  C19 UNL     1      23.220   1.867  52.812  1.00  0.00     0.037 C 
HETATM   15  C20 UNL     1      24.581   2.465  52.675  1.00  0.00     0.177 C 
HETATM   16  O2  UNL     1      24.648   3.472  51.755  1.00  0.00    -0.385 OA
HETATM   17  C21 UNL     1      23.566   4.344  51.669  1.00  0.00     0.225 C 
HETATM   18  C22 UNL     1      22.759   1.412  51.445  1.00  0.00     0.051 C 
ENDROOT
BRANCH   1  19
HETATM   19  N2  UNL     1      22.177   4.317  49.410  1.00  0.00    -0.325 N 
HETATM   20  C6  UNL     1      22.921   4.945  48.392  1.00  0.00     0.245 C 
HETATM   21  O1  UNL     1      24.160   5.058  48.584  1.00  0.00    -0.268 OA
HETATM   22  H11 UNL     1      21.212   4.362  49.038  1.00  0.00     0.169 HD
BRANCH  20  23
HETATM   23  C5  UNL     1      22.512   5.493  47.137  1.00  0.00     0.072 C 
HETATM   24  C4  UNL     1      21.303   5.333  46.688  1.00  0.00     0.008 C 
BRANCH  24  25
HETATM   25  C3  UNL     1      20.975   5.942  45.375  1.00  0.00     0.299 C 
BRANCH  25  26
HETATM   26  N1  UNL     1      20.049   5.059  44.697  1.00  0.00     0.083 N 
HETATM   27  C1  UNL     1      18.981   4.640  45.576  1.00  0.00     0.309 C 
HETATM   28  C2  UNL     1      20.728   3.937  44.120  1.00  0.00     0.309 C 
ENDBRANCH  25  26
ENDBRANCH  24  25
ENDBRANCH  20  23
ENDBRANCH   1  19
TORSDOF 4
ENDMDL
