MODEL 1
REMARK VINA RESULT:      -7.8      0.000      0.000
REMARK  5 active torsions:
REMARK  status: ('A' for Active; 'I' for Inactive)
REMARK    1  A    between atoms: C6_7  and  N2_8 
REMARK    2  A    between atoms: N2_8  and  C7_9 
REMARK    3  A    between atoms: C7_9  and  C8_10 
REMARK    4  A    between atoms: C9_11  and  C10_13 
REMARK    5  A    between atoms: C10_13  and  O1_14 
ROOT
HETATM    1  C1  UNL     1      20.496   1.150  53.696  1.00  0.00     0.038 C 
HETATM    2  C2  UNL     1      21.530   0.586  52.710  1.00  0.00     0.124 C 
HETATM    3  C3  UNL     1      22.506  -0.163  53.495  1.00  0.00     0.043 C 
HETATM    4  C4  UNL     1      22.128  -1.243  54.335  1.00  0.00     0.097 C 
HETATM    5  N1  UNL     1      21.833  -2.138  55.022  1.00  0.00    -0.192 NA
HETATM    6  C5  UNL     1      23.748   0.205  53.384  1.00  0.00     0.035 C 
HETATM    7  C6  UNL     1      24.438   1.272  52.597  1.00  0.00     0.298 C 
HETATM    8  C11 UNL     1      23.517   1.970  51.707  1.00  0.00     0.096 C 
HETATM    9  C12 UNL     1      23.797   2.799  50.719  1.00  0.00     0.166 C 
HETATM   10  O2  UNL     1      25.022   3.240  50.244  1.00  0.00    -0.333 OA
HETATM   11  C13 UNL     1      24.768   4.171  49.212  1.00  0.00     0.197 C 
HETATM   12  C14 UNL     1      23.426   3.662  48.669  1.00  0.00     0.151 C 
HETATM   13  N3  UNL     1      22.757   3.399  49.948  1.00  0.00    -0.357 N 
HETATM   14  C15 UNL     1      21.441   3.603  50.522  1.00  0.00     0.145 C 
HETATM   15  C16 UNL     1      21.055   2.553  51.499  1.00  0.00     0.143 C 
HETATM   16  N4  UNL     1      22.113   1.703  51.964  1.00  0.00    -0.368 N 
ENDROOT
BRANCH   7  17
HETATM   17  N2  UNL     1      25.678   0.803  52.064  1.00  0.00     0.101 N 
HETATM   18  H7  UNL     1      26.087   1.575  51.498  1.00  0.00     0.317 HD
BRANCH  17  19
HETATM   19  C7  UNL     1      26.652   0.489  53.104  1.00  0.00     0.299 C 
BRANCH  19  20
HETATM   20  C8  UNL     1      27.023  -0.942  52.976  1.00  0.00     0.020 C 
HETATM   21  C9  UNL     1      28.322  -1.137  53.248  1.00  0.00     0.010 C 
HETATM   22 BR1  UNL     1      29.372   0.415  53.724  1.00  0.00    -0.054 Br
BRANCH  21  23
HETATM   23  C10 UNL     1      29.277  -2.284  53.283  1.00  0.00     0.210 C 
BRANCH  23  24
HETATM   24  O1  UNL     1      28.629  -3.513  53.381  1.00  0.00    -0.396 OA
HETATM   25  H13 UNL     1      29.033  -4.180  52.760  1.00  0.00     0.209 HD
ENDBRANCH  23  24
ENDBRANCH  21  23
ENDBRANCH  19  20
ENDBRANCH  17  19
ENDBRANCH   7  17
TORSDOF 5
ENDMDL
MODEL 2
REMARK VINA RESULT:      -7.8      2.892      5.556
REMARK  5 active torsions:
REMARK  status: ('A' for Active; 'I' for Inactive)
REMARK    1  A    between atoms: C6_7  and  N2_8 
REMARK    2  A    between atoms: N2_8  and  C7_9 
REMARK    3  A    between atoms: C7_9  and  C8_10 
REMARK    4  A    between atoms: C9_11  and  C10_13 
REMARK    5  A    between atoms: C10_13  and  O1_14 
ROOT
HETATM    1  C1  UNL     1      21.635  -0.076  52.911  1.00  0.00     0.038 C 
HETATM    2  C2  UNL     1      22.468   1.172  53.241  1.00  0.00     0.124 C 
HETATM    3  C3  UNL     1      22.076   2.212  52.295  1.00  0.00     0.043 C 
HETATM    4  C4  UNL     1      20.732   2.652  52.173  1.00  0.00     0.097 C 
HETATM    5  N1  UNL     1      19.634   3.029  52.069  1.00  0.00    -0.192 NA
HETATM    6  C5  UNL     1      23.024   2.723  51.567  1.00  0.00     0.035 C 
HETATM    7  C6  UNL     1      24.496   2.477  51.474  1.00  0.00     0.298 C 
HETATM    8  C11 UNL     1      24.952   1.529  52.484  1.00  0.00     0.096 C 
HETATM    9  C12 UNL     1      26.188   1.246  52.847  1.00  0.00     0.166 C 
HETATM   10  O2  UNL     1      27.392   1.754  52.388  1.00  0.00    -0.333 OA
HETATM   11  C13 UNL     1      28.428   1.069  53.061  1.00  0.00     0.197 C 
HETATM   12  C14 UNL     1      27.746   0.720  54.390  1.00  0.00     0.151 C 
HETATM   13  N3  UNL     1      26.451   0.277  53.862  1.00  0.00    -0.357 N 
HETATM   14  C15 UNL     1      25.510  -0.798  54.113  1.00  0.00     0.145 C 
HETATM   15  C16 UNL     1      24.096  -0.410  53.882  1.00  0.00     0.143 C 
HETATM   16  N4  UNL     1      23.886   0.814  53.163  1.00  0.00    -0.368 N 
ENDROOT
BRANCH   7  17
HETATM   17  N2  UNL     1      25.217   3.700  51.310  1.00  0.00     0.101 N 
HETATM   18  H7  UNL     1      26.186   3.539  51.652  1.00  0.00     0.317 HD
BRANCH  17  19
HETATM   19  C7  UNL     1      25.330   4.101  49.913  1.00  0.00     0.299 C 
BRANCH  19  20
HETATM   20  C8  UNL     1      26.722   3.846  49.467  1.00  0.00     0.020 C 
HETATM   21  C9  UNL     1      27.263   4.936  48.904  1.00  0.00     0.010 C 
HETATM   22 BR1  UNL     1      26.162   6.523  48.803  1.00  0.00    -0.054 Br
BRANCH  21  23
HETATM   23  C10 UNL     1      28.561   5.317  48.270  1.00  0.00     0.210 C 
BRANCH  23  24
HETATM   24  O1  UNL     1      29.588   5.452  49.200  1.00  0.00    -0.396 OA
HETATM   25  H13 UNL     1      30.104   6.291  49.042  1.00  0.00     0.209 HD
ENDBRANCH  23  24
ENDBRANCH  21  23
ENDBRANCH  19  20
ENDBRANCH  17  19
ENDBRANCH   7  17
TORSDOF 5
ENDMDL
MODEL 3
REMARK VINA RESULT:      -7.6      2.330      2.560
REMARK  5 active torsions:
REMARK  status: ('A' for Active; 'I' for Inactive)
REMARK    1  A    between atoms: C6_7  and  N2_8 
REMARK    2  A    between atoms: N2_8  and  C7_9 
REMARK    3  A    between atoms: C7_9  and  C8_10 
REMARK    4  A    between atoms: C9_11  and  C10_13 
REMARK    5  A    between atoms: C10_13  and  O1_14 
ROOT
HETATM    1  C1  UNL     1      21.644  -0.583  54.278  1.00  0.00     0.038 C 
HETATM    2  C2  UNL     1      22.723  -0.577  53.184  1.00  0.00     0.124 C 
HETATM    3  C3  UNL     1      23.975  -0.181  53.820  1.00  0.00     0.043 C 
HETATM    4  C4  UNL     1      24.525  -0.898  54.915  1.00  0.00     0.097 C 
HETATM    5  N1  UNL     1      24.991  -1.483  55.809  1.00  0.00    -0.192 NA
HETATM    6  C5  UNL     1      24.572   0.865  53.329  1.00  0.00     0.035 C 
HETATM    7  C6  UNL     1      24.252   1.799  52.206  1.00  0.00     0.298 C 
HETATM    8  C11 UNL     1      23.069   1.373  51.467  1.00  0.00     0.096 C 
HETATM    9  C12 UNL     1      22.625   1.809  50.304  1.00  0.00     0.166 C 
HETATM   10  O2  UNL     1      23.140   2.778  49.458  1.00  0.00    -0.333 OA
HETATM   11  C13 UNL     1      22.249   2.912  48.370  1.00  0.00     0.197 C 
HETATM   12  C14 UNL     1      21.654   1.500  48.292  1.00  0.00     0.151 C 
HETATM   13  N3  UNL     1      21.435   1.275  49.726  1.00  0.00    -0.357 N 
HETATM   14  C15 UNL     1      20.399   0.708  50.568  1.00  0.00     0.145 C 
HETATM   15  C16 UNL     1      20.927   0.049  51.789  1.00  0.00     0.143 C 
HETATM   16  N4  UNL     1      22.294   0.332  52.119  1.00  0.00    -0.368 N 
ENDROOT
BRANCH   7  17
HETATM   17  N2  UNL     1      25.426   2.149  51.472  1.00  0.00     0.101 N 
HETATM   18  H7  UNL     1      25.724   3.094  51.790  1.00  0.00     0.317 HD
BRANCH  17  19
HETATM   19  C7  UNL     1      26.543   1.250  51.740  1.00  0.00     0.299 C 
BRANCH  19  20
HETATM   20  C8  UNL     1      27.504   1.952  52.625  1.00  0.00     0.020 C 
HETATM   21  C9  UNL     1      28.222   1.086  53.355  1.00  0.00     0.010 C 
HETATM   22 BR1  UNL     1      27.863  -0.798  53.102  1.00  0.00    -0.054 Br
BRANCH  21  23
HETATM   23  C10 UNL     1      29.291   1.146  54.395  1.00  0.00     0.210 C 
BRANCH  23  24
HETATM   24  O1  UNL     1      29.706   2.450  54.656  1.00  0.00    -0.396 OA
HETATM   25  H13 UNL     1      30.146   2.851  53.855  1.00  0.00     0.209 HD
ENDBRANCH  23  24
ENDBRANCH  21  23
ENDBRANCH  19  20
ENDBRANCH  17  19
ENDBRANCH   7  17
TORSDOF 5
ENDMDL
MODEL 4
REMARK VINA RESULT:      -7.5      3.312      4.671
REMARK  5 active torsions:
REMARK  status: ('A' for Active; 'I' for Inactive)
REMARK    1  A    between atoms: C6_7  and  N2_8 
REMARK    2  A    between atoms: N2_8  and  C7_9 
REMARK    3  A    between atoms: C7_9  and  C8_10 
REMARK    4  A    between atoms: C9_11  and  C10_13 
REMARK    5  A    between atoms: C10_13  and  O1_14 
ROOT
HETATM    1  C1  UNL     1      23.169  -0.874  54.391  1.00  0.00     0.038 C 
HETATM    2  C2  UNL     1      23.565  -0.141  53.101  1.00  0.00     0.124 C 
HETATM    3  C3  UNL     1      24.953   0.282  53.257  1.00  0.00     0.043 C 
HETATM    4  C4  UNL     1      25.997  -0.642  53.525  1.00  0.00     0.097 C 
HETATM    5  N1  UNL     1      26.865  -1.392  53.736  1.00  0.00    -0.192 NA
HETATM    6  C5  UNL     1      25.191   1.554  53.133  1.00  0.00     0.035 C 
HETATM    7  C6  UNL     1      24.326   2.740  52.853  1.00  0.00     0.298 C 
HETATM    8  C11 UNL     1      22.948   2.352  52.573  1.00  0.00     0.096 C 
HETATM    9  C12 UNL     1      21.972   3.086  52.074  1.00  0.00     0.166 C 
HETATM   10  O2  UNL     1      21.967   4.412  51.675  1.00  0.00    -0.333 OA
HETATM   11  C13 UNL     1      20.651   4.732  51.275  1.00  0.00     0.197 C 
HETATM   12  C14 UNL     1      20.145   3.369  50.783  1.00  0.00     0.151 C 
HETATM   13  N3  UNL     1      20.672   2.535  51.870  1.00  0.00    -0.357 N 
HETATM   14  C15 UNL     1      20.208   1.424  52.678  1.00  0.00     0.145 C 
HETATM   15  C16 UNL     1      21.293   0.494  53.080  1.00  0.00     0.143 C 
HETATM   16  N4  UNL     1      22.634   0.972  52.898  1.00  0.00    -0.368 N 
ENDROOT
BRANCH   7  17
HETATM   17  N2  UNL     1      24.971   3.655  51.965  1.00  0.00     0.101 N 
HETATM   18  H7  UNL     1      25.921   3.841  52.345  1.00  0.00     0.317 HD
BRANCH  17  19
HETATM   19  C7  UNL     1      25.158   3.100  50.629  1.00  0.00     0.299 C 
BRANCH  19  20
HETATM   20  C8  UNL     1      26.529   3.439  50.173  1.00  0.00     0.020 C 
HETATM   21  C9  UNL     1      26.523   4.495  49.347  1.00  0.00     0.010 C 
HETATM   22 BR1  UNL     1      24.812   5.304  48.952  1.00  0.00    -0.054 Br
BRANCH  21  23
HETATM   23  C10 UNL     1      27.522   5.288  48.568  1.00  0.00     0.210 C 
BRANCH  23  24
HETATM   24  O1  UNL     1      28.815   5.148  49.065  1.00  0.00    -0.396 OA
HETATM   25  H13 UNL     1      28.809   4.690  49.951  1.00  0.00     0.209 HD
ENDBRANCH  23  24
ENDBRANCH  21  23
ENDBRANCH  19  20
ENDBRANCH  17  19
ENDBRANCH   7  17
TORSDOF 5
ENDMDL
MODEL 5
REMARK VINA RESULT:      -7.5      3.239      5.426
REMARK  5 active torsions:
REMARK  status: ('A' for Active; 'I' for Inactive)
REMARK    1  A    between atoms: C6_7  and  N2_8 
REMARK    2  A    between atoms: N2_8  and  C7_9 
REMARK    3  A    between atoms: C7_9  and  C8_10 
REMARK    4  A    between atoms: C9_11  and  C10_13 
REMARK    5  A    between atoms: C10_13  and  O1_14 
ROOT
HETATM    1  C1  UNL     1      27.091   0.317  52.509  1.00  0.00     0.038 C 
HETATM    2  C2  UNL     1      25.897   1.201  52.896  1.00  0.00     0.124 C 
HETATM    3  C3  UNL     1      24.864   0.318  53.427  1.00  0.00     0.043 C 
HETATM    4  C4  UNL     1      25.099  -0.538  54.535  1.00  0.00     0.097 C 
HETATM    5  N1  UNL     1      25.276  -1.238  55.449  1.00  0.00    -0.192 NA
HETATM    6  C5  UNL     1      23.706   0.356  52.835  1.00  0.00     0.035 C 
HETATM    7  C6  UNL     1      23.166   1.135  51.680  1.00  0.00     0.298 C 
HETATM    8  C11 UNL     1      24.128   2.117  51.192  1.00  0.00     0.096 C 
HETATM    9  C12 UNL     1      23.930   3.116  50.354  1.00  0.00     0.166 C 
HETATM   10  O2  UNL     1      22.775   3.521  49.704  1.00  0.00    -0.333 OA
HETATM   11  C13 UNL     1      23.115   4.606  48.866  1.00  0.00     0.197 C 
HETATM   12  C14 UNL     1      24.293   5.222  49.633  1.00  0.00     0.151 C 
HETATM   13  N3  UNL     1      25.000   3.984  49.980  1.00  0.00    -0.357 N 
HETATM   14  C15 UNL     1      26.371   3.515  50.012  1.00  0.00     0.145 C 
HETATM   15  C16 UNL     1      26.632   2.525  51.087  1.00  0.00     0.143 C 
HETATM   16  N4  UNL     1      25.474   1.950  51.711  1.00  0.00    -0.368 N 
ENDROOT
BRANCH   7  17
HETATM   17  N2  UNL     1      21.823   1.558  51.922  1.00  0.00     0.101 N 
HETATM   18  H7  UNL     1      21.238   1.204  51.138  1.00  0.00     0.317 HD
BRANCH  17  19
HETATM   19  C7  UNL     1      21.268   0.988  53.144  1.00  0.00     0.299 C 
BRANCH  19  20
HETATM   20  C8  UNL     1      19.884   0.535  52.860  1.00  0.00     0.020 C 
HETATM   21  C9  UNL     1      19.649  -0.679  53.377  1.00  0.00     0.010 C 
HETATM   22 BR1  UNL     1      21.097  -1.531  54.336  1.00  0.00    -0.054 Br
BRANCH  21  23
HETATM   23  C10 UNL     1      18.518  -1.653  53.428  1.00  0.00     0.210 C 
BRANCH  23  24
HETATM   24  O1  UNL     1      17.362  -1.097  53.972  1.00  0.00    -0.396 OA
HETATM   25  H13 UNL     1      16.553  -1.391  53.467  1.00  0.00     0.209 HD
ENDBRANCH  23  24
ENDBRANCH  21  23
ENDBRANCH  19  20
ENDBRANCH  17  19
ENDBRANCH   7  17
TORSDOF 5
ENDMDL
MODEL 6
REMARK VINA RESULT:      -7.4      3.197      5.823
REMARK  5 active torsions:
REMARK  status: ('A' for Active; 'I' for Inactive)
REMARK    1  A    between atoms: C6_7  and  N2_8 
REMARK    2  A    between atoms: N2_8  and  C7_9 
REMARK    3  A    between atoms: C7_9  and  C8_10 
REMARK    4  A    between atoms: C9_11  and  C10_13 
REMARK    5  A    between atoms: C10_13  and  O1_14 
ROOT
HETATM    1  C1  UNL     1      25.941  -0.261  54.340  1.00  0.00     0.038 C 
HETATM    2  C2  UNL     1      25.462   0.483  53.084  1.00  0.00     0.124 C 
HETATM    3  C3  UNL     1      26.115   1.788  53.084  1.00  0.00     0.043 C 
HETATM    4  C4  UNL     1      27.527   1.924  53.110  1.00  0.00     0.097 C 
HETATM    5  N1  UNL     1      28.687   2.050  53.123  1.00  0.00    -0.192 NA
HETATM    6  C5  UNL     1      25.336   2.828  53.052  1.00  0.00     0.035 C 
HETATM    7  C6  UNL     1      23.851   3.001  53.014  1.00  0.00     0.298 C 
HETATM    8  C11 UNL     1      23.160   1.722  52.895  1.00  0.00     0.096 C 
HETATM    9  C12 UNL     1      21.891   1.497  52.612  1.00  0.00     0.166 C 
HETATM   10  O2  UNL     1      20.863   2.388  52.349  1.00  0.00    -0.333 OA
HETATM   11  C13 UNL     1      19.681   1.634  52.171  1.00  0.00     0.197 C 
HETATM   12  C14 UNL     1      20.244   0.315  51.625  1.00  0.00     0.151 C 
HETATM   13  N3  UNL     1      21.381   0.166  52.540  1.00  0.00    -0.357 N 
HETATM   14  C15 UNL     1      22.007  -0.903  53.294  1.00  0.00     0.145 C 
HETATM   15  C16 UNL     1      23.475  -0.736  53.446  1.00  0.00     0.143 C 
HETATM   16  N4  UNL     1      24.000   0.560  53.125  1.00  0.00    -0.368 N 
ENDROOT
BRANCH   7  17
HETATM   17  N2  UNL     1      23.475   4.065  52.138  1.00  0.00     0.101 N 
HETATM   18  H7  UNL     1      23.830   4.951  52.552  1.00  0.00     0.317 HD
BRANCH  17  19
HETATM   19  C7  UNL     1      24.088   3.947  50.819  1.00  0.00     0.299 C 
BRANCH  19  20
HETATM   20  C8  UNL     1      24.548   5.294  50.398  1.00  0.00     0.020 C 
HETATM   21  C9  UNL     1      25.726   5.231  49.761  1.00  0.00     0.010 C 
HETATM   22 BR1  UNL     1      26.526   3.485  49.542  1.00  0.00    -0.054 Br
BRANCH  21  23
HETATM   23  C10 UNL     1      26.687   6.186  49.132  1.00  0.00     0.210 C 
BRANCH  23  24
HETATM   24  O1  UNL     1      26.808   7.371  49.853  1.00  0.00    -0.396 OA
HETATM   25  H13 UNL     1      26.000   7.945  49.736  1.00  0.00     0.209 HD
ENDBRANCH  23  24
ENDBRANCH  21  23
ENDBRANCH  19  20
ENDBRANCH  17  19
ENDBRANCH   7  17
TORSDOF 5
ENDMDL
MODEL 7
REMARK VINA RESULT:      -7.3      3.431      6.765
REMARK  5 active torsions:
REMARK  status: ('A' for Active; 'I' for Inactive)
REMARK    1  A    between atoms: C6_7  and  N2_8 
REMARK    2  A    between atoms: N2_8  and  C7_9 
REMARK    3  A    between atoms: C7_9  and  C8_10 
REMARK    4  A    between atoms: C9_11  and  C10_13 
REMARK    5  A    between atoms: C10_13  and  O1_14 
ROOT
HETATM    1  C1  UNL     1      21.964   1.258  50.170  1.00  0.00     0.038 C 
HETATM    2  C2  UNL     1      22.720   2.469  50.736  1.00  0.00     0.124 C 
HETATM    3  C3  UNL     1      22.872   3.427  49.646  1.00  0.00     0.043 C 
HETATM    4  C4  UNL     1      21.758   3.950  48.940  1.00  0.00     0.097 C 
HETATM    5  N1  UNL     1      20.850   4.394  48.358  1.00  0.00    -0.192 NA
HETATM    6  C5  UNL     1      24.087   3.786  49.353  1.00  0.00     0.035 C 
HETATM    7  C6  UNL     1      25.429   3.424  49.905  1.00  0.00     0.298 C 
HETATM    8  C11 UNL     1      25.318   2.558  51.074  1.00  0.00     0.096 C 
HETATM    9  C12 UNL     1      26.254   2.225  51.942  1.00  0.00     0.166 C 
HETATM   10  O2  UNL     1      27.589   2.592  52.000  1.00  0.00    -0.333 OA
HETATM   11  C13 UNL     1      28.171   1.908  53.090  1.00  0.00     0.197 C 
HETATM   12  C14 UNL     1      26.967   1.754  54.029  1.00  0.00     0.151 C 
HETATM   13  N3  UNL     1      25.964   1.354  53.035  1.00  0.00    -0.357 N 
HETATM   14  C15 UNL     1      24.890   0.385  52.937  1.00  0.00     0.145 C 
HETATM   15  C16 UNL     1      23.750   0.849  52.106  1.00  0.00     0.143 C 
HETATM   16  N4  UNL     1      23.994   2.001  51.287  1.00  0.00    -0.368 N 
ENDROOT
BRANCH   7  17
HETATM   17  N2  UNL     1      26.284   4.565  49.979  1.00  0.00     0.101 N 
HETATM   18  H7  UNL     1      27.169   4.325  49.488  1.00  0.00     0.317 HD
BRANCH  17  19
HETATM   19  C7  UNL     1      25.730   5.727  49.293  1.00  0.00     0.299 C 
BRANCH  19  20
HETATM   20  C8  UNL     1      26.764   6.791  49.270  1.00  0.00     0.020 C 
HETATM   21  C9  UNL     1      26.299   7.937  49.788  1.00  0.00     0.010 C 
HETATM   22 BR1  UNL     1      24.472   7.948  50.421  1.00  0.00    -0.054 Br
BRANCH  21  23
HETATM   23  C10 UNL     1      26.807   9.320  50.029  1.00  0.00     0.210 C 
BRANCH  23  24
HETATM   24  O1  UNL     1      27.579   9.409  51.184  1.00  0.00    -0.396 OA
HETATM   25  H13 UNL     1      27.071   9.084  51.979  1.00  0.00     0.209 HD
ENDBRANCH  23  24
ENDBRANCH  21  23
ENDBRANCH  19  20
ENDBRANCH  17  19
ENDBRANCH   7  17
TORSDOF 5
ENDMDL
MODEL 8
REMARK VINA RESULT:      -7.2      3.312      5.325
REMARK  5 active torsions:
REMARK  status: ('A' for Active; 'I' for Inactive)
REMARK    1  A    between atoms: C6_7  and  N2_8 
REMARK    2  A    between atoms: N2_8  and  C7_9 
REMARK    3  A    between atoms: C7_9  and  C8_10 
REMARK    4  A    between atoms: C9_11  and  C10_13 
REMARK    5  A    between atoms: C10_13  and  O1_14 
ROOT
HETATM    1  C1  UNL     1      22.702  -1.230  55.116  1.00  0.00     0.038 C 
HETATM    2  C2  UNL     1      22.857  -0.892  53.626  1.00  0.00     0.124 C 
HETATM    3  C3  UNL     1      24.060  -0.077  53.495  1.00  0.00     0.043 C 
HETATM    4  C4  UNL     1      25.331  -0.532  53.932  1.00  0.00     0.097 C 
HETATM    5  N1  UNL     1      26.383  -0.898  54.279  1.00  0.00    -0.192 NA
HETATM    6  C5  UNL     1      23.913   1.094  52.949  1.00  0.00     0.035 C 
HETATM    7  C6  UNL     1      22.735   1.832  52.398  1.00  0.00     0.298 C 
HETATM    8  C11 UNL     1      21.531   1.008  52.401  1.00  0.00     0.096 C 
HETATM    9  C12 UNL     1      20.379   1.234  51.798  1.00  0.00     0.166 C 
HETATM   10  O2  UNL     1      19.981   2.295  51.001  1.00  0.00    -0.333 OA
HETATM   11  C13 UNL     1      18.627   2.087  50.659  1.00  0.00     0.197 C 
HETATM   12  C14 UNL     1      18.542   0.555  50.681  1.00  0.00     0.151 C 
HETATM   13  N3  UNL     1      19.297   0.311  51.915  1.00  0.00    -0.357 N 
HETATM   14  C15 UNL     1      19.186  -0.547  53.079  1.00  0.00     0.145 C 
HETATM   15  C16 UNL     1      20.499  -0.952  53.640  1.00  0.00     0.143 C 
HETATM   16  N4  UNL     1      21.639  -0.213  53.178  1.00  0.00    -0.368 N 
ENDROOT
BRANCH   7  17
HETATM   17  N2  UNL     1      23.077   2.537  51.203  1.00  0.00     0.101 N 
HETATM   18  H7  UNL     1      22.429   3.347  51.123  1.00  0.00     0.317 HD
BRANCH  17  19
HETATM   19  C7  UNL     1      24.427   3.086  51.244  1.00  0.00     0.299 C 
BRANCH  19  20
HETATM   20  C8  UNL     1      24.334   4.560  51.102  1.00  0.00     0.020 C 
HETATM   21  C9  UNL     1      25.295   5.036  50.295  1.00  0.00     0.010 C 
HETATM   22 BR1  UNL     1      26.527   3.756  49.532  1.00  0.00    -0.054 Br
BRANCH  21  23
HETATM   23  C10 UNL     1      25.738   6.365  49.780  1.00  0.00     0.210 C 
BRANCH  23  24
HETATM   24  O1  UNL     1      26.039   7.259  50.805  1.00  0.00    -0.396 OA
HETATM   25  H13 UNL     1      25.213   7.532  51.294  1.00  0.00     0.209 HD
ENDBRANCH  23  24
ENDBRANCH  21  23
ENDBRANCH  19  20
ENDBRANCH  17  19
ENDBRANCH   7  17
TORSDOF 5
ENDMDL
MODEL 9
REMARK VINA RESULT:      -7.0      3.204      5.895
REMARK  5 active torsions:
REMARK  status: ('A' for Active; 'I' for Inactive)
REMARK    1  A    between atoms: C6_7  and  N2_8 
REMARK    2  A    between atoms: N2_8  and  C7_9 
REMARK    3  A    between atoms: C7_9  and  C8_10 
REMARK    4  A    between atoms: C9_11  and  C10_13 
REMARK    5  A    between atoms: C10_13  and  O1_14 
ROOT
HETATM    1  C1  UNL     1      21.798  -1.882  53.995  1.00  0.00     0.038 C 
HETATM    2  C2  UNL     1      21.936  -0.363  53.818  1.00  0.00     0.124 C 
HETATM    3  C3  UNL     1      20.997   0.034  52.774  1.00  0.00     0.043 C 
HETATM    4  C4  UNL     1      19.606  -0.229  52.871  1.00  0.00     0.097 C 
HETATM    5  N1  UNL     1      18.460  -0.431  52.943  1.00  0.00    -0.192 NA
HETATM    6  C5  UNL     1      21.499   0.650  51.744  1.00  0.00     0.035 C 
HETATM    7  C6  UNL     1      22.885   1.064  51.368  1.00  0.00     0.298 C 
HETATM    8  C11 UNL     1      23.841   0.792  52.436  1.00  0.00     0.096 C 
HETATM    9  C12 UNL     1      25.084   1.217  52.555  1.00  0.00     0.166 C 
HETATM   10  O2  UNL     1      25.834   2.029  51.719  1.00  0.00    -0.333 OA
HETATM   11  C13 UNL     1      27.131   2.126  52.271  1.00  0.00     0.197 C 
HETATM   12  C14 UNL     1      26.836   1.955  53.767  1.00  0.00     0.151 C 
HETATM   13  N3  UNL     1      25.883   0.844  53.677  1.00  0.00    -0.357 N 
HETATM   14  C15 UNL     1      25.620  -0.393  54.387  1.00  0.00     0.145 C 
HETATM   15  C16 UNL     1      24.183  -0.767  54.410  1.00  0.00     0.143 C 
HETATM   16  N4  UNL     1      23.332  -0.062  53.495  1.00  0.00    -0.368 N 
ENDROOT
BRANCH   7  17
HETATM   17  N2  UNL     1      22.893   2.356  50.758  1.00  0.00     0.101 N 
HETATM   18  H7  UNL     1      22.268   2.313  49.928  1.00  0.00     0.317 HD
BRANCH  17  19
HETATM   19  C7  UNL     1      22.352   3.391  51.632  1.00  0.00     0.299 C 
BRANCH  19  20
HETATM   20  C8  UNL     1      23.285   4.546  51.616  1.00  0.00     0.020 C 
HETATM   21  C9  UNL     1      22.711   5.631  51.076  1.00  0.00     0.010 C 
HETATM   22 BR1  UNL     1      20.884   5.459  50.467  1.00  0.00    -0.054 Br
BRANCH  21  23
HETATM   23  C10 UNL     1      23.097   7.040  50.768  1.00  0.00     0.210 C 
BRANCH  23  24
HETATM   24  O1  UNL     1      24.028   7.546  51.673  1.00  0.00    -0.396 OA
HETATM   25  H13 UNL     1      24.585   8.257  51.251  1.00  0.00     0.209 HD
ENDBRANCH  23  24
ENDBRANCH  21  23
ENDBRANCH  19  20
ENDBRANCH  17  19
ENDBRANCH   7  17
TORSDOF 5
ENDMDL
