MODEL 1
REMARK VINA RESULT:      -8.4      0.000      0.000
REMARK  5 active torsions:
REMARK  status: ('A' for Active; 'I' for Inactive)
REMARK    1  A    between atoms: C5_5  and  N1_6 
REMARK    2  A    between atoms: N1_6  and  C6_7 
REMARK    3  A    between atoms: C12_14  and  O2_15 
REMARK    4  A    between atoms: O2_15  and  C13_16 
REMARK    5  A    between atoms: C13_16  and  C14_17 
ROOT
HETATM    1  C6  UNL     1      25.413   3.180  50.243  1.00  0.00     0.157 C 
HETATM    2  C7  UNL     1      25.561   2.782  51.499  1.00  0.00     0.093 C 
HETATM    3  C8  UNL     1      24.367   2.728  52.382  1.00  0.00     0.082 C 
HETATM    4  C9  UNL     1      23.593   1.589  51.665  1.00  0.00     0.057 C 
HETATM    5  C10 UNL     1      22.729   0.894  52.547  1.00  0.00     0.008 C 
HETATM    6  C11 UNL     1      23.573   0.258  53.412  1.00  0.00     0.135 C 
HETATM    7  O1  UNL     1      24.865   0.199  53.532  1.00  0.00    -0.330 OA
HETATM    8  C12 UNL     1      26.167   0.316  53.619  1.00  0.00     0.289 C 
HETATM    9  C15 UNL     1      26.942   1.001  52.499  1.00  0.00     0.236 C 
HETATM   10  O3  UNL     1      26.583   2.354  52.326  1.00  0.00    -0.347 OA
HETATM   11  C16 UNL     1      23.183   2.265  50.438  1.00  0.00     0.101 C 
HETATM   12  N3  UNL     1      24.117   2.866  49.758  1.00  0.00    -0.244 NA
ENDROOT
BRANCH   1  13
HETATM   13  N1  UNL     1      26.613   3.780  49.788  1.00  0.00    -0.339 N 
HETATM   14  H6  UNL     1      27.549   3.359  49.951  1.00  0.00     0.167 HD
BRANCH  13  15
HETATM   15  C5  UNL     1      26.937   4.941  49.074  1.00  0.00     0.033 A 
HETATM   16  C4  UNL     1      28.241   5.092  48.596  1.00  0.00     0.030 A 
HETATM   17  C3  UNL     1      28.599   6.213  47.886  1.00  0.00     0.009 A 
HETATM   18  C2  UNL     1      27.657   7.216  47.636  1.00  0.00    -0.062 A 
HETATM   19  C1  UNL     1      27.987   8.464  46.864  1.00  0.00     0.048 C 
HETATM   20  C18 UNL     1      26.361   7.033  48.131  1.00  0.00     0.009 A 
HETATM   21  C17 UNL     1      25.994   5.908  48.845  1.00  0.00     0.030 A 
ENDBRANCH  13  15
ENDBRANCH   1  13
BRANCH   8  22
HETATM   22  O2  UNL     1      26.709  -0.989  53.817  1.00  0.00    -0.354 OA
BRANCH  22  23
HETATM   23  C13 UNL     1      27.163  -1.590  52.690  1.00  0.00     0.217 C 
BRANCH  23  24
HETATM   24  C14 UNL     1      28.474  -2.249  53.066  1.00  0.00     0.106 C 
HETATM   25  N2  UNL     1      28.586  -3.525  53.086  1.00  0.00    -0.314 NA
HETATM   26  H16 UNL     1      29.417  -4.051  53.323  1.00  0.00     0.185 HD
ENDBRANCH  23  24
ENDBRANCH  22  23
ENDBRANCH   8  22
TORSDOF 5
ENDMDL
MODEL 2
REMARK VINA RESULT:      -8.3      1.955      2.338
REMARK  5 active torsions:
REMARK  status: ('A' for Active; 'I' for Inactive)
REMARK    1  A    between atoms: C5_5  and  N1_6 
REMARK    2  A    between atoms: N1_6  and  C6_7 
REMARK    3  A    between atoms: C12_14  and  O2_15 
REMARK    4  A    between atoms: O2_15  and  C13_16 
REMARK    5  A    between atoms: C13_16  and  C14_17 
ROOT
HETATM    1  C6  UNL     1      23.412   3.295  50.881  1.00  0.00     0.157 C 
HETATM    2  C7  UNL     1      23.833   2.864  52.061  1.00  0.00     0.093 C 
HETATM    3  C8  UNL     1      22.925   2.028  52.889  1.00  0.00     0.082 C 
HETATM    4  C9  UNL     1      22.862   0.772  51.977  1.00  0.00     0.057 C 
HETATM    5  C10 UNL     1      22.581  -0.406  52.712  1.00  0.00     0.008 C 
HETATM    6  C11 UNL     1      23.688  -0.589  53.490  1.00  0.00     0.135 C 
HETATM    7  O1  UNL     1      24.804   0.060  53.637  1.00  0.00    -0.330 OA
HETATM    8  C12 UNL     1      25.829   0.862  53.780  1.00  0.00     0.289 C 
HETATM    9  C15 UNL     1      26.027   2.020  52.807  1.00  0.00     0.236 C 
HETATM   10  O3  UNL     1      24.972   2.956  52.840  1.00  0.00    -0.347 OA
HETATM   11  C16 UNL     1      22.071   1.283  50.861  1.00  0.00     0.101 C 
HETATM   12  N3  UNL     1      22.475   2.392  50.313  1.00  0.00    -0.244 NA
ENDROOT
BRANCH   1  13
HETATM   13  N1  UNL     1      24.052   4.518  50.563  1.00  0.00    -0.339 N 
HETATM   14  H6  UNL     1      23.660   5.443  50.829  1.00  0.00     0.167 HD
BRANCH  13  15
HETATM   15  C5  UNL     1      25.233   4.882  49.904  1.00  0.00     0.033 A 
HETATM   16  C4  UNL     1      25.445   6.229  49.601  1.00  0.00     0.030 A 
HETATM   17  C3  UNL     1      26.593   6.629  48.960  1.00  0.00     0.009 A 
HETATM   18  C2  UNL     1      27.564   5.686  48.606  1.00  0.00    -0.062 A 
HETATM   19  C1  UNL     1      28.841   6.062  47.907  1.00  0.00     0.048 C 
HETATM   20  C18 UNL     1      27.319   4.346  48.924  1.00  0.00     0.009 A 
HETATM   21  C17 UNL     1      26.167   3.937  49.569  1.00  0.00     0.030 A 
ENDBRANCH  13  15
ENDBRANCH   1  13
BRANCH   8  22
HETATM   22  O2  UNL     1      27.011   0.063  53.785  1.00  0.00    -0.354 OA
BRANCH  22  23
HETATM   23  C13 UNL     1      27.826   0.262  54.849  1.00  0.00     0.217 C 
BRANCH  23  24
HETATM   24  C14 UNL     1      29.119   0.816  54.289  1.00  0.00     0.106 C 
HETATM   25  N2  UNL     1      29.459   2.033  54.500  1.00  0.00    -0.314 NA
HETATM   26  H16 UNL     1      30.299   2.488  54.168  1.00  0.00     0.185 HD
ENDBRANCH  23  24
ENDBRANCH  22  23
ENDBRANCH   8  22
TORSDOF 5
ENDMDL
MODEL 3
REMARK VINA RESULT:      -7.9      1.961      2.943
REMARK  5 active torsions:
REMARK  status: ('A' for Active; 'I' for Inactive)
REMARK    1  A    between atoms: C5_5  and  N1_6 
REMARK    2  A    between atoms: N1_6  and  C6_7 
REMARK    3  A    between atoms: C12_14  and  O2_15 
REMARK    4  A    between atoms: O2_15  and  C13_16 
REMARK    5  A    between atoms: C13_16  and  C14_17 
ROOT
HETATM    1  C6  UNL     1      22.543   1.492  50.764  1.00  0.00     0.157 C 
HETATM    2  C7  UNL     1      23.211   1.441  51.908  1.00  0.00     0.093 C 
HETATM    3  C8  UNL     1      22.458   1.236  53.172  1.00  0.00     0.082 C 
HETATM    4  C9  UNL     1      21.951  -0.209  52.914  1.00  0.00     0.057 C 
HETATM    5  C10 UNL     1      21.714  -0.914  54.120  1.00  0.00     0.008 C 
HETATM    6  C11 UNL     1      22.955  -1.068  54.669  1.00  0.00     0.135 C 
HETATM    7  O1  UNL     1      24.151  -0.717  54.305  1.00  0.00    -0.330 OA
HETATM    8  C12 UNL     1      25.284  -0.208  53.890  1.00  0.00     0.289 C 
HETATM    9  C15 UNL     1      25.372   0.410  52.498  1.00  0.00     0.236 C 
HETATM   10  O3  UNL     1      24.524   1.526  52.335  1.00  0.00    -0.347 OA
HETATM   11  C16 UNL     1      20.963   0.030  51.865  1.00  0.00     0.101 C 
HETATM   12  N3  UNL     1      21.359   0.712  50.830  1.00  0.00    -0.244 NA
ENDROOT
BRANCH   1  13
HETATM   13  N1  UNL     1      23.245   2.302  49.837  1.00  0.00    -0.339 N 
HETATM   14  H6  UNL     1      23.369   2.036  48.840  1.00  0.00     0.167 HD
BRANCH  13  15
HETATM   15  C5  UNL     1      23.905   3.536  49.893  1.00  0.00     0.033 A 
HETATM   16  C4  UNL     1      23.186   4.663  50.298  1.00  0.00     0.030 A 
HETATM   17  C3  UNL     1      23.797   5.892  50.371  1.00  0.00     0.009 A 
HETATM   18  C2  UNL     1      25.151   6.024  50.040  1.00  0.00    -0.062 A 
HETATM   19  C1  UNL     1      25.875   7.340  50.104  1.00  0.00     0.048 C 
HETATM   20  C18 UNL     1      25.839   4.875  49.638  1.00  0.00     0.009 A 
HETATM   21  C17 UNL     1      25.231   3.636  49.563  1.00  0.00     0.030 A 
ENDBRANCH  13  15
ENDBRANCH   1  13
BRANCH   8  22
HETATM   22  O2  UNL     1      26.284  -1.220  54.003  1.00  0.00    -0.354 OA
BRANCH  22  23
HETATM   23  C13 UNL     1      27.285  -1.131  53.093  1.00  0.00     0.217 C 
BRANCH  23  24
HETATM   24  C14 UNL     1      27.572  -2.549  52.646  1.00  0.00     0.106 C 
HETATM   25  N2  UNL     1      28.458  -3.258  53.240  1.00  0.00    -0.314 NA
HETATM   26  H16 UNL     1      28.718  -4.209  53.013  1.00  0.00     0.185 HD
ENDBRANCH  23  24
ENDBRANCH  22  23
ENDBRANCH   8  22
TORSDOF 5
ENDMDL
MODEL 4
REMARK VINA RESULT:      -7.9      5.318      7.867
REMARK  5 active torsions:
REMARK  status: ('A' for Active; 'I' for Inactive)
REMARK    1  A    between atoms: C5_5  and  N1_6 
REMARK    2  A    between atoms: N1_6  and  C6_7 
REMARK    3  A    between atoms: C12_14  and  O2_15 
REMARK    4  A    between atoms: O2_15  and  C13_16 
REMARK    5  A    between atoms: C13_16  and  C14_17 
ROOT
HETATM    1  C6  UNL     1      23.312  -0.089  53.716  1.00  0.00     0.157 C 
HETATM    2  C7  UNL     1      22.484   0.323  52.767  1.00  0.00     0.093 C 
HETATM    3  C8  UNL     1      21.431  -0.605  52.277  1.00  0.00     0.082 C 
HETATM    4  C9  UNL     1      20.578  -0.701  53.571  1.00  0.00     0.057 C 
HETATM    5  C10 UNL     1      19.224  -1.011  53.294  1.00  0.00     0.008 C 
HETATM    6  C11 UNL     1      18.753   0.092  52.641  1.00  0.00     0.135 C 
HETATM    7  O1  UNL     1      19.283   1.224  52.286  1.00  0.00    -0.330 OA
HETATM    8  C12 UNL     1      19.959   2.269  51.880  1.00  0.00     0.289 C 
HETATM    9  C15 UNL     1      21.381   2.495  52.387  1.00  0.00     0.236 C 
HETATM   10  O3  UNL     1      22.269   1.464  52.016  1.00  0.00    -0.347 OA
HETATM   11  C16 UNL     1      21.467  -1.480  54.429  1.00  0.00     0.101 C 
HETATM   12  N3  UNL     1      22.688  -1.049  54.555  1.00  0.00    -0.244 NA
ENDROOT
BRANCH   1  13
HETATM   13  N1  UNL     1      24.554   0.581  53.590  1.00  0.00    -0.339 N 
HETATM   14  H6  UNL     1      24.626   1.604  53.423  1.00  0.00     0.167 HD
BRANCH  13  15
HETATM   15  C5  UNL     1      25.900   0.200  53.643  1.00  0.00     0.033 A 
HETATM   16  C4  UNL     1      26.357  -0.777  52.755  1.00  0.00     0.030 A 
HETATM   17  C3  UNL     1      27.672  -1.175  52.769  1.00  0.00     0.009 A 
HETATM   18  C2  UNL     1      28.569  -0.602  53.678  1.00  0.00    -0.062 A 
HETATM   19  C1  UNL     1      30.019  -0.994  53.740  1.00  0.00     0.048 C 
HETATM   20  C18 UNL     1      28.078   0.372  54.553  1.00  0.00     0.009 A 
HETATM   21  C17 UNL     1      26.756   0.778  54.543  1.00  0.00     0.030 A 
ENDBRANCH  13  15
ENDBRANCH   1  13
BRANCH   8  22
HETATM   22  O2  UNL     1      19.182   3.431  52.169  1.00  0.00    -0.354 OA
BRANCH  22  23
HETATM   23  C13 UNL     1      18.555   3.973  51.097  1.00  0.00     0.217 C 
BRANCH  23  24
HETATM   24  C14 UNL     1      17.073   3.772  51.333  1.00  0.00     0.106 C 
HETATM   25  N2  UNL     1      16.502   4.252  52.375  1.00  0.00    -0.314 NA
HETATM   26  H16 UNL     1      15.523   4.169  52.616  1.00  0.00     0.185 HD
ENDBRANCH  23  24
ENDBRANCH  22  23
ENDBRANCH   8  22
TORSDOF 5
ENDMDL
MODEL 5
REMARK VINA RESULT:      -7.9      2.170      3.938
REMARK  5 active torsions:
REMARK  status: ('A' for Active; 'I' for Inactive)
REMARK    1  A    between atoms: C5_5  and  N1_6 
REMARK    2  A    between atoms: N1_6  and  C6_7 
REMARK    3  A    between atoms: C12_14  and  O2_15 
REMARK    4  A    between atoms: O2_15  and  C13_16 
REMARK    5  A    between atoms: C13_16  and  C14_17 
ROOT
HETATM    1  C6  UNL     1      26.508   2.444  51.331  1.00  0.00     0.157 C 
HETATM    2  C7  UNL     1      25.746   1.394  51.602  1.00  0.00     0.093 C 
HETATM    3  C8  UNL     1      26.362   0.204  52.244  1.00  0.00     0.082 C 
HETATM    4  C9  UNL     1      26.719   0.834  53.618  1.00  0.00     0.057 C 
HETATM    5  C10 UNL     1      26.771  -0.134  54.651  1.00  0.00     0.008 C 
HETATM    6  C11 UNL     1      25.480  -0.558  54.781  1.00  0.00     0.135 C 
HETATM    7  O1  UNL     1      24.367  -0.252  54.187  1.00  0.00    -0.330 OA
HETATM    8  C12 UNL     1      23.338   0.057  53.436  1.00  0.00     0.289 C 
HETATM    9  C15 UNL     1      23.439   1.221  52.455  1.00  0.00     0.236 C 
HETATM   10  O3  UNL     1      24.421   1.023  51.462  1.00  0.00    -0.347 OA
HETATM   11  C16 UNL     1      27.811   1.725  53.237  1.00  0.00     0.101 C 
HETATM   12  N3  UNL     1      27.584   2.544  52.251  1.00  0.00    -0.244 NA
ENDROOT
BRANCH   1  13
HETATM   13  N1  UNL     1      25.984   3.138  50.212  1.00  0.00    -0.339 N 
HETATM   14  H6  UNL     1      25.181   2.782  49.656  1.00  0.00     0.167 HD
BRANCH  13  15
HETATM   15  C5  UNL     1      26.280   4.340  49.558  1.00  0.00     0.033 A 
HETATM   16  C4  UNL     1      27.539   4.491  48.971  1.00  0.00     0.030 A 
HETATM   17  C3  UNL     1      27.868   5.653  48.314  1.00  0.00     0.009 A 
HETATM   18  C2  UNL     1      26.941   6.698  48.229  1.00  0.00    -0.062 A 
HETATM   19  C1  UNL     1      27.242   7.991  47.522  1.00  0.00     0.048 C 
HETATM   20  C18 UNL     1      25.691   6.513  48.829  1.00  0.00     0.009 A 
HETATM   21  C17 UNL     1      25.353   5.347  49.490  1.00  0.00     0.030 A 
ENDBRANCH  13  15
ENDBRANCH   1  13
BRANCH   8  22
HETATM   22  O2  UNL     1      22.222   0.281  54.297  1.00  0.00    -0.354 OA
BRANCH  22  23
HETATM   23  C13 UNL     1      21.378  -0.773  54.414  1.00  0.00     0.217 C 
BRANCH  23  24
HETATM   24  C14 UNL     1      20.153  -0.422  53.597  1.00  0.00     0.106 C 
HETATM   25  N2  UNL     1      19.043  -1.034  53.781  1.00  0.00    -0.314 NA
HETATM   26  H16 UNL     1      18.176  -0.870  53.285  1.00  0.00     0.185 HD
ENDBRANCH  23  24
ENDBRANCH  22  23
ENDBRANCH   8  22
TORSDOF 5
ENDMDL
MODEL 6
REMARK VINA RESULT:      -7.8      2.965      6.968
REMARK  5 active torsions:
REMARK  status: ('A' for Active; 'I' for Inactive)
REMARK    1  A    between atoms: C5_5  and  N1_6 
REMARK    2  A    between atoms: N1_6  and  C6_7 
REMARK    3  A    between atoms: C12_14  and  O2_15 
REMARK    4  A    between atoms: O2_15  and  C13_16 
REMARK    5  A    between atoms: C13_16  and  C14_17 
ROOT
HETATM    1  C6  UNL     1      23.158   0.248  53.009  1.00  0.00     0.157 C 
HETATM    2  C7  UNL     1      23.597   1.209  52.209  1.00  0.00     0.093 C 
HETATM    3  C8  UNL     1      23.021   1.327  50.844  1.00  0.00     0.082 C 
HETATM    4  C9  UNL     1      21.572   1.730  51.232  1.00  0.00     0.057 C 
HETATM    5  C10 UNL     1      20.935   2.478  50.212  1.00  0.00     0.008 C 
HETATM    6  C11 UNL     1      21.630   3.653  50.174  1.00  0.00     0.135 C 
HETATM    7  O1  UNL     1      22.642   4.124  50.838  1.00  0.00    -0.330 OA
HETATM    8  C12 UNL     1      23.734   4.435  51.490  1.00  0.00     0.289 C 
HETATM    9  C15 UNL     1      24.200   3.558  52.648  1.00  0.00     0.236 C 
HETATM   10  O3  UNL     1      24.515   2.242  52.252  1.00  0.00    -0.347 OA
HETATM   11  C16 UNL     1      21.080   0.475  51.794  1.00  0.00     0.101 C 
HETATM   12  N3  UNL     1      21.808  -0.081  52.718  1.00  0.00    -0.244 NA
ENDROOT
BRANCH   1  13
HETATM   13  N1  UNL     1      24.184  -0.127  53.912  1.00  0.00    -0.339 N 
HETATM   14  H6  UNL     1      23.994  -0.403  54.896  1.00  0.00     0.167 HD
BRANCH  13  15
HETATM   15  C5  UNL     1      25.576  -0.256  53.838  1.00  0.00     0.033 A 
HETATM   16  C4  UNL     1      26.120  -1.134  52.897  1.00  0.00     0.030 A 
HETATM   17  C3  UNL     1      27.482  -1.286  52.788  1.00  0.00     0.009 A 
HETATM   18  C2  UNL     1      28.338  -0.559  53.623  1.00  0.00    -0.062 A 
HETATM   19  C1  UNL     1      29.835  -0.680  53.550  1.00  0.00     0.048 C 
HETATM   20  C18 UNL     1      27.760   0.310  54.554  1.00  0.00     0.009 A 
HETATM   21  C17 UNL     1      26.391   0.468  54.668  1.00  0.00     0.030 A 
ENDBRANCH  13  15
ENDBRANCH   1  13
BRANCH   8  22
HETATM   22  O2  UNL     1      23.593   5.775  51.961  1.00  0.00    -0.354 OA
BRANCH  22  23
HETATM   23  C13 UNL     1      23.691   6.726  51.000  1.00  0.00     0.217 C 
BRANCH  23  24
HETATM   24  C14 UNL     1      25.090   6.606  50.433  1.00  0.00     0.106 C 
HETATM   25  N2  UNL     1      26.028   7.385  50.827  1.00  0.00    -0.314 NA
HETATM   26  H16 UNL     1      26.988   7.380  50.507  1.00  0.00     0.185 HD
ENDBRANCH  23  24
ENDBRANCH  22  23
ENDBRANCH   8  22
TORSDOF 5
ENDMDL
MODEL 7
REMARK VINA RESULT:      -7.7      3.473      6.342
REMARK  5 active torsions:
REMARK  status: ('A' for Active; 'I' for Inactive)
REMARK    1  A    between atoms: C5_5  and  N1_6 
REMARK    2  A    between atoms: N1_6  and  C6_7 
REMARK    3  A    between atoms: C12_14  and  O2_15 
REMARK    4  A    between atoms: O2_15  and  C13_16 
REMARK    5  A    between atoms: C13_16  and  C14_17 
ROOT
HETATM    1  C6  UNL     1      25.060   2.956  51.418  1.00  0.00     0.157 C 
HETATM    2  C7  UNL     1      23.839   2.917  51.931  1.00  0.00     0.093 C 
HETATM    3  C8  UNL     1      22.750   3.672  51.258  1.00  0.00     0.082 C 
HETATM    4  C9  UNL     1      22.680   2.859  49.937  1.00  0.00     0.057 C 
HETATM    5  C10 UNL     1      21.398   2.925  49.339  1.00  0.00     0.008 C 
HETATM    6  C11 UNL     1      20.586   2.256  50.209  1.00  0.00     0.135 C 
HETATM    7  O1  UNL     1      20.783   1.651  51.342  1.00  0.00    -0.330 OA
HETATM    8  C12 UNL     1      21.086   1.181  52.526  1.00  0.00     0.289 C 
HETATM    9  C15 UNL     1      22.548   1.079  52.949  1.00  0.00     0.236 C 
HETATM   10  O3  UNL     1      23.195   2.331  53.006  1.00  0.00    -0.347 OA
HETATM   11  C16 UNL     1      23.932   3.260  49.301  1.00  0.00     0.101 C 
HETATM   12  N3  UNL     1      25.016   3.142  50.012  1.00  0.00    -0.244 NA
ENDROOT
BRANCH   1  13
HETATM   13  N1  UNL     1      26.017   2.781  52.448  1.00  0.00    -0.339 N 
HETATM   14  H6  UNL     1      26.154   3.473  53.211  1.00  0.00     0.167 HD
BRANCH  13  15
HETATM   15  C5  UNL     1      26.957   1.796  52.778  1.00  0.00     0.033 A 
HETATM   16  C4  UNL     1      26.658   0.462  52.495  1.00  0.00     0.030 A 
HETATM   17  C3  UNL     1      27.555  -0.535  52.798  1.00  0.00     0.009 A 
HETATM   18  C2  UNL     1      28.780  -0.218  53.395  1.00  0.00    -0.062 A 
HETATM   19  C1  UNL     1      29.803  -1.263  53.746  1.00  0.00     0.048 C 
HETATM   20  C18 UNL     1      29.047   1.128  53.664  1.00  0.00     0.009 A 
HETATM   21  C17 UNL     1      28.149   2.135  53.362  1.00  0.00     0.030 A 
ENDBRANCH  13  15
ENDBRANCH   1  13
BRANCH   8  22
HETATM   22  O2  UNL     1      20.485  -0.107  52.650  1.00  0.00    -0.354 OA
BRANCH  22  23
HETATM   23  C13 UNL     1      19.145  -0.128  52.448  1.00  0.00     0.217 C 
BRANCH  23  24
HETATM   24  C14 UNL     1      18.612  -1.270  53.287  1.00  0.00     0.106 C 
HETATM   25  N2  UNL     1      17.448  -1.206  53.820  1.00  0.00    -0.314 NA
HETATM   26  H16 UNL     1      17.010  -1.915  54.394  1.00  0.00     0.185 HD
ENDBRANCH  23  24
ENDBRANCH  22  23
ENDBRANCH   8  22
TORSDOF 5
ENDMDL
MODEL 8
REMARK VINA RESULT:      -7.6      2.852      7.887
REMARK  5 active torsions:
REMARK  status: ('A' for Active; 'I' for Inactive)
REMARK    1  A    between atoms: C5_5  and  N1_6 
REMARK    2  A    between atoms: N1_6  and  C6_7 
REMARK    3  A    between atoms: C12_14  and  O2_15 
REMARK    4  A    between atoms: O2_15  and  C13_16 
REMARK    5  A    between atoms: C13_16  and  C14_17 
ROOT
HETATM    1  C6  UNL     1      23.452   0.539  53.072  1.00  0.00     0.157 C 
HETATM    2  C7  UNL     1      24.207   1.615  52.907  1.00  0.00     0.093 C 
HETATM    3  C8  UNL     1      25.363   1.831  53.816  1.00  0.00     0.082 C 
HETATM    4  C9  UNL     1      26.239   0.628  53.374  1.00  0.00     0.057 C 
HETATM    5  C10 UNL     1      27.618   0.863  53.598  1.00  0.00     0.008 C 
HETATM    6  C11 UNL     1      27.934   1.868  52.730  1.00  0.00     0.135 C 
HETATM    7  O1  UNL     1      27.258   2.545  51.851  1.00  0.00    -0.330 OA
HETATM    8  C12 UNL     1      26.447   3.234  51.088  1.00  0.00     0.289 C 
HETATM    9  C15 UNL     1      25.016   2.751  50.873  1.00  0.00     0.236 C 
HETATM   10  O3  UNL     1      24.262   2.711  52.065  1.00  0.00    -0.347 OA
HETATM   11  C16 UNL     1      25.471  -0.487  53.921  1.00  0.00     0.101 C 
HETATM   12  N3  UNL     1      24.206  -0.533  53.618  1.00  0.00    -0.244 NA
ENDROOT
BRANCH   1  13
HETATM   13  N1  UNL     1      22.133   0.808  52.632  1.00  0.00    -0.339 N 
HETATM   14  H6  UNL     1      21.887   1.651  52.075  1.00  0.00     0.167 HD
BRANCH  13  15
HETATM   15  C5  UNL     1      20.894   0.165  52.747  1.00  0.00     0.033 A 
HETATM   16  C4  UNL     1      19.881   0.494  51.843  1.00  0.00     0.030 A 
HETATM   17  C3  UNL     1      18.652  -0.118  51.917  1.00  0.00     0.009 A 
HETATM   18  C2  UNL     1      18.406  -1.079  52.903  1.00  0.00    -0.062 A 
HETATM   19  C1  UNL     1      17.084  -1.785  53.033  1.00  0.00     0.048 C 
HETATM   20  C18 UNL     1      19.442  -1.384  53.792  1.00  0.00     0.009 A 
HETATM   21  C17 UNL     1      20.680  -0.773  53.722  1.00  0.00     0.030 A 
ENDBRANCH  13  15
ENDBRANCH   1  13
BRANCH   8  22
HETATM   22  O2  UNL     1      27.072   3.388  49.815  1.00  0.00    -0.354 OA
BRANCH  22  23
HETATM   23  C13 UNL     1      26.471   4.283  48.993  1.00  0.00     0.217 C 
BRANCH  23  24
HETATM   24  C14 UNL     1      27.524   5.318  48.659  1.00  0.00     0.106 C 
HETATM   25  N2  UNL     1      28.751   5.135  48.979  1.00  0.00    -0.314 NA
HETATM   26  H16 UNL     1      29.520   5.768  48.799  1.00  0.00     0.185 HD
ENDBRANCH  23  24
ENDBRANCH  22  23
ENDBRANCH   8  22
TORSDOF 5
ENDMDL
MODEL 9
REMARK VINA RESULT:      -7.4      3.157      7.393
REMARK  5 active torsions:
REMARK  status: ('A' for Active; 'I' for Inactive)
REMARK    1  A    between atoms: C5_5  and  N1_6 
REMARK    2  A    between atoms: N1_6  and  C6_7 
REMARK    3  A    between atoms: C12_14  and  O2_15 
REMARK    4  A    between atoms: O2_15  and  C13_16 
REMARK    5  A    between atoms: C13_16  and  C14_17 
ROOT
HETATM    1  C6  UNL     1      24.053   3.505  51.575  1.00  0.00     0.157 C 
HETATM    2  C7  UNL     1      24.626   3.952  50.466  1.00  0.00     0.093 C 
HETATM    3  C8  UNL     1      23.934   3.752  49.167  1.00  0.00     0.082 C 
HETATM    4  C9  UNL     1      22.706   4.671  49.409  1.00  0.00     0.057 C 
HETATM    5  C10 UNL     1      22.167   5.170  48.198  1.00  0.00     0.008 C 
HETATM    6  C11 UNL     1      23.138   5.998  47.713  1.00  0.00     0.135 C 
HETATM    7  O1  UNL     1      24.315   6.350  48.134  1.00  0.00    -0.330 OA
HETATM    8  C12 UNL     1      25.524   6.534  48.603  1.00  0.00     0.289 C 
HETATM    9  C15 UNL     1      25.884   6.019  49.993  1.00  0.00     0.236 C 
HETATM   10  O3  UNL     1      25.784   4.616  50.105  1.00  0.00    -0.347 OA
HETATM   11  C16 UNL     1      21.973   3.894  50.405  1.00  0.00     0.101 C 
HETATM   12  N3  UNL     1      22.639   3.507  51.454  1.00  0.00    -0.244 NA
ENDROOT
BRANCH   1  13
HETATM   13  N1  UNL     1      25.049   3.183  52.530  1.00  0.00    -0.339 N 
HETATM   14  H6  UNL     1      25.264   3.792  53.345  1.00  0.00     0.167 HD
BRANCH  13  15
HETATM   15  C5  UNL     1      25.945   2.123  52.716  1.00  0.00     0.033 A 
HETATM   16  C4  UNL     1      25.740   0.938  52.006  1.00  0.00     0.030 A 
HETATM   17  C3  UNL     1      26.599  -0.124  52.155  1.00  0.00     0.009 A 
HETATM   18  C2  UNL     1      27.692  -0.026  53.023  1.00  0.00    -0.062 A 
HETATM   19  C1  UNL     1      28.668  -1.152  53.226  1.00  0.00     0.048 C 
HETATM   20  C18 UNL     1      27.868   1.175  53.719  1.00  0.00     0.009 A 
HETATM   21  C17 UNL     1      27.007   2.247  53.573  1.00  0.00     0.030 A 
ENDBRANCH  13  15
ENDBRANCH   1  13
BRANCH   8  22
HETATM   22  O2  UNL     1      25.806   7.931  48.547  1.00  0.00    -0.354 OA
BRANCH  22  23
HETATM   23  C13 UNL     1      25.763   8.566  49.743  1.00  0.00     0.217 C 
BRANCH  23  24
HETATM   24  C14 UNL     1      27.106   9.245  49.907  1.00  0.00     0.106 C 
HETATM   25  N2  UNL     1      27.574   9.504  51.071  1.00  0.00    -0.314 NA
HETATM   26  H16 UNL     1      28.457   9.953  51.278  1.00  0.00     0.185 HD
ENDBRANCH  23  24
ENDBRANCH  22  23
ENDBRANCH   8  22
TORSDOF 5
ENDMDL
