MODEL 1
REMARK VINA RESULT:      -9.5      0.000      0.000
REMARK  7 active torsions:
REMARK  status: ('A' for Active; 'I' for Inactive)
REMARK    1  A    between atoms: O1_2  and  C2_3 
REMARK    2  A    between atoms: C5_6  and  N1_7 
REMARK    3  A    between atoms: N1_7  and  C6_8 
REMARK    4  A    between atoms: N4_18  and  C14_19 
REMARK    5  A    between atoms: C14_19  and  C15_20 
REMARK    6  A    between atoms: C15_20  and  C16_21 
REMARK    7  A    between atoms: C23_32  and  O5_33 
ROOT
HETATM    1  C6  UNL     1      23.754   2.797  49.948  1.00  0.00     0.142 A 
HETATM    2  N2  UNL     1      23.116   3.347  48.885  1.00  0.00    -0.224 NA
HETATM    3  C7  UNL     1      21.819   3.015  48.622  1.00  0.00     0.236 A 
HETATM    4  N3  UNL     1      21.165   2.144  49.411  1.00  0.00    -0.241 NA
HETATM    5  C8  UNL     1      21.754   1.572  50.478  1.00  0.00     0.075 A 
HETATM    6  C9  UNL     1      21.064   0.681  51.275  1.00  0.00     0.071 A 
HETATM    7  C10 UNL     1      21.680   0.106  52.362  1.00  0.00     0.098 A 
HETATM    8  C11 UNL     1      22.999   0.387  52.706  1.00  0.00     0.071 A 
HETATM    9  C12 UNL     1      23.624   1.282  51.865  1.00  0.00     0.050 A 
HETATM   10  C13 UNL     1      23.072   1.892  50.768  1.00  0.00     0.041 A 
HETATM   11  N4  UNL     1      23.669  -0.202  53.844  1.00  0.00    -0.314 N 
HETATM   12  C20 UNL     1      22.837  -1.103  54.582  1.00  0.00     0.248 C 
HETATM   13  O3  UNL     1      23.272  -1.324  55.756  1.00  0.00    -0.271 OA
HETATM   14  C21 UNL     1      21.596  -1.705  54.017  1.00  0.00     0.279 C 
HETATM   15  O4  UNL     1      20.954  -0.785  53.138  1.00  0.00    -0.340 OA
ENDROOT
BRANCH   1  16
HETATM   16  N1  UNL     1      25.087   3.014  50.385  1.00  0.00    -0.340 N 
HETATM   17  H6  UNL     1      25.689   2.435  50.992  1.00  0.00     0.167 HD
BRANCH  16  18
HETATM   18  C5  UNL     1      25.711   4.218  49.896  1.00  0.00     0.036 A 
HETATM   19  C4  UNL     1      26.846   4.191  49.079  1.00  0.00     0.032 A 
HETATM   20  C3  UNL     1      27.437   5.360  48.608  1.00  0.00     0.042 A 
HETATM   21  C2  UNL     1      26.902   6.571  48.944  1.00  0.00     0.101 A 
HETATM   22  C23 UNL     1      25.799   6.651  49.736  1.00  0.00     0.103 A 
HETATM   23  C22 UNL     1      25.229   5.487  50.192  1.00  0.00     0.069 A 
BRANCH  21  24
HETATM   24  O1  UNL     1      27.578   7.687  48.412  1.00  0.00    -0.353 OA
HETATM   25  C1  UNL     1      28.900   8.017  48.601  1.00  0.00     0.210 C 
ENDBRANCH  21  24
BRANCH  22  26
HETATM   26  O5  UNL     1      25.295   7.911  50.049  1.00  0.00    -0.353 OA
HETATM   27  C24 UNL     1      23.987   8.066  50.599  1.00  0.00     0.210 C 
ENDBRANCH  22  26
ENDBRANCH  16  18
ENDBRANCH   1  16
BRANCH  11  28
HETATM   28  C14 UNL     1      25.028   0.186  54.041  1.00  0.00     0.134 C 
BRANCH  28  29
HETATM   29  C15 UNL     1      26.069  -0.802  53.685  1.00  0.00     0.056 C 
BRANCH  29  30
HETATM   30  C16 UNL     1      27.186  -0.406  52.816  1.00  0.00     0.226 C 
HETATM   31  C17 UNL     1      28.557  -0.667  53.359  1.00  0.00     0.062 C 
HETATM   32  C18 UNL     1      28.672  -0.022  54.726  1.00  0.00     0.172 C 
HETATM   33  O2  UNL     1      28.287   1.295  54.658  1.00  0.00    -0.363 OA
HETATM   34  C19 UNL     1      28.044   1.786  53.396  1.00  0.00     0.437 C 
HETATM   35  N5  UNL     1      27.095   1.037  52.624  1.00  0.00     0.111 N 
HETATM   36  H21 UNL     1      27.208   1.307  51.624  1.00  0.00     0.319 HD
ENDBRANCH  29  30
ENDBRANCH  28  29
ENDBRANCH  11  28
TORSDOF 7
ENDMDL
MODEL 2
REMARK VINA RESULT:      -9.3      2.397      6.571
REMARK  7 active torsions:
REMARK  status: ('A' for Active; 'I' for Inactive)
REMARK    1  A    between atoms: O1_2  and  C2_3 
REMARK    2  A    between atoms: C5_6  and  N1_7 
REMARK    3  A    between atoms: N1_7  and  C6_8 
REMARK    4  A    between atoms: N4_18  and  C14_19 
REMARK    5  A    between atoms: C14_19  and  C15_20 
REMARK    6  A    between atoms: C15_20  and  C16_21 
REMARK    7  A    between atoms: C23_32  and  O5_33 
ROOT
HETATM    1  C6  UNL     1      22.179  -0.561  53.049  1.00  0.00     0.142 A 
HETATM    2  N2  UNL     1      21.239  -1.244  53.751  1.00  0.00    -0.224 NA
HETATM    3  C7  UNL     1      21.560  -1.806  54.952  1.00  0.00     0.236 A 
HETATM    4  N3  UNL     1      22.805  -1.688  55.449  1.00  0.00    -0.241 NA
HETATM    5  C8  UNL     1      23.772  -1.020  54.792  1.00  0.00     0.075 A 
HETATM    6  C9  UNL     1      25.042  -0.911  55.320  1.00  0.00     0.071 A 
HETATM    7  C10 UNL     1      26.019  -0.224  54.635  1.00  0.00     0.098 A 
HETATM    8  C11 UNL     1      25.780   0.381  53.405  1.00  0.00     0.071 A 
HETATM    9  C12 UNL     1      24.492   0.229  52.940  1.00  0.00     0.050 A 
HETATM   10  C13 UNL     1      23.472  -0.439  53.567  1.00  0.00     0.041 A 
HETATM   11  N4  UNL     1      26.787   1.110  52.667  1.00  0.00    -0.314 N 
HETATM   12  C20 UNL     1      28.055   1.146  53.331  1.00  0.00     0.248 C 
HETATM   13  O3  UNL     1      28.812   2.070  52.895  1.00  0.00    -0.271 OA
HETATM   14  C21 UNL     1      28.427   0.195  54.417  1.00  0.00     0.279 C 
HETATM   15  O4  UNL     1      27.282  -0.138  55.199  1.00  0.00    -0.340 OA
ENDROOT
BRANCH   1  16
HETATM   16  N1  UNL     1      22.041   0.090  51.795  1.00  0.00    -0.340 N 
HETATM   17  H6  UNL     1      22.552  -0.060  50.911  1.00  0.00     0.167 HD
BRANCH  16  18
HETATM   18  C5  UNL     1      21.023   1.108  51.734  1.00  0.00     0.036 A 
HETATM   19  C4  UNL     1      19.659   0.801  51.768  1.00  0.00     0.032 A 
HETATM   20  C3  UNL     1      18.684   1.793  51.714  1.00  0.00     0.042 A 
HETATM   21  C2  UNL     1      19.057   3.104  51.627  1.00  0.00     0.101 A 
HETATM   22  C23 UNL     1      20.371   3.454  51.590  1.00  0.00     0.103 A 
HETATM   23  C22 UNL     1      21.320   2.462  51.645  1.00  0.00     0.069 A 
BRANCH  21  24
HETATM   24  O1  UNL     1      17.991   4.024  51.580  1.00  0.00    -0.353 OA
HETATM   25  C1  UNL     1      17.201   4.313  50.492  1.00  0.00     0.210 C 
ENDBRANCH  21  24
BRANCH  22  26
HETATM   26  O5  UNL     1      20.697   4.806  51.501  1.00  0.00    -0.353 OA
HETATM   27  C24 UNL     1      20.906   5.431  50.235  1.00  0.00     0.210 C 
ENDBRANCH  22  26
ENDBRANCH  16  18
ENDBRANCH   1  16
BRANCH  11  28
HETATM   28  C14 UNL     1      26.375   1.654  51.413  1.00  0.00     0.134 C 
BRANCH  28  29
HETATM   29  C15 UNL     1      26.025   3.089  51.384  1.00  0.00     0.056 C 
BRANCH  29  30
HETATM   30  C16 UNL     1      24.724   3.513  50.846  1.00  0.00     0.226 C 
HETATM   31  C17 UNL     1      24.717   3.917  49.404  1.00  0.00     0.062 C 
HETATM   32  C18 UNL     1      25.771   4.986  49.191  1.00  0.00     0.172 C 
HETATM   33  O2  UNL     1      25.606   5.997  50.106  1.00  0.00    -0.363 OA
HETATM   34  C19 UNL     1      24.475   5.924  50.886  1.00  0.00     0.437 C 
HETATM   35  N5  UNL     1      24.306   4.691  51.599  1.00  0.00     0.111 N 
HETATM   36  H21 UNL     1      23.312   4.628  51.904  1.00  0.00     0.319 HD
ENDBRANCH  29  30
ENDBRANCH  28  29
ENDBRANCH  11  28
TORSDOF 7
ENDMDL
MODEL 3
REMARK VINA RESULT:      -9.2      2.476      6.944
REMARK  7 active torsions:
REMARK  status: ('A' for Active; 'I' for Inactive)
REMARK    1  A    between atoms: O1_2  and  C2_3 
REMARK    2  A    between atoms: C5_6  and  N1_7 
REMARK    3  A    between atoms: N1_7  and  C6_8 
REMARK    4  A    between atoms: N4_18  and  C14_19 
REMARK    5  A    between atoms: C14_19  and  C15_20 
REMARK    6  A    between atoms: C15_20  and  C16_21 
REMARK    7  A    between atoms: C23_32  and  O5_33 
ROOT
HETATM    1  C6  UNL     1      22.133  -0.322  52.884  1.00  0.00     0.142 A 
HETATM    2  N2  UNL     1      21.127  -0.960  53.534  1.00  0.00    -0.224 NA
HETATM    3  C7  UNL     1      21.369  -1.576  54.727  1.00  0.00     0.236 A 
HETATM    4  N3  UNL     1      22.602  -1.556  55.267  1.00  0.00    -0.241 NA
HETATM    5  C8  UNL     1      23.632  -0.935  54.661  1.00  0.00     0.075 A 
HETATM    6  C9  UNL     1      24.888  -0.927  55.233  1.00  0.00     0.071 A 
HETATM    7  C10 UNL     1      25.930  -0.287  54.601  1.00  0.00     0.098 A 
HETATM    8  C11 UNL     1      25.774   0.367  53.383  1.00  0.00     0.071 A 
HETATM    9  C12 UNL     1      24.495   0.315  52.873  1.00  0.00     0.050 A 
HETATM   10  C13 UNL     1      23.412  -0.301  53.447  1.00  0.00     0.041 A 
HETATM   11  N4  UNL     1      26.851   1.048  52.700  1.00  0.00    -0.314 N 
HETATM   12  C20 UNL     1      28.095   0.981  53.406  1.00  0.00     0.248 C 
HETATM   13  O3  UNL     1      28.926   1.864  53.022  1.00  0.00    -0.271 OA
HETATM   14  C21 UNL     1      28.366  -0.023  54.473  1.00  0.00     0.279 C 
HETATM   15  O4  UNL     1      27.177  -0.301  55.207  1.00  0.00    -0.340 OA
ENDROOT
BRANCH   1  16
HETATM   16  N1  UNL     1      22.081   0.372  51.647  1.00  0.00    -0.340 N 
HETATM   17  H6  UNL     1      22.731   0.348  50.846  1.00  0.00     0.167 HD
BRANCH  16  18
HETATM   18  C5  UNL     1      20.939   1.233  51.466  1.00  0.00     0.036 A 
HETATM   19  C4  UNL     1      20.849   2.490  52.072  1.00  0.00     0.032 A 
HETATM   20  C3  UNL     1      19.744   3.316  51.885  1.00  0.00     0.042 A 
HETATM   21  C2  UNL     1      18.716   2.899  51.088  1.00  0.00     0.101 A 
HETATM   22  C23 UNL     1      18.755   1.685  50.477  1.00  0.00     0.103 A 
HETATM   23  C22 UNL     1      19.854   0.883  50.672  1.00  0.00     0.069 A 
BRANCH  21  24
HETATM   24  O1  UNL     1      17.650   3.813  50.968  1.00  0.00    -0.353 OA
HETATM   25  C1  UNL     1      16.572   3.937  51.813  1.00  0.00     0.210 C 
ENDBRANCH  21  24
BRANCH  22  26
HETATM   26  O5  UNL     1      17.680   1.309  49.675  1.00  0.00    -0.353 OA
HETATM   27  C24 UNL     1      17.000   0.072  49.887  1.00  0.00     0.210 C 
ENDBRANCH  22  26
ENDBRANCH  16  18
ENDBRANCH   1  16
BRANCH  11  28
HETATM   28  C14 UNL     1      26.519   1.654  51.451  1.00  0.00     0.134 C 
BRANCH  28  29
HETATM   29  C15 UNL     1      26.059   3.058  51.485  1.00  0.00     0.056 C 
BRANCH  29  30
HETATM   30  C16 UNL     1      24.782   3.424  50.855  1.00  0.00     0.226 C 
HETATM   31  C17 UNL     1      24.849   3.769  49.400  1.00  0.00     0.062 C 
HETATM   32  C18 UNL     1      25.887   4.857  49.203  1.00  0.00     0.172 C 
HETATM   33  O2  UNL     1      25.644   5.900  50.064  1.00  0.00    -0.363 OA
HETATM   34  C19 UNL     1      24.471   5.827  50.780  1.00  0.00     0.437 C 
HETATM   35  N5  UNL     1      24.292   4.620  51.532  1.00  0.00     0.111 N 
HETATM   36  H21 UNL     1      23.283   4.542  51.783  1.00  0.00     0.319 HD
ENDBRANCH  29  30
ENDBRANCH  28  29
ENDBRANCH  11  28
TORSDOF 7
ENDMDL
MODEL 4
REMARK VINA RESULT:      -8.9      1.778      4.860
REMARK  7 active torsions:
REMARK  status: ('A' for Active; 'I' for Inactive)
REMARK    1  A    between atoms: O1_2  and  C2_3 
REMARK    2  A    between atoms: C5_6  and  N1_7 
REMARK    3  A    between atoms: N1_7  and  C6_8 
REMARK    4  A    between atoms: N4_18  and  C14_19 
REMARK    5  A    between atoms: C14_19  and  C15_20 
REMARK    6  A    between atoms: C15_20  and  C16_21 
REMARK    7  A    between atoms: C23_32  and  O5_33 
ROOT
HETATM    1  C6  UNL     1      26.710   2.035  51.926  1.00  0.00     0.142 A 
HETATM    2  N2  UNL     1      27.955   2.494  52.215  1.00  0.00    -0.224 NA
HETATM    3  C7  UNL     1      28.558   2.137  53.385  1.00  0.00     0.236 A 
HETATM    4  N3  UNL     1      27.928   1.331  54.259  1.00  0.00    -0.241 NA
HETATM    5  C8  UNL     1      26.694   0.849  54.018  1.00  0.00     0.075 A 
HETATM    6  C9  UNL     1      26.067   0.022  54.928  1.00  0.00     0.071 A 
HETATM    7  C10 UNL     1      24.806  -0.463  54.665  1.00  0.00     0.098 A 
HETATM    8  C11 UNL     1      24.116  -0.151  53.497  1.00  0.00     0.071 A 
HETATM    9  C12 UNL     1      24.803   0.678  52.639  1.00  0.00     0.050 A 
HETATM   10  C13 UNL     1      26.058   1.197  52.834  1.00  0.00     0.041 A 
HETATM   11  N4  UNL     1      22.792  -0.650  53.197  1.00  0.00    -0.314 N 
HETATM   12  C20 UNL     1      22.264  -1.496  54.224  1.00  0.00     0.248 C 
HETATM   13  O3  UNL     1      21.299  -2.218  53.817  1.00  0.00    -0.271 OA
HETATM   14  C21 UNL     1      22.801  -1.514  55.613  1.00  0.00     0.279 C 
HETATM   15  O4  UNL     1      24.209  -1.290  55.604  1.00  0.00    -0.340 OA
ENDROOT
BRANCH   1  16
HETATM   16  N1  UNL     1      25.924   2.289  50.772  1.00  0.00    -0.340 N 
HETATM   17  H6  UNL     1      25.346   1.645  50.210  1.00  0.00     0.167 HD
BRANCH  16  18
HETATM   18  C5  UNL     1      25.912   3.656  50.317  1.00  0.00     0.036 A 
HETATM   19  C4  UNL     1      26.780   4.119  49.323  1.00  0.00     0.032 A 
HETATM   20  C3  UNL     1      26.755   5.441  48.886  1.00  0.00     0.042 A 
HETATM   21  C2  UNL     1      25.862   6.317  49.435  1.00  0.00     0.101 A 
HETATM   22  C23 UNL     1      24.997   5.916  50.406  1.00  0.00     0.103 A 
HETATM   23  C22 UNL     1      25.036   4.608  50.824  1.00  0.00     0.069 A 
BRANCH  21  24
HETATM   24  O1  UNL     1      25.922   7.627  48.921  1.00  0.00    -0.353 OA
HETATM   25  C1  UNL     1      26.696   8.663  49.391  1.00  0.00     0.210 C 
ENDBRANCH  21  24
BRANCH  22  26
HETATM   26  O5  UNL     1      24.108   6.851  50.932  1.00  0.00    -0.353 OA
HETATM   27  C24 UNL     1      22.749   6.899  50.499  1.00  0.00     0.210 C 
ENDBRANCH  22  26
ENDBRANCH  16  18
ENDBRANCH   1  16
BRANCH  11  28
HETATM   28  C14 UNL     1      22.226  -0.218  51.960  1.00  0.00     0.134 C 
BRANCH  28  29
HETATM   29  C15 UNL     1      21.067   0.697  52.033  1.00  0.00     0.056 C 
BRANCH  29  30
HETATM   30  C16 UNL     1      20.777   1.600  50.910  1.00  0.00     0.226 C 
HETATM   31  C17 UNL     1      21.595   2.853  50.855  1.00  0.00     0.062 C 
HETATM   32  C18 UNL     1      21.472   3.576  52.182  1.00  0.00     0.172 C 
HETATM   33  O2  UNL     1      20.147   3.729  52.513  1.00  0.00    -0.363 OA
HETATM   34  C19 UNL     1      19.240   3.363  51.546  1.00  0.00     0.437 C 
HETATM   35  N5  UNL     1      19.389   2.028  51.045  1.00  0.00     0.111 N 
HETATM   36  H21 UNL     1      18.870   1.961  50.144  1.00  0.00     0.319 HD
ENDBRANCH  29  30
ENDBRANCH  28  29
ENDBRANCH  11  28
TORSDOF 7
ENDMDL
MODEL 5
REMARK VINA RESULT:      -8.7      1.789      4.690
REMARK  7 active torsions:
REMARK  status: ('A' for Active; 'I' for Inactive)
REMARK    1  A    between atoms: O1_2  and  C2_3 
REMARK    2  A    between atoms: C5_6  and  N1_7 
REMARK    3  A    between atoms: N1_7  and  C6_8 
REMARK    4  A    between atoms: N4_18  and  C14_19 
REMARK    5  A    between atoms: C14_19  and  C15_20 
REMARK    6  A    between atoms: C15_20  and  C16_21 
REMARK    7  A    between atoms: C23_32  and  O5_33 
ROOT
HETATM    1  C6  UNL     1      25.804   2.465  51.699  1.00  0.00     0.142 A 
HETATM    2  N2  UNL     1      27.150   2.426  51.866  1.00  0.00    -0.224 NA
HETATM    3  C7  UNL     1      27.708   1.489  52.685  1.00  0.00     0.236 A 
HETATM    4  N3  UNL     1      26.933   0.599  53.332  1.00  0.00    -0.241 NA
HETATM    5  C8  UNL     1      25.593   0.597  53.198  1.00  0.00     0.075 A 
HETATM    6  C9  UNL     1      24.817  -0.325  53.871  1.00  0.00     0.071 A 
HETATM    7  C10 UNL     1      23.448  -0.315  53.723  1.00  0.00     0.098 A 
HETATM    8  C11 UNL     1      22.794   0.603  52.907  1.00  0.00     0.071 A 
HETATM    9  C12 UNL     1      23.632   1.492  52.271  1.00  0.00     0.050 A 
HETATM   10  C13 UNL     1      25.000   1.539  52.371  1.00  0.00     0.041 A 
HETATM   11  N4  UNL     1      21.359   0.634  52.733  1.00  0.00    -0.314 N 
HETATM   12  C20 UNL     1      20.680  -0.378  53.484  1.00  0.00     0.248 C 
HETATM   13  O3  UNL     1      19.501  -0.598  53.060  1.00  0.00    -0.271 OA
HETATM   14  C21 UNL     1      21.306  -1.087  54.637  1.00  0.00     0.279 C 
HETATM   15  O4  UNL     1      22.703  -1.257  54.415  1.00  0.00    -0.340 OA
ENDROOT
BRANCH   1  16
HETATM   16  N1  UNL     1      25.041   3.353  50.896  1.00  0.00    -0.340 N 
HETATM   17  H6  UNL     1      24.018   3.443  50.796  1.00  0.00     0.167 HD
BRANCH  16  18
HETATM   18  C5  UNL     1      25.804   4.287  50.108  1.00  0.00     0.036 A 
HETATM   19  C4  UNL     1      26.903   3.891  49.339  1.00  0.00     0.032 A 
HETATM   20  C3  UNL     1      27.629   4.802  48.576  1.00  0.00     0.042 A 
HETATM   21  C2  UNL     1      27.267   6.118  48.568  1.00  0.00     0.101 A 
HETATM   22  C23 UNL     1      26.205   6.554  49.300  1.00  0.00     0.103 A 
HETATM   23  C22 UNL     1      25.500   5.641  50.046  1.00  0.00     0.069 A 
BRANCH  21  24
HETATM   24  O1  UNL     1      28.068   6.951  47.763  1.00  0.00    -0.353 OA
HETATM   25  C1  UNL     1      29.380   7.298  47.987  1.00  0.00     0.210 C 
ENDBRANCH  21  24
BRANCH  22  26
HETATM   26  O5  UNL     1      25.879   7.907  49.257  1.00  0.00    -0.353 OA
HETATM   27  C24 UNL     1      26.538   8.851  50.100  1.00  0.00     0.210 C 
ENDBRANCH  22  26
ENDBRANCH  16  18
ENDBRANCH   1  16
BRANCH  11  28
HETATM   28  C14 UNL     1      20.854   1.653  51.871  1.00  0.00     0.134 C 
BRANCH  28  29
HETATM   29  C15 UNL     1      20.564   1.272  50.473  1.00  0.00     0.056 C 
BRANCH  29  30
HETATM   30  C16 UNL     1      20.196   2.305  49.495  1.00  0.00     0.226 C 
HETATM   31  C17 UNL     1      20.755   2.125  48.117  1.00  0.00     0.062 C 
HETATM   32  C18 UNL     1      22.261   1.979  48.216  1.00  0.00     0.172 C 
HETATM   33  O2  UNL     1      22.786   3.011  48.955  1.00  0.00    -0.363 OA
HETATM   34  C19 UNL     1      21.907   4.011  49.300  1.00  0.00     0.437 C 
HETATM   35  N5  UNL     1      20.725   3.573  49.984  1.00  0.00     0.111 N 
HETATM   36  H21 UNL     1      20.019   4.338  49.931  1.00  0.00     0.319 HD
ENDBRANCH  29  30
ENDBRANCH  28  29
ENDBRANCH  11  28
TORSDOF 7
ENDMDL
MODEL 6
REMARK VINA RESULT:      -8.4      1.830      4.949
REMARK  7 active torsions:
REMARK  status: ('A' for Active; 'I' for Inactive)
REMARK    1  A    between atoms: O1_2  and  C2_3 
REMARK    2  A    between atoms: C5_6  and  N1_7 
REMARK    3  A    between atoms: N1_7  and  C6_8 
REMARK    4  A    between atoms: N4_18  and  C14_19 
REMARK    5  A    between atoms: C14_19  and  C15_20 
REMARK    6  A    between atoms: C15_20  and  C16_21 
REMARK    7  A    between atoms: C23_32  and  O5_33 
ROOT
HETATM    1  C6  UNL     1      25.661   2.566  51.376  1.00  0.00     0.142 A 
HETATM    2  N2  UNL     1      27.010   2.608  51.516  1.00  0.00    -0.224 NA
HETATM    3  C7  UNL     1      27.631   1.773  52.398  1.00  0.00     0.236 A 
HETATM    4  N3  UNL     1      26.914   0.903  53.132  1.00  0.00    -0.241 NA
HETATM    5  C8  UNL     1      25.574   0.821  53.029  1.00  0.00     0.075 A 
HETATM    6  C9  UNL     1      24.858  -0.079  53.792  1.00  0.00     0.071 A 
HETATM    7  C10 UNL     1      23.489  -0.150  53.673  1.00  0.00     0.098 A 
HETATM    8  C11 UNL     1      22.774   0.663  52.799  1.00  0.00     0.071 A 
HETATM    9  C12 UNL     1      23.554   1.536  52.073  1.00  0.00     0.050 A 
HETATM   10  C13 UNL     1      24.918   1.660  52.139  1.00  0.00     0.041 A 
HETATM   11  N4  UNL     1      21.336   0.606  52.654  1.00  0.00    -0.314 N 
HETATM   12  C20 UNL     1      20.724  -0.372  53.501  1.00  0.00     0.248 C 
HETATM   13  O3  UNL     1      19.551  -0.685  53.122  1.00  0.00    -0.271 OA
HETATM   14  C21 UNL     1      21.406  -0.949  54.694  1.00  0.00     0.279 C 
HETATM   15  O4  UNL     1      22.806  -1.067  54.457  1.00  0.00    -0.340 OA
ENDROOT
BRANCH   1  16
HETATM   16  N1  UNL     1      24.839   3.343  50.519  1.00  0.00    -0.340 N 
HETATM   17  H6  UNL     1      23.905   3.139  50.131  1.00  0.00     0.167 HD
BRANCH  16  18
HETATM   18  C5  UNL     1      25.377   4.625  50.139  1.00  0.00     0.036 A 
HETATM   19  C4  UNL     1      24.903   5.823  50.683  1.00  0.00     0.032 A 
HETATM   20  C3  UNL     1      25.435   7.056  50.313  1.00  0.00     0.042 A 
HETATM   21  C2  UNL     1      26.448   7.109  49.398  1.00  0.00     0.101 A 
HETATM   22  C23 UNL     1      26.943   5.972  48.840  1.00  0.00     0.103 A 
HETATM   23  C22 UNL     1      26.406   4.764  49.217  1.00  0.00     0.069 A 
BRANCH  21  24
HETATM   24  O1  UNL     1      26.910   8.405  49.098  1.00  0.00    -0.353 OA
HETATM   25  C1  UNL     1      26.294   9.593  49.413  1.00  0.00     0.210 C 
ENDBRANCH  21  24
BRANCH  22  26
HETATM   26  O5  UNL     1      27.975   6.082  47.911  1.00  0.00    -0.353 OA
HETATM   27  C24 UNL     1      29.298   5.646  48.225  1.00  0.00     0.210 C 
ENDBRANCH  22  26
ENDBRANCH  16  18
ENDBRANCH   1  16
BRANCH  11  28
HETATM   28  C14 UNL     1      20.764   1.523  51.722  1.00  0.00     0.134 C 
BRANCH  28  29
HETATM   29  C15 UNL     1      20.605   1.057  50.329  1.00  0.00     0.056 C 
BRANCH  29  30
HETATM   30  C16 UNL     1      20.082   1.974  49.306  1.00  0.00     0.226 C 
HETATM   31  C17 UNL     1      20.835   2.004  48.012  1.00  0.00     0.062 C 
HETATM   32  C18 UNL     1      22.296   2.287  48.303  1.00  0.00     0.172 C 
HETATM   33  O2  UNL     1      22.409   3.402  49.098  1.00  0.00    -0.363 OA
HETATM   34  C19 UNL     1      21.246   4.100  49.323  1.00  0.00     0.437 C 
HETATM   35  N5  UNL     1      20.163   3.324  49.852  1.00  0.00     0.111 N 
HETATM   36  H21 UNL     1      19.280   3.859  49.706  1.00  0.00     0.319 HD
ENDBRANCH  29  30
ENDBRANCH  28  29
ENDBRANCH  11  28
TORSDOF 7
ENDMDL
MODEL 7
REMARK VINA RESULT:      -8.4      3.220      6.755
REMARK  7 active torsions:
REMARK  status: ('A' for Active; 'I' for Inactive)
REMARK    1  A    between atoms: O1_2  and  C2_3 
REMARK    2  A    between atoms: C5_6  and  N1_7 
REMARK    3  A    between atoms: N1_7  and  C6_8 
REMARK    4  A    between atoms: N4_18  and  C14_19 
REMARK    5  A    between atoms: C14_19  and  C15_20 
REMARK    6  A    between atoms: C15_20  and  C16_21 
REMARK    7  A    between atoms: C23_32  and  O5_33 
ROOT
HETATM    1  C6  UNL     1      22.981  -0.236  53.321  1.00  0.00     0.142 A 
HETATM    2  N2  UNL     1      23.411  -0.923  54.409  1.00  0.00    -0.224 NA
HETATM    3  C7  UNL     1      22.515  -1.586  55.195  1.00  0.00     0.236 A 
HETATM    4  N3  UNL     1      21.202  -1.566  54.898  1.00  0.00    -0.241 NA
HETATM    5  C8  UNL     1      20.726  -0.900  53.829  1.00  0.00     0.075 A 
HETATM    6  C9  UNL     1      19.376  -0.893  53.544  1.00  0.00     0.071 A 
HETATM    7  C10 UNL     1      18.906  -0.207  52.447  1.00  0.00     0.098 A 
HETATM    8  C11 UNL     1      19.748   0.496  51.591  1.00  0.00     0.071 A 
HETATM    9  C12 UNL     1      21.079   0.445  51.940  1.00  0.00     0.050 A 
HETATM   10  C13 UNL     1      21.617  -0.216  53.014  1.00  0.00     0.041 A 
HETATM   11  N4  UNL     1      19.279   1.221  50.431  1.00  0.00    -0.314 N 
HETATM   12  C20 UNL     1      17.861   1.142  50.253  1.00  0.00     0.248 C 
HETATM   13  O3  UNL     1      17.497   1.443  49.072  1.00  0.00    -0.271 OA
HETATM   14  C21 UNL     1      16.930   0.745  51.346  1.00  0.00     0.279 C 
HETATM   15  O4  UNL     1      17.543  -0.224  52.193  1.00  0.00    -0.340 OA
ENDROOT
BRANCH   1  16
HETATM   16  N1  UNL     1      23.750   0.509  52.389  1.00  0.00    -0.340 N 
HETATM   17  H6  UNL     1      23.462   0.971  51.512  1.00  0.00     0.167 HD
BRANCH  16  18
HETATM   18  C5  UNL     1      25.144   0.662  52.717  1.00  0.00     0.036 A 
HETATM   19  C4  UNL     1      25.732   1.917  52.908  1.00  0.00     0.032 A 
HETATM   20  C3  UNL     1      27.079   2.053  53.231  1.00  0.00     0.042 A 
HETATM   21  C2  UNL     1      27.857   0.939  53.370  1.00  0.00     0.101 A 
HETATM   22  C23 UNL     1      27.333  -0.304  53.194  1.00  0.00     0.103 A 
HETATM   23  C22 UNL     1      26.002  -0.419  52.875  1.00  0.00     0.069 A 
BRANCH  21  24
HETATM   24  O1  UNL     1      29.204   1.192  53.698  1.00  0.00    -0.353 OA
HETATM   25  C1  UNL     1      29.669   2.068  54.651  1.00  0.00     0.210 C 
ENDBRANCH  21  24
BRANCH  22  26
HETATM   26  O5  UNL     1      28.171  -1.406  53.347  1.00  0.00    -0.353 OA
HETATM   27  C24 UNL     1      27.873  -2.652  52.716  1.00  0.00     0.210 C 
ENDBRANCH  22  26
ENDBRANCH  16  18
ENDBRANCH   1  16
BRANCH  11  28
HETATM   28  C14 UNL     1      20.278   1.901  49.671  1.00  0.00     0.134 C 
BRANCH  28  29
HETATM   29  C15 UNL     1      20.480   3.337  49.955  1.00  0.00     0.056 C 
BRANCH  29  30
HETATM   30  C16 UNL     1      21.778   3.964  49.667  1.00  0.00     0.226 C 
HETATM   31  C17 UNL     1      22.898   3.598  50.591  1.00  0.00     0.062 C 
HETATM   32  C18 UNL     1      22.463   3.874  52.017  1.00  0.00     0.172 C 
HETATM   33  O2  UNL     1      21.983   5.157  52.122  1.00  0.00    -0.363 OA
HETATM   34  C19 UNL     1      22.137   5.950  51.009  1.00  0.00     0.437 C 
HETATM   35  N5  UNL     1      21.601   5.406  49.795  1.00  0.00     0.111 N 
HETATM   36  H21 UNL     1      22.022   5.925  48.995  1.00  0.00     0.319 HD
ENDBRANCH  29  30
ENDBRANCH  28  29
ENDBRANCH  11  28
TORSDOF 7
ENDMDL
MODEL 8
REMARK VINA RESULT:      -8.4      1.460      2.498
REMARK  7 active torsions:
REMARK  status: ('A' for Active; 'I' for Inactive)
REMARK    1  A    between atoms: O1_2  and  C2_3 
REMARK    2  A    between atoms: C5_6  and  N1_7 
REMARK    3  A    between atoms: N1_7  and  C6_8 
REMARK    4  A    between atoms: N4_18  and  C14_19 
REMARK    5  A    between atoms: C14_19  and  C15_20 
REMARK    6  A    between atoms: C15_20  and  C16_21 
REMARK    7  A    between atoms: C23_32  and  O5_33 
ROOT
HETATM    1  C6  UNL     1      21.447   1.800  50.155  1.00  0.00     0.142 A 
HETATM    2  N2  UNL     1      20.230   2.227  49.735  1.00  0.00    -0.224 NA
HETATM    3  C7  UNL     1      19.136   2.061  50.533  1.00  0.00     0.236 A 
HETATM    4  N3  UNL     1      19.254   1.476  51.739  1.00  0.00    -0.241 NA
HETATM    5  C8  UNL     1      20.440   1.037  52.201  1.00  0.00     0.075 A 
HETATM    6  C9  UNL     1      20.539   0.439  53.441  1.00  0.00     0.071 A 
HETATM    7  C10 UNL     1      21.759  -0.004  53.900  1.00  0.00     0.098 A 
HETATM    8  C11 UNL     1      22.926   0.125  53.153  1.00  0.00     0.071 A 
HETATM    9  C12 UNL     1      22.750   0.728  51.928  1.00  0.00     0.050 A 
HETATM   10  C13 UNL     1      21.568   1.193  51.409  1.00  0.00     0.041 A 
HETATM   11  N4  UNL     1      24.220  -0.329  53.613  1.00  0.00    -0.314 N 
HETATM   12  C20 UNL     1      24.177  -0.925  54.914  1.00  0.00     0.248 C 
HETATM   13  O3  UNL     1      25.321  -0.980  55.467  1.00  0.00    -0.271 OA
HETATM   14  C21 UNL     1      22.916  -1.420  55.536  1.00  0.00     0.279 C 
HETATM   15  O4  UNL     1      21.817  -0.598  55.150  1.00  0.00    -0.340 OA
ENDROOT
BRANCH   1  16
HETATM   16  N1  UNL     1      22.692   1.883  49.478  1.00  0.00    -0.340 N 
HETATM   17  H6  UNL     1      23.288   1.134  49.092  1.00  0.00     0.167 HD
BRANCH  16  18
HETATM   18  C5  UNL     1      23.202   3.216  49.279  1.00  0.00     0.036 A 
HETATM   19  C4  UNL     1      22.402   4.256  48.796  1.00  0.00     0.032 A 
HETATM   20  C3  UNL     1      22.904   5.543  48.614  1.00  0.00     0.042 A 
HETATM   21  C2  UNL     1      24.210   5.807  48.913  1.00  0.00     0.101 A 
HETATM   22  C23 UNL     1      25.029   4.829  49.385  1.00  0.00     0.103 A 
HETATM   23  C22 UNL     1      24.517   3.566  49.559  1.00  0.00     0.069 A 
BRANCH  21  24
HETATM   24  O1  UNL     1      24.612   7.139  48.692  1.00  0.00    -0.353 OA
HETATM   25  C1  UNL     1      24.224   8.246  49.410  1.00  0.00     0.210 C 
ENDBRANCH  21  24
BRANCH  22  26
HETATM   26  O5  UNL     1      26.353   5.153  49.674  1.00  0.00    -0.353 OA
HETATM   27  C24 UNL     1      27.381   4.992  48.697  1.00  0.00     0.210 C 
ENDBRANCH  22  26
ENDBRANCH  16  18
ENDBRANCH   1  16
BRANCH  11  28
HETATM   28  C14 UNL     1      25.310  -0.132  52.712  1.00  0.00     0.134 C 
BRANCH  28  29
HETATM   29  C15 UNL     1      26.588  -0.796  53.046  1.00  0.00     0.056 C 
BRANCH  29  30
HETATM   30  C16 UNL     1      27.858  -0.190  52.623  1.00  0.00     0.226 C 
HETATM   31  C17 UNL     1      29.015  -0.386  53.554  1.00  0.00     0.062 C 
HETATM   32  C18 UNL     1      28.615   0.092  54.936  1.00  0.00     0.172 C 
HETATM   33  O2  UNL     1      28.102   1.364  54.864  1.00  0.00    -0.363 OA
HETATM   34  C19 UNL     1      28.201   1.983  53.640  1.00  0.00     0.437 C 
HETATM   35  N5  UNL     1      27.645   1.251  52.540  1.00  0.00     0.111 N 
HETATM   36  H21 UNL     1      28.027   1.653  51.658  1.00  0.00     0.319 HD
ENDBRANCH  29  30
ENDBRANCH  28  29
ENDBRANCH  11  28
TORSDOF 7
ENDMDL
MODEL 9
REMARK VINA RESULT:      -8.2      2.942      4.790
REMARK  7 active torsions:
REMARK  status: ('A' for Active; 'I' for Inactive)
REMARK    1  A    between atoms: O1_2  and  C2_3 
REMARK    2  A    between atoms: C5_6  and  N1_7 
REMARK    3  A    between atoms: N1_7  and  C6_8 
REMARK    4  A    between atoms: N4_18  and  C14_19 
REMARK    5  A    between atoms: C14_19  and  C15_20 
REMARK    6  A    between atoms: C15_20  and  C16_21 
REMARK    7  A    between atoms: C23_32  and  O5_33 
ROOT
HETATM    1  C6  UNL     1      26.287   6.733  48.562  1.00  0.00     0.142 A 
HETATM    2  N2  UNL     1      25.965   7.702  47.668  1.00  0.00    -0.224 NA
HETATM    3  C7  UNL     1      24.723   7.722  47.104  1.00  0.00     0.236 A 
HETATM    4  N3  UNL     1      23.812   6.786  47.427  1.00  0.00    -0.241 NA
HETATM    5  C8  UNL     1      24.083   5.806  48.310  1.00  0.00     0.075 A 
HETATM    6  C9  UNL     1      23.133   4.856  48.627  1.00  0.00     0.071 A 
HETATM    7  C10 UNL     1      23.426   3.861  49.532  1.00  0.00     0.098 A 
HETATM    8  C11 UNL     1      24.666   3.764  50.156  1.00  0.00     0.071 A 
HETATM    9  C12 UNL     1      25.562   4.743  49.789  1.00  0.00     0.050 A 
HETATM   10  C13 UNL     1      25.339   5.762  48.898  1.00  0.00     0.041 A 
HETATM   11  N4  UNL     1      24.998   2.731  51.111  1.00  0.00    -0.314 N 
HETATM   12  C20 UNL     1      23.922   1.818  51.349  1.00  0.00     0.248 C 
HETATM   13  O3  UNL     1      24.065   1.158  52.427  1.00  0.00    -0.271 OA
HETATM   14  C21 UNL     1      22.765   1.672  50.421  1.00  0.00     0.279 C 
HETATM   15  O4  UNL     1      22.446   2.926  49.824  1.00  0.00    -0.340 OA
ENDROOT
BRANCH   1  16
HETATM   16  N1  UNL     1      27.513   6.545  49.253  1.00  0.00    -0.340 N 
HETATM   17  H6  UNL     1      27.687   6.339  50.249  1.00  0.00     0.167 HD
BRANCH  16  18
HETATM   18  C5  UNL     1      28.702   6.637  48.444  1.00  0.00     0.036 A 
HETATM   19  C4  UNL     1      29.131   7.844  47.884  1.00  0.00     0.032 A 
HETATM   20  C3  UNL     1      30.285   7.923  47.109  1.00  0.00     0.042 A 
HETATM   21  C2  UNL     1      31.027   6.798  46.885  1.00  0.00     0.101 A 
HETATM   22  C23 UNL     1      30.651   5.599  47.407  1.00  0.00     0.103 A 
HETATM   23  C22 UNL     1      29.510   5.541  48.170  1.00  0.00     0.069 A 
BRANCH  21  24
HETATM   24  O1  UNL     1      32.173   6.990  46.089  1.00  0.00    -0.353 OA
HETATM   25  C1  UNL     1      32.223   7.044  44.715  1.00  0.00     0.210 C 
ENDBRANCH  21  24
BRANCH  22  26
HETATM   26  O5  UNL     1      31.443   4.483  47.147  1.00  0.00    -0.353 OA
HETATM   27  C24 UNL     1      32.546   4.150  47.990  1.00  0.00     0.210 C 
ENDBRANCH  22  26
ENDBRANCH  16  18
ENDBRANCH   1  16
BRANCH  11  28
HETATM   28  C14 UNL     1      26.322   2.771  51.644  1.00  0.00     0.134 C 
BRANCH  28  29
HETATM   29  C15 UNL     1      26.985   1.475  51.900  1.00  0.00     0.056 C 
BRANCH  29  30
HETATM   30  C16 UNL     1      27.723   1.267  53.154  1.00  0.00     0.226 C 
HETATM   31  C17 UNL     1      28.385  -0.067  53.306  1.00  0.00     0.062 C 
HETATM   32  C18 UNL     1      27.348  -1.153  53.095  1.00  0.00     0.172 C 
HETATM   33  O2  UNL     1      26.256  -0.922  53.896  1.00  0.00    -0.363 OA
HETATM   34  C19 UNL     1      26.384   0.103  54.805  1.00  0.00     0.437 C 
HETATM   35  N5  UNL     1      26.761   1.368  54.245  1.00  0.00     0.111 N 
HETATM   36  H21 UNL     1      27.109   1.973  55.020  1.00  0.00     0.319 HD
ENDBRANCH  29  30
ENDBRANCH  28  29
ENDBRANCH  11  28
TORSDOF 7
ENDMDL
