MODEL 1
REMARK VINA RESULT:      -7.8      0.000      0.000
REMARK  5 active torsions:
REMARK  status: ('A' for Active; 'I' for Inactive)
REMARK    1  A    between atoms: C2_2  and  P1_3 
REMARK    2  A    between atoms: P1_3  and  C3_4 
REMARK    3  A    between atoms: C7_10  and  N3_11 
REMARK    4  A    between atoms: N3_11  and  C8_12 
REMARK    5  A    between atoms: C12_16  and  O1_17 
ROOT
HETATM    1  C3  UNL     1      22.499   1.368  52.390  1.00  0.00     0.004 A 
HETATM    2  C4  UNL     1      23.667   1.327  53.136  1.00  0.00     0.047 A 
HETATM    3  C5  UNL     1      24.856   1.766  52.597  1.00  0.00     0.076 A 
HETATM    4  N1  UNL     1      26.007   1.740  53.292  1.00  0.00    -0.241 NA
HETATM    5  C6  UNL     1      27.172   2.162  52.786  1.00  0.00     0.236 A 
HETATM    6  N2  UNL     1      27.184   2.623  51.548  1.00  0.00    -0.223 NA
HETATM    7  C7  UNL     1      26.108   2.700  50.755  1.00  0.00     0.144 A 
HETATM    8  C15 UNL     1      24.935   2.257  51.315  1.00  0.00     0.075 A 
HETATM    9  C16 UNL     1      23.807   2.308  50.565  1.00  0.00     0.119 A 
HETATM   10  C17 UNL     1      22.622   1.867  51.109  1.00  0.00     0.114 A 
HETATM   11  O2  UNL     1      21.466   1.915  50.354  1.00  0.00    -0.345 OA
HETATM   12  C18 UNL     1      21.388   2.403  49.048  1.00  0.00     0.202 A 
HETATM   13  C19 UNL     1      22.664   2.870  48.454  1.00  0.00     0.202 A 
HETATM   14  O3  UNL     1      23.774   2.775  49.286  1.00  0.00    -0.345 OA
ENDROOT
BRANCH   7  15
HETATM   15  N3  UNL     1      26.273   3.220  49.447  1.00  0.00    -0.340 N 
HETATM   16  H9  UNL     1      26.280   2.909  48.462  1.00  0.00     0.167 HD
BRANCH  15  17
HETATM   17  C8  UNL     1      26.521   4.613  49.277  1.00  0.00     0.036 A 
HETATM   18  C9  UNL     1      27.624   5.044  48.539  1.00  0.00     0.029 A 
HETATM   19  C10 UNL     1      27.958   6.348  48.341  1.00  0.00     0.005 A 
HETATM   20  C11 UNL     1      27.166   7.356  48.901  1.00  0.00     0.037 A 
HETATM   21  C12 UNL     1      26.062   7.002  49.640  1.00  0.00     0.070 A 
HETATM   22  C14 UNL     1      25.771   5.672  49.809  1.00  0.00     0.066 A 
BRANCH  21  23
HETATM   23  O1  UNL     1      25.270   7.965  50.199  1.00  0.00    -0.356 OA
HETATM   24  C13 UNL     1      23.968   7.772  50.674  1.00  0.00     0.210 C 
ENDBRANCH  21  23
ENDBRANCH  15  17
ENDBRANCH   7  15
BRANCH   1  25
HETATM   25  P1  UNL     1      20.898   0.792  53.079  1.00  0.00    -0.092 P 
HETATM   26  H6  UNL     1      20.094   1.975  53.371  1.00  0.00     0.062 HD
BRANCH  25  27
HETATM   27  C2  UNL     1      21.125  -0.111  54.688  1.00  0.00     0.032 C 
HETATM   28  C1  UNL     1      21.644  -1.512  54.489  1.00  0.00     0.010 C 
ENDBRANCH  25  27
ENDBRANCH   1  25
TORSDOF 5
ENDMDL
MODEL 2
REMARK VINA RESULT:      -7.6      1.134      1.997
REMARK  5 active torsions:
REMARK  status: ('A' for Active; 'I' for Inactive)
REMARK    1  A    between atoms: C2_2  and  P1_3 
REMARK    2  A    between atoms: P1_3  and  C3_4 
REMARK    3  A    between atoms: C7_10  and  N3_11 
REMARK    4  A    between atoms: N3_11  and  C8_12 
REMARK    5  A    between atoms: C12_16  and  O1_17 
ROOT
HETATM    1  C3  UNL     1      22.545   1.428  52.430  1.00  0.00     0.004 A 
HETATM    2  C4  UNL     1      23.726   1.406  53.157  1.00  0.00     0.047 A 
HETATM    3  C5  UNL     1      24.907   1.824  52.584  1.00  0.00     0.076 A 
HETATM    4  N1  UNL     1      26.070   1.816  53.260  1.00  0.00    -0.241 NA
HETATM    5  C6  UNL     1      27.227   2.217  52.722  1.00  0.00     0.236 A 
HETATM    6  N2  UNL     1      27.220   2.640  51.470  1.00  0.00    -0.223 NA
HETATM    7  C7  UNL     1      26.130   2.696  50.693  1.00  0.00     0.144 A 
HETATM    8  C15 UNL     1      24.966   2.274  51.286  1.00  0.00     0.075 A 
HETATM    9  C16 UNL     1      23.825   2.306  50.554  1.00  0.00     0.119 A 
HETATM   10  C17 UNL     1      22.648   1.887  51.132  1.00  0.00     0.114 A 
HETATM   11  O2  UNL     1      21.480   1.915  50.395  1.00  0.00    -0.345 OA
HETATM   12  C18 UNL     1      21.382   2.363  49.075  1.00  0.00     0.202 A 
HETATM   13  C19 UNL     1      22.649   2.805  48.446  1.00  0.00     0.202 A 
HETATM   14  O3  UNL     1      23.773   2.733  49.262  1.00  0.00    -0.345 OA
ENDROOT
BRANCH   7  15
HETATM   15  N3  UNL     1      26.275   3.174  49.366  1.00  0.00    -0.340 N 
HETATM   16  H9  UNL     1      26.174   2.854  48.390  1.00  0.00     0.167 HD
BRANCH  15  17
HETATM   17  C8  UNL     1      26.695   4.519  49.153  1.00  0.00     0.036 A 
HETATM   18  C9  UNL     1      25.880   5.579  49.550  1.00  0.00     0.029 A 
HETATM   19  C10 UNL     1      26.180   6.894  49.369  1.00  0.00     0.005 A 
HETATM   20  C11 UNL     1      27.381   7.247  48.744  1.00  0.00     0.037 A 
HETATM   21  C12 UNL     1      28.233   6.251  48.328  1.00  0.00     0.070 A 
HETATM   22  C14 UNL     1      27.881   4.942  48.536  1.00  0.00     0.066 A 
BRANCH  21  23
HETATM   23  O1  UNL     1      29.413   6.566  47.714  1.00  0.00    -0.356 OA
HETATM   24  C13 UNL     1      30.621   5.877  47.871  1.00  0.00     0.210 C 
ENDBRANCH  21  23
ENDBRANCH  15  17
ENDBRANCH   7  15
BRANCH   1  25
HETATM   25  P1  UNL     1      20.955   0.879  53.162  1.00  0.00    -0.092 P 
HETATM   26  H6  UNL     1      20.213   2.077  53.548  1.00  0.00     0.062 HD
BRANCH  25  27
HETATM   27  C2  UNL     1      21.216  -0.111  54.715  1.00  0.00     0.032 C 
HETATM   28  C1  UNL     1      21.526  -1.557  54.424  1.00  0.00     0.010 C 
ENDBRANCH  25  27
ENDBRANCH   1  25
TORSDOF 5
ENDMDL
MODEL 3
REMARK VINA RESULT:      -7.4      3.399      6.502
REMARK  5 active torsions:
REMARK  status: ('A' for Active; 'I' for Inactive)
REMARK    1  A    between atoms: C2_2  and  P1_3 
REMARK    2  A    between atoms: P1_3  and  C3_4 
REMARK    3  A    between atoms: C7_10  and  N3_11 
REMARK    4  A    between atoms: N3_11  and  C8_12 
REMARK    5  A    between atoms: C12_16  and  O1_17 
ROOT
HETATM    1  C3  UNL     1      26.513   1.218  53.036  1.00  0.00     0.004 A 
HETATM    2  C4  UNL     1      25.695   0.347  53.740  1.00  0.00     0.047 A 
HETATM    3  C5  UNL     1      24.365   0.213  53.407  1.00  0.00     0.076 A 
HETATM    4  N1  UNL     1      23.544  -0.622  54.068  1.00  0.00    -0.241 NA
HETATM    5  C6  UNL     1      22.250  -0.766  53.760  1.00  0.00     0.236 A 
HETATM    6  N2  UNL     1      21.764  -0.054  52.759  1.00  0.00    -0.223 NA
HETATM    7  C7  UNL     1      22.477   0.810  52.025  1.00  0.00     0.144 A 
HETATM    8  C15 UNL     1      23.799   0.926  52.376  1.00  0.00     0.075 A 
HETATM    9  C16 UNL     1      24.578   1.784  51.672  1.00  0.00     0.119 A 
HETATM   10  C17 UNL     1      25.906   1.914  52.010  1.00  0.00     0.114 A 
HETATM   11  O2  UNL     1      26.708   2.785  51.300  1.00  0.00    -0.345 OA
HETATM   12  C18 UNL     1      26.279   3.560  50.219  1.00  0.00     0.202 A 
HETATM   13  C19 UNL     1      24.847   3.431  49.857  1.00  0.00     0.202 A 
HETATM   14  O3  UNL     1      24.118   2.538  50.635  1.00  0.00    -0.345 OA
ENDROOT
BRANCH   7  15
HETATM   15  N3  UNL     1      21.820   1.505  50.979  1.00  0.00    -0.340 N 
HETATM   16  H9  UNL     1      22.031   2.018  50.107  1.00  0.00     0.167 HD
BRANCH  15  17
HETATM   17  C8  UNL     1      20.399   1.621  51.005  1.00  0.00     0.036 A 
HETATM   18  C9  UNL     1      19.605   0.632  50.424  1.00  0.00     0.029 A 
HETATM   19  C10 UNL     1      18.245   0.662  50.376  1.00  0.00     0.005 A 
HETATM   20  C11 UNL     1      17.560   1.745  50.937  1.00  0.00     0.037 A 
HETATM   21  C12 UNL     1      18.281   2.756  51.528  1.00  0.00     0.070 A 
HETATM   22  C14 UNL     1      19.651   2.674  51.548  1.00  0.00     0.066 A 
BRANCH  21  23
HETATM   23  O1  UNL     1      17.639   3.826  52.085  1.00  0.00    -0.356 OA
HETATM   24  C13 UNL     1      16.289   4.148  51.905  1.00  0.00     0.210 C 
ENDBRANCH  21  23
ENDBRANCH  15  17
ENDBRANCH   7  15
BRANCH   1  25
HETATM   25  P1  UNL     1      28.287   1.420  53.455  1.00  0.00    -0.092 P 
HETATM   26  H6  UNL     1      29.039   1.399  52.202  1.00  0.00     0.062 HD
BRANCH  25  27
HETATM   27  C2  UNL     1      28.920   0.004  54.481  1.00  0.00     0.032 C 
HETATM   28  C1  UNL     1      29.846  -0.896  53.703  1.00  0.00     0.010 C 
ENDBRANCH  25  27
ENDBRANCH   1  25
TORSDOF 5
ENDMDL
MODEL 4
REMARK VINA RESULT:      -7.4      3.690      6.549
REMARK  5 active torsions:
REMARK  status: ('A' for Active; 'I' for Inactive)
REMARK    1  A    between atoms: C2_2  and  P1_3 
REMARK    2  A    between atoms: P1_3  and  C3_4 
REMARK    3  A    between atoms: C7_10  and  N3_11 
REMARK    4  A    between atoms: N3_11  and  C8_12 
REMARK    5  A    between atoms: C12_16  and  O1_17 
ROOT
HETATM    1  C3  UNL     1      27.129   0.809  53.670  1.00  0.00     0.004 A 
HETATM    2  C4  UNL     1      27.062   1.665  52.581  1.00  0.00     0.047 A 
HETATM    3  C5  UNL     1      25.862   1.890  51.942  1.00  0.00     0.076 A 
HETATM    4  N1  UNL     1      25.761   2.714  50.884  1.00  0.00    -0.241 NA
HETATM    5  C6  UNL     1      24.606   2.946  50.250  1.00  0.00     0.236 A 
HETATM    6  N2  UNL     1      23.520   2.336  50.689  1.00  0.00    -0.223 NA
HETATM    7  C7  UNL     1      23.490   1.495  51.731  1.00  0.00     0.144 A 
HETATM    8  C15 UNL     1      24.697   1.286  52.350  1.00  0.00     0.075 A 
HETATM    9  C16 UNL     1      24.736   0.444  53.413  1.00  0.00     0.119 A 
HETATM   10  C17 UNL     1      25.937   0.223  54.047  1.00  0.00     0.114 A 
HETATM   11  O2  UNL     1      25.989  -0.633  55.130  1.00  0.00    -0.345 OA
HETATM   12  C18 UNL     1      24.887  -1.302  55.669  1.00  0.00     0.202 A 
HETATM   13  C19 UNL     1      23.592  -1.074  54.983  1.00  0.00     0.202 A 
HETATM   14  O3  UNL     1      23.641  -0.205  53.898  1.00  0.00    -0.345 OA
ENDROOT
BRANCH   7  15
HETATM   15  N3  UNL     1      22.247   0.914  52.090  1.00  0.00    -0.340 N 
HETATM   16  H9  UNL     1      21.860   0.176  52.700  1.00  0.00     0.167 HD
BRANCH  15  17
HETATM   17  C8  UNL     1      21.051   1.402  51.488  1.00  0.00     0.036 A 
HETATM   18  C9  UNL     1      20.664   0.948  50.227  1.00  0.00     0.029 A 
HETATM   19  C10 UNL     1      19.556   1.370  49.560  1.00  0.00     0.005 A 
HETATM   20  C11 UNL     1      18.721   2.327  50.147  1.00  0.00     0.037 A 
HETATM   21  C12 UNL     1      19.042   2.817  51.391  1.00  0.00     0.070 A 
HETATM   22  C14 UNL     1      20.172   2.356  52.019  1.00  0.00     0.066 A 
BRANCH  21  23
HETATM   23  O1  UNL     1      18.245   3.752  51.990  1.00  0.00    -0.356 OA
HETATM   24  C13 UNL     1      16.886   3.954  51.723  1.00  0.00     0.210 C 
ENDBRANCH  21  23
ENDBRANCH  15  17
ENDBRANCH   7  15
BRANCH   1  25
HETATM   25  P1  UNL     1      28.710   0.486  54.543  1.00  0.00    -0.092 P 
HETATM   26  H6  UNL     1      29.409   1.763  54.671  1.00  0.00     0.062 HD
BRANCH  25  27
HETATM   27  C2  UNL     1      29.823  -0.635  53.562  1.00  0.00     0.032 C 
HETATM   28  C1  UNL     1      29.173  -1.961  53.257  1.00  0.00     0.010 C 
ENDBRANCH  25  27
ENDBRANCH   1  25
TORSDOF 5
ENDMDL
MODEL 5
REMARK VINA RESULT:      -7.1      3.172      6.833
REMARK  5 active torsions:
REMARK  status: ('A' for Active; 'I' for Inactive)
REMARK    1  A    between atoms: C2_2  and  P1_3 
REMARK    2  A    between atoms: P1_3  and  C3_4 
REMARK    3  A    between atoms: C7_10  and  N3_11 
REMARK    4  A    between atoms: N3_11  and  C8_12 
REMARK    5  A    between atoms: C12_16  and  O1_17 
ROOT
HETATM    1  C3  UNL     1      24.544   6.852  50.135  1.00  0.00     0.004 A 
HETATM    2  C4  UNL     1      23.362   6.703  50.844  1.00  0.00     0.047 A 
HETATM    3  C5  UNL     1      22.959   5.459  51.275  1.00  0.00     0.076 A 
HETATM    4  N1  UNL     1      21.819   5.278  51.966  1.00  0.00    -0.241 NA
HETATM    5  C6  UNL     1      21.409   4.079  52.393  1.00  0.00     0.236 A 
HETATM    6  N2  UNL     1      22.164   3.029  52.122  1.00  0.00    -0.223 NA
HETATM    7  C7  UNL     1      23.318   3.077  51.445  1.00  0.00     0.144 A 
HETATM    8  C15 UNL     1      23.699   4.327  51.025  1.00  0.00     0.075 A 
HETATM    9  C16 UNL     1      24.859   4.447  50.333  1.00  0.00     0.119 A 
HETATM   10  C17 UNL     1      25.257   5.693  49.905  1.00  0.00     0.114 A 
HETATM   11  O2  UNL     1      26.437   5.826  49.199  1.00  0.00    -0.345 OA
HETATM   12  C18 UNL     1      27.300   4.773  48.887  1.00  0.00     0.202 A 
HETATM   13  C19 UNL     1      26.871   3.427  49.338  1.00  0.00     0.202 A 
HETATM   14  O3  UNL     1      25.666   3.392  50.032  1.00  0.00    -0.345 OA
ENDROOT
BRANCH   7  15
HETATM   15  N3  UNL     1      24.022   1.866  51.230  1.00  0.00    -0.340 N 
HETATM   16  H9  UNL     1      24.241   1.196  50.475  1.00  0.00     0.167 HD
BRANCH  15  17
HETATM   17  C8  UNL     1      24.697   1.249  52.324  1.00  0.00     0.036 A 
HETATM   18  C9  UNL     1      24.149   0.124  52.941  1.00  0.00     0.029 A 
HETATM   19  C10 UNL     1      24.702  -0.520  54.004  1.00  0.00     0.005 A 
HETATM   20  C11 UNL     1      25.904  -0.051  54.545  1.00  0.00     0.037 A 
HETATM   21  C12 UNL     1      26.501   1.054  53.984  1.00  0.00     0.070 A 
HETATM   22  C14 UNL     1      25.899   1.665  52.912  1.00  0.00     0.066 A 
BRANCH  21  23
HETATM   23  O1  UNL     1      27.675   1.534  54.490  1.00  0.00    -0.356 OA
HETATM   24  C13 UNL     1      28.727   2.069  53.739  1.00  0.00     0.210 C 
ENDBRANCH  21  23
ENDBRANCH  15  17
ENDBRANCH   7  15
BRANCH   1  25
HETATM   25  P1  UNL     1      25.111   8.495  49.546  1.00  0.00    -0.092 P 
HETATM   26  H6  UNL     1      25.389   8.377  48.117  1.00  0.00     0.062 HD
BRANCH  25  27
HETATM   27  C2  UNL     1      26.702   9.009  50.359  1.00  0.00     0.032 C 
HETATM   28  C1  UNL     1      27.836   9.124  49.372  1.00  0.00     0.010 C 
ENDBRANCH  25  27
ENDBRANCH   1  25
TORSDOF 5
ENDMDL
MODEL 6
REMARK VINA RESULT:      -7.1      3.835      7.049
REMARK  5 active torsions:
REMARK  status: ('A' for Active; 'I' for Inactive)
REMARK    1  A    between atoms: C2_2  and  P1_3 
REMARK    2  A    between atoms: P1_3  and  C3_4 
REMARK    3  A    between atoms: C7_10  and  N3_11 
REMARK    4  A    between atoms: N3_11  and  C8_12 
REMARK    5  A    between atoms: C12_16  and  O1_17 
ROOT
HETATM    1  C3  UNL     1      25.169   0.301  52.782  1.00  0.00     0.004 A 
HETATM    2  C4  UNL     1      25.177   1.316  51.837  1.00  0.00     0.047 A 
HETATM    3  C5  UNL     1      24.036   2.046  51.585  1.00  0.00     0.076 A 
HETATM    4  N1  UNL     1      24.009   3.037  50.677  1.00  0.00    -0.241 NA
HETATM    5  C6  UNL     1      22.912   3.757  50.417  1.00  0.00     0.236 A 
HETATM    6  N2  UNL     1      21.809   3.477  51.088  1.00  0.00    -0.223 NA
HETATM    7  C7  UNL     1      21.708   2.517  52.017  1.00  0.00     0.144 A 
HETATM    8  C15 UNL     1      22.857   1.803  52.250  1.00  0.00     0.075 A 
HETATM    9  C16 UNL     1      22.823   0.816  53.178  1.00  0.00     0.119 A 
HETATM   10  C17 UNL     1      23.966   0.090  53.426  1.00  0.00     0.114 A 
HETATM   11  O2  UNL     1      23.942  -0.918  54.370  1.00  0.00    -0.345 OA
HETATM   12  C18 UNL     1      22.826  -1.266  55.135  1.00  0.00     0.202 A 
HETATM   13  C19 UNL     1      21.590  -0.493  54.865  1.00  0.00     0.202 A 
HETATM   14  O3  UNL     1      21.708   0.494  53.892  1.00  0.00    -0.345 OA
ENDROOT
BRANCH   7  15
HETATM   15  N3  UNL     1      20.457   2.331  52.657  1.00  0.00    -0.340 N 
HETATM   16  H9  UNL     1      20.025   2.391  53.594  1.00  0.00     0.167 HD
BRANCH  15  17
HETATM   17  C8  UNL     1      19.332   1.923  51.883  1.00  0.00     0.036 A 
HETATM   18  C9  UNL     1      19.299   0.651  51.311  1.00  0.00     0.029 A 
HETATM   19  C10 UNL     1      18.284   0.178  50.538  1.00  0.00     0.005 A 
HETATM   20  C11 UNL     1      17.179   0.995  50.274  1.00  0.00     0.037 A 
HETATM   21  C12 UNL     1      17.146   2.262  50.808  1.00  0.00     0.070 A 
HETATM   22  C14 UNL     1      18.196   2.688  51.581  1.00  0.00     0.066 A 
BRANCH  21  23
HETATM   23  O1  UNL     1      16.080   3.083  50.568  1.00  0.00    -0.356 OA
HETATM   24  C13 UNL     1      15.789   4.263  51.262  1.00  0.00     0.210 C 
ENDBRANCH  21  23
ENDBRANCH  15  17
ENDBRANCH   7  15
BRANCH   1  25
HETATM   25  P1  UNL     1      26.671  -0.690  53.141  1.00  0.00    -0.092 P 
HETATM   26  H6  UNL     1      26.434  -1.408  54.391  1.00  0.00     0.062 HD
BRANCH  25  27
HETATM   27  C2  UNL     1      28.159   0.389  53.420  1.00  0.00     0.032 C 
HETATM   28  C1  UNL     1      29.408  -0.415  53.675  1.00  0.00     0.010 C 
ENDBRANCH  25  27
ENDBRANCH   1  25
TORSDOF 5
ENDMDL
MODEL 7
REMARK VINA RESULT:      -7.0      2.802      5.168
REMARK  5 active torsions:
REMARK  status: ('A' for Active; 'I' for Inactive)
REMARK    1  A    between atoms: C2_2  and  P1_3 
REMARK    2  A    between atoms: P1_3  and  C3_4 
REMARK    3  A    between atoms: C7_10  and  N3_11 
REMARK    4  A    between atoms: N3_11  and  C8_12 
REMARK    5  A    between atoms: C12_16  and  O1_17 
ROOT
HETATM    1  C3  UNL     1      26.432   1.016  53.134  1.00  0.00     0.004 A 
HETATM    2  C4  UNL     1      27.076   1.927  52.309  1.00  0.00     0.047 A 
HETATM    3  C5  UNL     1      26.390   2.556  51.294  1.00  0.00     0.076 A 
HETATM    4  N1  UNL     1      26.983   3.444  50.476  1.00  0.00    -0.241 NA
HETATM    5  C6  UNL     1      26.335   4.066  49.485  1.00  0.00     0.236 A 
HETATM    6  N2  UNL     1      25.055   3.792  49.308  1.00  0.00    -0.223 NA
HETATM    7  C7  UNL     1      24.353   2.929  50.053  1.00  0.00     0.144 A 
HETATM    8  C15 UNL     1      25.057   2.314  51.057  1.00  0.00     0.075 A 
HETATM    9  C16 UNL     1      24.405   1.428  51.851  1.00  0.00     0.119 A 
HETATM   10  C17 UNL     1      25.096   0.802  52.863  1.00  0.00     0.114 A 
HETATM   11  O2  UNL     1      24.441  -0.103  53.677  1.00  0.00    -0.345 OA
HETATM   12  C18 UNL     1      23.089  -0.435  53.569  1.00  0.00     0.202 A 
HETATM   13  C19 UNL     1      22.343   0.230  52.474  1.00  0.00     0.202 A 
HETATM   14  O3  UNL     1      23.088   1.116  51.703  1.00  0.00    -0.345 OA
ENDROOT
BRANCH   7  15
HETATM   15  N3  UNL     1      22.982   2.736  49.746  1.00  0.00    -0.340 N 
HETATM   16  H9  UNL     1      22.179   2.148  50.023  1.00  0.00     0.167 HD
BRANCH  15  17
HETATM   17  C8  UNL     1      22.373   3.544  48.742  1.00  0.00     0.036 A 
HETATM   18  C9  UNL     1      21.868   4.803  49.067  1.00  0.00     0.029 A 
HETATM   19  C10 UNL     1      21.249   5.637  48.187  1.00  0.00     0.005 A 
HETATM   20  C11 UNL     1      21.089   5.239  46.856  1.00  0.00     0.037 A 
HETATM   21  C12 UNL     1      21.565   4.009  46.466  1.00  0.00     0.070 A 
HETATM   22  C14 UNL     1      22.181   3.208  47.394  1.00  0.00     0.066 A 
BRANCH  21  23
HETATM   23  O1  UNL     1      21.423   3.594  45.172  1.00  0.00    -0.356 OA
HETATM   24  C13 UNL     1      20.945   4.376  44.115  1.00  0.00     0.210 C 
ENDBRANCH  21  23
ENDBRANCH  15  17
ENDBRANCH   7  15
BRANCH   1  25
HETATM   25  P1  UNL     1      27.317   0.160  54.495  1.00  0.00    -0.092 P 
HETATM   26  H6  UNL     1      26.881   0.766  55.750  1.00  0.00     0.062 HD
BRANCH  25  27
HETATM   27  C2  UNL     1      29.156   0.413  54.389  1.00  0.00     0.032 C 
HETATM   28  C1  UNL     1      29.831  -0.644  53.553  1.00  0.00     0.010 C 
ENDBRANCH  25  27
ENDBRANCH   1  25
TORSDOF 5
ENDMDL
MODEL 8
REMARK VINA RESULT:      -7.0      3.715      7.385
REMARK  5 active torsions:
REMARK  status: ('A' for Active; 'I' for Inactive)
REMARK    1  A    between atoms: C2_2  and  P1_3 
REMARK    2  A    between atoms: P1_3  and  C3_4 
REMARK    3  A    between atoms: C7_10  and  N3_11 
REMARK    4  A    between atoms: N3_11  and  C8_12 
REMARK    5  A    between atoms: C12_16  and  O1_17 
ROOT
HETATM    1  C3  UNL     1      25.469   0.783  53.045  1.00  0.00     0.004 A 
HETATM    2  C4  UNL     1      24.919  -0.283  53.740  1.00  0.00     0.047 A 
HETATM    3  C5  UNL     1      23.555  -0.379  53.906  1.00  0.00     0.076 A 
HETATM    4  N1  UNL     1      22.988  -1.400  54.574  1.00  0.00    -0.241 NA
HETATM    5  C6  UNL     1      21.666  -1.512  54.746  1.00  0.00     0.236 A 
HETATM    6  N2  UNL     1      20.889  -0.574  54.234  1.00  0.00    -0.223 NA
HETATM    7  C7  UNL     1      21.330   0.489  53.549  1.00  0.00     0.144 A 
HETATM    8  C15 UNL     1      22.692   0.563  53.398  1.00  0.00     0.075 A 
HETATM    9  C16 UNL     1      23.206   1.615  52.714  1.00  0.00     0.119 A 
HETATM   10  C17 UNL     1      24.570   1.707  52.551  1.00  0.00     0.114 A 
HETATM   11  O2  UNL     1      25.103   2.775  51.856  1.00  0.00    -0.345 OA
HETATM   12  C18 UNL     1      24.353   3.796  51.269  1.00  0.00     0.202 A 
HETATM   13  C19 UNL     1      22.884   3.707  51.449  1.00  0.00     0.202 A 
HETATM   14  O3  UNL     1      22.442   2.603  52.170  1.00  0.00    -0.345 OA
ENDROOT
BRANCH   7  15
HETATM   15  N3  UNL     1      20.376   1.414  53.056  1.00  0.00    -0.340 N 
HETATM   16  H9  UNL     1      20.091   2.400  53.170  1.00  0.00     0.167 HD
BRANCH  15  17
HETATM   17  C8  UNL     1      19.430   0.985  52.080  1.00  0.00     0.036 A 
HETATM   18  C9  UNL     1      19.552   1.404  50.755  1.00  0.00     0.029 A 
HETATM   19  C10 UNL     1      18.689   1.070  49.757  1.00  0.00     0.005 A 
HETATM   20  C11 UNL     1      17.590   0.252  50.041  1.00  0.00     0.037 A 
HETATM   21  C12 UNL     1      17.410  -0.198  51.328  1.00  0.00     0.070 A 
HETATM   22  C14 UNL     1      18.311   0.170  52.296  1.00  0.00     0.066 A 
BRANCH  21  23
HETATM   23  O1  UNL     1      16.346  -0.998  51.636  1.00  0.00    -0.356 OA
HETATM   24  C13 UNL     1      16.348  -2.027  52.585  1.00  0.00     0.210 C 
ENDBRANCH  21  23
ENDBRANCH  15  17
ENDBRANCH   7  15
BRANCH   1  25
HETATM   25  P1  UNL     1      27.282   0.942  52.806  1.00  0.00    -0.092 P 
HETATM   26  H6  UNL     1      27.627   0.223  51.582  1.00  0.00     0.062 HD
BRANCH  25  27
HETATM   27  C2  UNL     1      28.233   0.136  54.185  1.00  0.00     0.032 C 
HETATM   28  C1  UNL     1      29.399  -0.674  53.678  1.00  0.00     0.010 C 
ENDBRANCH  25  27
ENDBRANCH   1  25
TORSDOF 5
ENDMDL
MODEL 9
REMARK VINA RESULT:      -6.9      4.006      7.677
REMARK  5 active torsions:
REMARK  status: ('A' for Active; 'I' for Inactive)
REMARK    1  A    between atoms: C2_2  and  P1_3 
REMARK    2  A    between atoms: P1_3  and  C3_4 
REMARK    3  A    between atoms: C7_10  and  N3_11 
REMARK    4  A    between atoms: N3_11  and  C8_12 
REMARK    5  A    between atoms: C12_16  and  O1_17 
ROOT
HETATM    1  C3  UNL     1      25.327   0.523  52.617  1.00  0.00     0.004 A 
HETATM    2  C4  UNL     1      25.122   1.485  51.639  1.00  0.00     0.047 A 
HETATM    3  C5  UNL     1      23.872   2.031  51.448  1.00  0.00     0.076 A 
HETATM    4  N1  UNL     1      23.637   2.966  50.510  1.00  0.00    -0.241 NA
HETATM    5  C6  UNL     1      22.431   3.508  50.309  1.00  0.00     0.236 A 
HETATM    6  N2  UNL     1      21.430   3.103  51.070  1.00  0.00    -0.223 NA
HETATM    7  C7  UNL     1      21.535   2.182  52.036  1.00  0.00     0.144 A 
HETATM    8  C15 UNL     1      22.789   1.652  52.207  1.00  0.00     0.075 A 
HETATM    9  C16 UNL     1      22.964   0.713  53.169  1.00  0.00     0.119 A 
HETATM   10  C17 UNL     1      24.216   0.171  53.356  1.00  0.00     0.114 A 
HETATM   11  O2  UNL     1      24.405  -0.786  54.333  1.00  0.00    -0.345 OA
HETATM   12  C18 UNL     1      23.407  -1.256  55.191  1.00  0.00     0.202 A 
HETATM   13  C19 UNL     1      22.056  -0.682  54.988  1.00  0.00     0.202 A 
HETATM   14  O3  UNL     1      21.961   0.267  53.975  1.00  0.00    -0.345 OA
ENDROOT
BRANCH   7  15
HETATM   15  N3  UNL     1      20.372   1.847  52.774  1.00  0.00    -0.340 N 
HETATM   16  H9  UNL     1      19.943   2.008  53.700  1.00  0.00     0.167 HD
BRANCH  15  17
HETATM   17  C8  UNL     1      19.379   1.019  52.173  1.00  0.00     0.036 A 
HETATM   18  C9  UNL     1      19.017   1.215  50.840  1.00  0.00     0.029 A 
HETATM   19  C10 UNL     1      18.066   0.495  50.184  1.00  0.00     0.005 A 
HETATM   20  C11 UNL     1      17.382  -0.521  50.861  1.00  0.00     0.037 A 
HETATM   21  C12 UNL     1      17.691  -0.769  52.178  1.00  0.00     0.070 A 
HETATM   22  C14 UNL     1      18.658  -0.012  52.790  1.00  0.00     0.066 A 
BRANCH  21  23
HETATM   23  O1  UNL     1      17.039  -1.754  52.864  1.00  0.00    -0.356 OA
HETATM   24  C13 UNL     1      17.649  -2.836  53.510  1.00  0.00     0.210 C 
ENDBRANCH  21  23
ENDBRANCH  15  17
ENDBRANCH   7  15
BRANCH   1  25
HETATM   25  P1  UNL     1      26.979  -0.224  52.897  1.00  0.00    -0.092 P 
HETATM   26  H6  UNL     1      26.772  -1.518  53.543  1.00  0.00     0.062 HD
BRANCH  25  27
HETATM   27  C2  UNL     1      28.009   0.795  54.063  1.00  0.00     0.032 C 
HETATM   28  C1  UNL     1      28.267   2.182  53.532  1.00  0.00     0.010 C 
ENDBRANCH  25  27
ENDBRANCH   1  25
TORSDOF 5
ENDMDL
