MODEL 1
REMARK VINA RESULT:      -7.1      0.000      0.000
REMARK  8 active torsions:
REMARK  status: ('A' for Active; 'I' for Inactive)
REMARK    1  A    between atoms: O1_2  and  C2_3 
REMARK       I    between atoms: C2_3  and  N1_5 
REMARK    2  A    between atoms: N1_5  and  C3_6 
REMARK    3  A    between atoms: C6_9  and  O3_10 
REMARK    4  A    between atoms: O3_10  and  C7_11 
REMARK    5  A    between atoms: C7_11  and  C8_12 
REMARK    6  A    between atoms: C12_16  and  O4_17 
REMARK    7  A    between atoms: C15_20  and  C16_21 
REMARK    8  A    between atoms: C16_21  and  N2_22 
ROOT
HETATM    1  C8  UNL     1      25.727   5.528  49.399  1.00  0.00    -0.025 A 
HETATM    2  C9  UNL     1      26.953   5.333  48.750  1.00  0.00     0.019 A 
HETATM    3  C10 UNL     1      27.922   6.278  48.531  1.00  0.00    -0.028 A 
HETATM    4  C11 UNL     1      29.173   5.877  47.816  1.00  0.00     0.051 C 
HETATM    5  C12 UNL     1      27.680   7.538  48.987  1.00  0.00     0.074 A 
HETATM    6  C14 UNL     1      26.492   7.806  49.637  1.00  0.00     0.046 A 
HETATM    7  C15 UNL     1      25.541   6.821  49.836  1.00  0.00    -0.019 A 
ENDROOT
BRANCH   1   8
HETATM    8  C7  UNL     1      24.798   4.386  49.540  1.00  0.00     0.214 C 
BRANCH   8   9
HETATM    9  O3  UNL     1      24.634   3.980  50.896  1.00  0.00    -0.351 OA
BRANCH   9  10
HETATM   10  C6  UNL     1      25.304   2.849  51.404  1.00  0.00     0.052 A 
HETATM   11  C5  UNL     1      24.371   1.966  51.790  1.00  0.00     0.034 A 
HETATM   12  C4  UNL     1      25.071   0.776  52.325  1.00  0.00     0.028 A 
HETATM   13  C3  UNL     1      26.381   0.983  52.243  1.00  0.00     0.020 A 
HETATM   14  C17 UNL     1      26.646   2.316  51.650  1.00  0.00     0.121 A 
BRANCH  13  15
HETATM   15  N1  UNL     1      27.424   0.074  52.656  1.00  0.00    -0.306 N 
HETATM   16  C2  UNL     1      27.831   0.178  54.019  1.00  0.00     0.364 C 
HETATM   17  O2  UNL     1      27.353   0.982  54.840  1.00  0.00    -0.238 OA
HETATM   18  H4  UNL     1      27.890  -0.645  52.026  1.00  0.00     0.171 HD
BRANCH  16  19
HETATM   19  O1  UNL     1      28.816  -0.661  54.462  1.00  0.00    -0.309 OA
HETATM   20  C1  UNL     1      29.957  -1.020  53.737  1.00  0.00     0.215 C 
ENDBRANCH  16  19
ENDBRANCH  13  15
ENDBRANCH   9  10
ENDBRANCH   8   9
ENDBRANCH   1   8
BRANCH   7  21
HETATM   21  C16 UNL     1      24.243   7.086  50.542  1.00  0.00     0.306 C 
BRANCH  21  22
HETATM   22  N2  UNL     1      24.343   6.954  51.966  1.00  0.00     0.082 N 
HETATM   23  H19 UNL     1      23.478   7.219  52.485  1.00  0.00     0.313 HD
HETATM   24  H20 UNL     1      25.224   7.363  52.344  1.00  0.00     0.313 HD
ENDBRANCH  21  22
ENDBRANCH   7  21
BRANCH   5  25
HETATM   25  O4  UNL     1      28.655   8.509  48.772  1.00  0.00    -0.355 OA
HETATM   26  C13 UNL     1      28.361   9.765  48.190  1.00  0.00     0.210 C 
ENDBRANCH   5  25
TORSDOF 8
ENDMDL
MODEL 2
REMARK VINA RESULT:      -7.0      1.828      2.510
REMARK  8 active torsions:
REMARK  status: ('A' for Active; 'I' for Inactive)
REMARK    1  A    between atoms: O1_2  and  C2_3 
REMARK       I    between atoms: C2_3  and  N1_5 
REMARK    2  A    between atoms: N1_5  and  C3_6 
REMARK    3  A    between atoms: C6_9  and  O3_10 
REMARK    4  A    between atoms: O3_10  and  C7_11 
REMARK    5  A    between atoms: C7_11  and  C8_12 
REMARK    6  A    between atoms: C12_16  and  O4_17 
REMARK    7  A    between atoms: C15_20  and  C16_21 
REMARK    8  A    between atoms: C16_21  and  N2_22 
ROOT
HETATM    1  C8  UNL     1      23.768   3.565  50.077  1.00  0.00    -0.025 A 
HETATM    2  C9  UNL     1      25.073   3.548  49.568  1.00  0.00     0.019 A 
HETATM    3  C10 UNL     1      25.923   4.619  49.461  1.00  0.00    -0.028 A 
HETATM    4  C11 UNL     1      27.288   4.402  48.889  1.00  0.00     0.051 C 
HETATM    5  C12 UNL     1      25.463   5.827  49.889  1.00  0.00     0.074 A 
HETATM    6  C14 UNL     1      24.186   5.921  50.403  1.00  0.00     0.046 A 
HETATM    7  C15 UNL     1      23.361   4.814  50.493  1.00  0.00    -0.019 A 
ENDROOT
BRANCH   1   8
HETATM    8  C7  UNL     1      22.993   2.307  50.111  1.00  0.00     0.214 C 
BRANCH   8   9
HETATM    9  O3  UNL     1      22.760   1.845  51.439  1.00  0.00    -0.351 OA
BRANCH   9  10
HETATM   10  C6  UNL     1      23.720   1.070  52.120  1.00  0.00     0.052 A 
HETATM   11  C5  UNL     1      23.074   0.358  53.057  1.00  0.00     0.034 A 
HETATM   12  C4  UNL     1      24.079  -0.457  53.775  1.00  0.00     0.028 A 
HETATM   13  C3  UNL     1      25.276  -0.211  53.253  1.00  0.00     0.020 A 
HETATM   14  C17 UNL     1      25.155   0.779  52.156  1.00  0.00     0.121 A 
BRANCH  13  15
HETATM   15  N1  UNL     1      26.531  -0.796  53.661  1.00  0.00    -0.306 N 
HETATM   16  C2  UNL     1      27.401   0.059  54.401  1.00  0.00     0.364 C 
HETATM   17  O2  UNL     1      27.145   1.239  54.701  1.00  0.00    -0.238 OA
HETATM   18  H4  UNL     1      26.835  -1.793  53.452  1.00  0.00     0.171 HD
BRANCH  16  19
HETATM   19  O1  UNL     1      28.603  -0.447  54.813  1.00  0.00    -0.309 OA
HETATM   20  C1  UNL     1      29.712  -0.664  53.989  1.00  0.00     0.215 C 
ENDBRANCH  16  19
ENDBRANCH  13  15
ENDBRANCH   9  10
ENDBRANCH   8   9
ENDBRANCH   1   8
BRANCH   7  21
HETATM   21  C16 UNL     1      21.969   4.890  51.050  1.00  0.00     0.306 C 
BRANCH  21  22
HETATM   22  N2  UNL     1      21.914   4.617  52.457  1.00  0.00     0.082 N 
HETATM   23  H19 UNL     1      21.163   5.132  52.966  1.00  0.00     0.313 HD
HETATM   24  H20 UNL     1      22.853   4.653  52.908  1.00  0.00     0.313 HD
ENDBRANCH  21  22
ENDBRANCH   7  21
BRANCH   5  25
HETATM   25  O4  UNL     1      26.315   6.924  49.786  1.00  0.00    -0.355 OA
HETATM   26  C13 UNL     1      25.871   8.252  49.990  1.00  0.00     0.210 C 
ENDBRANCH   5  25
TORSDOF 8
ENDMDL
MODEL 3
REMARK VINA RESULT:      -6.8      4.617      7.579
REMARK  8 active torsions:
REMARK  status: ('A' for Active; 'I' for Inactive)
REMARK    1  A    between atoms: O1_2  and  C2_3 
REMARK       I    between atoms: C2_3  and  N1_5 
REMARK    2  A    between atoms: N1_5  and  C3_6 
REMARK    3  A    between atoms: C6_9  and  O3_10 
REMARK    4  A    between atoms: O3_10  and  C7_11 
REMARK    5  A    between atoms: C7_11  and  C8_12 
REMARK    6  A    between atoms: C12_16  and  O4_17 
REMARK    7  A    between atoms: C15_20  and  C16_21 
REMARK    8  A    between atoms: C16_21  and  N2_22 
ROOT
HETATM    1  C8  UNL     1      21.595   0.906  51.165  1.00  0.00    -0.025 A 
HETATM    2  C9  UNL     1      21.898   0.168  52.316  1.00  0.00     0.019 A 
HETATM    3  C10 UNL     1      21.002  -0.453  53.148  1.00  0.00    -0.028 A 
HETATM    4  C11 UNL     1      21.520  -1.199  54.337  1.00  0.00     0.051 C 
HETATM    5  C12 UNL     1      19.681  -0.351  52.833  1.00  0.00     0.074 A 
HETATM    6  C14 UNL     1      19.307   0.360  51.711  1.00  0.00     0.046 A 
HETATM    7  C15 UNL     1      20.245   0.973  50.899  1.00  0.00    -0.019 A 
ENDROOT
BRANCH   1   8
HETATM    8  C7  UNL     1      22.697   1.513  50.389  1.00  0.00     0.214 C 
BRANCH   8   9
HETATM    9  O3  UNL     1      23.398   2.512  51.125  1.00  0.00    -0.351 OA
BRANCH   9  10
HETATM   10  C6  UNL     1      24.566   2.200  51.849  1.00  0.00     0.052 A 
HETATM   11  C5  UNL     1      24.468   2.790  53.050  1.00  0.00     0.034 A 
HETATM   12  C4  UNL     1      25.693   2.465  53.814  1.00  0.00     0.028 A 
HETATM   13  C3  UNL     1      26.474   1.701  53.056  1.00  0.00     0.020 A 
HETATM   14  C17 UNL     1      25.828   1.464  51.742  1.00  0.00     0.121 A 
BRANCH  13  15
HETATM   15  N1  UNL     1      27.763   1.161  53.418  1.00  0.00    -0.306 N 
HETATM   16  C2  UNL     1      27.737  -0.021  54.216  1.00  0.00     0.364 C 
HETATM   17  O2  UNL     1      26.699  -0.590  54.603  1.00  0.00    -0.238 OA
HETATM   18  H4  UNL     1      28.699   1.577  53.134  1.00  0.00     0.171 HD
BRANCH  16  19
HETATM   19  O1  UNL     1      28.931  -0.574  54.586  1.00  0.00    -0.309 OA
HETATM   20  C1  UNL     1      29.925  -1.014  53.706  1.00  0.00     0.215 C 
ENDBRANCH  16  19
ENDBRANCH  13  15
ENDBRANCH   9  10
ENDBRANCH   8   9
ENDBRANCH   1   8
BRANCH   7  21
HETATM   21  C16 UNL     1      19.863   1.750  49.672  1.00  0.00     0.306 C 
BRANCH  21  22
HETATM   22  N2  UNL     1      18.612   1.330  49.112  1.00  0.00     0.082 N 
HETATM   23  H19 UNL     1      18.079   0.657  49.704  1.00  0.00     0.313 HD
HETATM   24  H20 UNL     1      18.694   1.061  48.108  1.00  0.00     0.313 HD
ENDBRANCH  21  22
ENDBRANCH   7  21
BRANCH   5  25
HETATM   25  O4  UNL     1      18.760  -0.978  53.669  1.00  0.00    -0.355 OA
HETATM   26  C13 UNL     1      17.440  -1.275  53.256  1.00  0.00     0.210 C 
ENDBRANCH   5  25
TORSDOF 8
ENDMDL
MODEL 4
REMARK VINA RESULT:      -6.7      2.353      8.373
REMARK  8 active torsions:
REMARK  status: ('A' for Active; 'I' for Inactive)
REMARK    1  A    between atoms: O1_2  and  C2_3 
REMARK       I    between atoms: C2_3  and  N1_5 
REMARK    2  A    between atoms: N1_5  and  C3_6 
REMARK    3  A    between atoms: C6_9  and  O3_10 
REMARK    4  A    between atoms: O3_10  and  C7_11 
REMARK    5  A    between atoms: C7_11  and  C8_12 
REMARK    6  A    between atoms: C12_16  and  O4_17 
REMARK    7  A    between atoms: C15_20  and  C16_21 
REMARK    8  A    between atoms: C16_21  and  N2_22 
ROOT
HETATM    1  C8  UNL     1      25.948   1.386  52.202  1.00  0.00    -0.025 A 
HETATM    2  C9  UNL     1      24.578   1.632  52.053  1.00  0.00     0.019 A 
HETATM    3  C10 UNL     1      23.552   0.861  52.536  1.00  0.00    -0.028 A 
HETATM    4  C11 UNL     1      22.143   1.290  52.275  1.00  0.00     0.051 C 
HETATM    5  C12 UNL     1      23.887  -0.259  53.233  1.00  0.00     0.074 A 
HETATM    6  C14 UNL     1      25.219  -0.567  53.420  1.00  0.00     0.046 A 
HETATM    7  C15 UNL     1      26.223   0.240  52.915  1.00  0.00    -0.019 A 
ENDROOT
BRANCH   1   8
HETATM    8  C7  UNL     1      26.917   2.330  51.605  1.00  0.00     0.214 C 
BRANCH   8   9
HETATM    9  O3  UNL     1      26.749   2.470  50.197  1.00  0.00    -0.351 OA
BRANCH   9  10
HETATM   10  C6  UNL     1      26.651   3.741  49.596  1.00  0.00     0.052 A 
HETATM   11  C5  UNL     1      25.364   4.116  49.651  1.00  0.00     0.034 A 
HETATM   12  C4  UNL     1      25.256   5.451  49.021  1.00  0.00     0.028 A 
HETATM   13  C3  UNL     1      26.465   5.826  48.616  1.00  0.00     0.020 A 
HETATM   14  C17 UNL     1      27.458   4.775  48.946  1.00  0.00     0.121 A 
BRANCH  13  15
HETATM   15  N1  UNL     1      26.806   7.062  47.952  1.00  0.00    -0.306 N 
HETATM   16  C2  UNL     1      26.988   8.192  48.803  1.00  0.00     0.364 C 
HETATM   17  O2  UNL     1      26.873   8.169  50.042  1.00  0.00    -0.238 OA
HETATM   18  H4  UNL     1      26.925   7.177  46.902  1.00  0.00     0.171 HD
BRANCH  16  19
HETATM   19  O1  UNL     1      27.312   9.388  48.225  1.00  0.00    -0.309 OA
HETATM   20  C1  UNL     1      26.717  10.618  48.525  1.00  0.00     0.215 C 
ENDBRANCH  16  19
ENDBRANCH  13  15
ENDBRANCH   9  10
ENDBRANCH   8   9
ENDBRANCH   1   8
BRANCH   7  21
HETATM   21  C16 UNL     1      27.679  -0.071  53.107  1.00  0.00     0.306 C 
BRANCH  21  22
HETATM   22  N2  UNL     1      27.993  -0.474  54.446  1.00  0.00     0.082 N 
HETATM   23  H19 UNL     1      27.854   0.270  55.163  1.00  0.00     0.313 HD
HETATM   24  H20 UNL     1      28.903  -0.979  54.509  1.00  0.00     0.313 HD
ENDBRANCH  21  22
ENDBRANCH   7  21
BRANCH   5  25
HETATM   25  O4  UNL     1      22.855  -1.052  53.730  1.00  0.00    -0.355 OA
HETATM   26  C13 UNL     1      22.681  -1.293  55.113  1.00  0.00     0.210 C 
ENDBRANCH   5  25
TORSDOF 8
ENDMDL
MODEL 5
REMARK VINA RESULT:      -6.7      2.589      7.696
REMARK  8 active torsions:
REMARK  status: ('A' for Active; 'I' for Inactive)
REMARK    1  A    between atoms: O1_2  and  C2_3 
REMARK       I    between atoms: C2_3  and  N1_5 
REMARK    2  A    between atoms: N1_5  and  C3_6 
REMARK    3  A    between atoms: C6_9  and  O3_10 
REMARK    4  A    between atoms: O3_10  and  C7_11 
REMARK    5  A    between atoms: C7_11  and  C8_12 
REMARK    6  A    between atoms: C12_16  and  O4_17 
REMARK    7  A    between atoms: C15_20  and  C16_21 
REMARK    8  A    between atoms: C16_21  and  N2_22 
ROOT
HETATM    1  C8  UNL     1      23.016   0.961  52.415  1.00  0.00    -0.025 A 
HETATM    2  C9  UNL     1      24.287   1.223  51.890  1.00  0.00     0.019 A 
HETATM    3  C10 UNL     1      25.478   0.710  52.336  1.00  0.00    -0.028 A 
HETATM    4  C11 UNL     1      26.741   1.108  51.641  1.00  0.00     0.051 C 
HETATM    5  C12 UNL     1      25.432  -0.143  53.397  1.00  0.00     0.074 A 
HETATM    6  C14 UNL     1      24.213  -0.448  53.968  1.00  0.00     0.046 A 
HETATM    7  C15 UNL     1      23.035   0.093  53.485  1.00  0.00    -0.019 A 
ENDROOT
BRANCH   1   8
HETATM    8  C7  UNL     1      21.837   1.612  51.804  1.00  0.00     0.214 C 
BRANCH   8   9
HETATM    9  O3  UNL     1      21.502   2.843  52.439  1.00  0.00    -0.351 OA
BRANCH   9  10
HETATM   10  C6  UNL     1      22.213   4.027  52.156  1.00  0.00     0.052 A 
HETATM   11  C5  UNL     1      21.417   4.807  51.409  1.00  0.00     0.034 A 
HETATM   12  C4  UNL     1      22.159   6.052  51.109  1.00  0.00     0.028 A 
HETATM   13  C3  UNL     1      23.358   5.978  51.678  1.00  0.00     0.020 A 
HETATM   14  C17 UNL     1      23.498   4.687  52.394  1.00  0.00     0.121 A 
BRANCH  13  15
HETATM   15  N1  UNL     1      24.397   6.980  51.632  1.00  0.00    -0.306 N 
HETATM   16  C2  UNL     1      25.274   6.910  50.509  1.00  0.00     0.364 C 
HETATM   17  O2  UNL     1      25.194   6.063  49.601  1.00  0.00    -0.238 OA
HETATM   18  H4  UNL     1      24.542   7.741  52.360  1.00  0.00     0.171 HD
BRANCH  16  19
HETATM   19  O1  UNL     1      26.275   7.837  50.417  1.00  0.00    -0.309 OA
HETATM   20  C1  UNL     1      26.961   8.171  49.245  1.00  0.00     0.215 C 
ENDBRANCH  16  19
ENDBRANCH  13  15
ENDBRANCH   9  10
ENDBRANCH   8   9
ENDBRANCH   1   8
BRANCH   7  21
HETATM   21  C16 UNL     1      21.697  -0.225  54.086  1.00  0.00     0.306 C 
BRANCH  21  22
HETATM   22  N2  UNL     1      21.653  -1.520  54.699  1.00  0.00     0.082 N 
HETATM   23  H19 UNL     1      21.434  -1.506  55.719  1.00  0.00     0.313 HD
HETATM   24  H20 UNL     1      22.467  -2.115  54.434  1.00  0.00     0.313 HD
ENDBRANCH  21  22
ENDBRANCH   7  21
BRANCH   5  25
HETATM   25  O4  UNL     1      26.634  -0.672  53.862  1.00  0.00    -0.355 OA
HETATM   26  C13 UNL     1      27.390  -0.055  54.886  1.00  0.00     0.210 C 
ENDBRANCH   5  25
TORSDOF 8
ENDMDL
MODEL 6
REMARK VINA RESULT:      -6.7      2.591      8.430
REMARK  8 active torsions:
REMARK  status: ('A' for Active; 'I' for Inactive)
REMARK    1  A    between atoms: O1_2  and  C2_3 
REMARK       I    between atoms: C2_3  and  N1_5 
REMARK    2  A    between atoms: N1_5  and  C3_6 
REMARK    3  A    between atoms: C6_9  and  O3_10 
REMARK    4  A    between atoms: O3_10  and  C7_11 
REMARK    5  A    between atoms: C7_11  and  C8_12 
REMARK    6  A    between atoms: C12_16  and  O4_17 
REMARK    7  A    between atoms: C15_20  and  C16_21 
REMARK    8  A    between atoms: C16_21  and  N2_22 
ROOT
HETATM    1  C8  UNL     1      25.921   1.345  52.296  1.00  0.00    -0.025 A 
HETATM    2  C9  UNL     1      24.566   1.700  52.294  1.00  0.00     0.019 A 
HETATM    3  C10 UNL     1      23.522   0.946  52.766  1.00  0.00    -0.028 A 
HETATM    4  C11 UNL     1      22.135   1.499  52.678  1.00  0.00     0.051 C 
HETATM    5  C12 UNL     1      23.820  -0.274  53.293  1.00  0.00     0.074 A 
HETATM    6  C14 UNL     1      25.135  -0.692  53.329  1.00  0.00     0.046 A 
HETATM    7  C15 UNL     1      26.158   0.102  52.841  1.00  0.00    -0.019 A 
ENDROOT
BRANCH   1   8
HETATM    8  C7  UNL     1      26.913   2.288  51.738  1.00  0.00     0.214 C 
BRANCH   8   9
HETATM    9  O3  UNL     1      26.748   2.488  50.336  1.00  0.00    -0.351 OA
BRANCH   9  10
HETATM   10  C6  UNL     1      26.191   3.679  49.830  1.00  0.00     0.052 A 
HETATM   11  C5  UNL     1      27.165   4.337  49.181  1.00  0.00     0.034 A 
HETATM   12  C4  UNL     1      26.584   5.589  48.647  1.00  0.00     0.028 A 
HETATM   13  C3  UNL     1      25.301   5.640  48.989  1.00  0.00     0.020 A 
HETATM   14  C17 UNL     1      24.937   4.433  49.769  1.00  0.00     0.121 A 
BRANCH  13  15
HETATM   15  N1  UNL     1      24.366   6.693  48.669  1.00  0.00    -0.306 N 
HETATM   16  C2  UNL     1      24.126   7.643  49.707  1.00  0.00     0.364 C 
HETATM   17  O2  UNL     1      24.659   7.611  50.831  1.00  0.00    -0.238 OA
HETATM   18  H4  UNL     1      23.863   6.800  47.739  1.00  0.00     0.171 HD
BRANCH  16  19
HETATM   19  O1  UNL     1      23.248   8.661  49.456  1.00  0.00    -0.309 OA
HETATM   20  C1  UNL     1      22.937   9.165  48.189  1.00  0.00     0.215 C 
ENDBRANCH  16  19
ENDBRANCH  13  15
ENDBRANCH   9  10
ENDBRANCH   8   9
ENDBRANCH   1   8
BRANCH   7  21
HETATM   21  C16 UNL     1      27.596  -0.329  52.872  1.00  0.00     0.306 C 
BRANCH  21  22
HETATM   22  N2  UNL     1      28.070  -0.601  54.197  1.00  0.00     0.082 N 
HETATM   23  H19 UNL     1      28.707   0.129  54.584  1.00  0.00     0.313 HD
HETATM   24  H20 UNL     1      28.409  -1.581  54.307  1.00  0.00     0.313 HD
ENDBRANCH  21  22
ENDBRANCH   7  21
BRANCH   5  25
HETATM   25  O4  UNL     1      22.770  -1.051  53.776  1.00  0.00    -0.355 OA
HETATM   26  C13 UNL     1      22.581  -1.298  55.156  1.00  0.00     0.210 C 
ENDBRANCH   5  25
TORSDOF 8
ENDMDL
MODEL 7
REMARK VINA RESULT:      -6.6      2.092      7.407
REMARK  8 active torsions:
REMARK  status: ('A' for Active; 'I' for Inactive)
REMARK    1  A    between atoms: O1_2  and  C2_3 
REMARK       I    between atoms: C2_3  and  N1_5 
REMARK    2  A    between atoms: N1_5  and  C3_6 
REMARK    3  A    between atoms: C6_9  and  O3_10 
REMARK    4  A    between atoms: O3_10  and  C7_11 
REMARK    5  A    between atoms: C7_11  and  C8_12 
REMARK    6  A    between atoms: C12_16  and  O4_17 
REMARK    7  A    between atoms: C15_20  and  C16_21 
REMARK    8  A    between atoms: C16_21  and  N2_22 
ROOT
HETATM    1  C8  UNL     1      24.689   1.376  53.225  1.00  0.00    -0.025 A 
HETATM    2  C9  UNL     1      25.938   1.999  53.334  1.00  0.00     0.019 A 
HETATM    3  C10 UNL     1      27.118   1.406  53.702  1.00  0.00    -0.028 A 
HETATM    4  C11 UNL     1      28.358   2.241  53.760  1.00  0.00     0.051 C 
HETATM    5  C12 UNL     1      27.085   0.076  53.993  1.00  0.00     0.074 A 
HETATM    6  C14 UNL     1      25.889  -0.606  53.907  1.00  0.00     0.046 A 
HETATM    7  C15 UNL     1      24.720   0.033  53.532  1.00  0.00    -0.019 A 
ENDROOT
BRANCH   1   8
HETATM    8  C7  UNL     1      23.517   2.179  52.817  1.00  0.00     0.214 C 
BRANCH   8   9
HETATM    9  O3  UNL     1      23.363   2.241  51.401  1.00  0.00    -0.351 OA
BRANCH   9  10
HETATM   10  C6  UNL     1      23.988   3.251  50.643  1.00  0.00     0.052 A 
HETATM   11  C5  UNL     1      23.304   3.376  49.495  1.00  0.00     0.034 A 
HETATM   12  C4  UNL     1      23.957   4.437  48.694  1.00  0.00     0.028 A 
HETATM   13  C3  UNL     1      24.995   4.905  49.380  1.00  0.00     0.020 A 
HETATM   14  C17 UNL     1      25.106   4.196  50.677  1.00  0.00     0.121 A 
BRANCH  13  15
HETATM   15  N1  UNL     1      25.903   5.947  48.962  1.00  0.00    -0.306 N 
HETATM   16  C2  UNL     1      27.230   5.524  48.654  1.00  0.00     0.364 C 
HETATM   17  O2  UNL     1      27.631   4.348  48.724  1.00  0.00    -0.238 OA
HETATM   18  H4  UNL     1      25.650   6.976  48.872  1.00  0.00     0.171 HD
BRANCH  16  19
HETATM   19  O1  UNL     1      28.130   6.472  48.252  1.00  0.00    -0.309 OA
HETATM   20  C1  UNL     1      27.854   7.529  47.378  1.00  0.00     0.215 C 
ENDBRANCH  16  19
ENDBRANCH  13  15
ENDBRANCH   9  10
ENDBRANCH   8   9
ENDBRANCH   1   8
BRANCH   7  21
HETATM   21  C16 UNL     1      23.406  -0.687  53.428  1.00  0.00     0.306 C 
BRANCH  21  22
HETATM   22  N2  UNL     1      22.844  -1.010  54.707  1.00  0.00     0.082 N 
HETATM   23  H19 UNL     1      22.069  -1.707  54.672  1.00  0.00     0.313 HD
HETATM   24  H20 UNL     1      22.647  -0.164  55.282  1.00  0.00     0.313 HD
ENDBRANCH  21  22
ENDBRANCH   7  21
BRANCH   5  25
HETATM   25  O4  UNL     1      28.277  -0.540  54.368  1.00  0.00    -0.355 OA
HETATM   26  C13 UNL     1      29.063  -1.290  53.462  1.00  0.00     0.210 C 
ENDBRANCH   5  25
TORSDOF 8
ENDMDL
MODEL 8
REMARK VINA RESULT:      -6.6      4.472      5.995
REMARK  8 active torsions:
REMARK  status: ('A' for Active; 'I' for Inactive)
REMARK    1  A    between atoms: O1_2  and  C2_3 
REMARK       I    between atoms: C2_3  and  N1_5 
REMARK    2  A    between atoms: N1_5  and  C3_6 
REMARK    3  A    between atoms: C6_9  and  O3_10 
REMARK    4  A    between atoms: O3_10  and  C7_11 
REMARK    5  A    between atoms: C7_11  and  C8_12 
REMARK    6  A    between atoms: C12_16  and  O4_17 
REMARK    7  A    between atoms: C15_20  and  C16_21 
REMARK    8  A    between atoms: C16_21  and  N2_22 
ROOT
HETATM    1  C8  UNL     1      21.256   1.384  51.386  1.00  0.00    -0.025 A 
HETATM    2  C9  UNL     1      22.455   2.020  51.042  1.00  0.00     0.019 A 
HETATM    3  C10 UNL     1      22.873   2.349  49.778  1.00  0.00    -0.028 A 
HETATM    4  C11 UNL     1      24.194   3.030  49.610  1.00  0.00     0.051 C 
HETATM    5  C12 UNL     1      22.047   2.030  48.744  1.00  0.00     0.074 A 
HETATM    6  C14 UNL     1      20.846   1.401  49.007  1.00  0.00     0.046 A 
HETATM    7  C15 UNL     1      20.464   1.088  50.299  1.00  0.00    -0.019 A 
ENDROOT
BRANCH   1   8
HETATM    8  C7  UNL     1      20.973   1.103  52.810  1.00  0.00     0.214 C 
BRANCH   8   9
HETATM    9  O3  UNL     1      21.385  -0.204  53.201  1.00  0.00    -0.351 OA
BRANCH   9  10
HETATM   10  C6  UNL     1      22.695  -0.449  53.661  1.00  0.00     0.052 A 
HETATM   11  C5  UNL     1      22.600  -0.941  54.906  1.00  0.00     0.034 A 
HETATM   12  C4  UNL     1      23.974  -1.200  55.393  1.00  0.00     0.028 A 
HETATM   13  C3  UNL     1      24.833  -0.860  54.437  1.00  0.00     0.020 A 
HETATM   14  C17 UNL     1      24.098  -0.355  53.253  1.00  0.00     0.121 A 
BRANCH  13  15
HETATM   15  N1  UNL     1      26.272  -0.954  54.500  1.00  0.00    -0.306 N 
HETATM   16  C2  UNL     1      26.960   0.266  54.772  1.00  0.00     0.364 C 
HETATM   17  O2  UNL     1      26.405   1.366  54.951  1.00  0.00    -0.238 OA
HETATM   18  H4  UNL     1      26.832  -1.847  54.362  1.00  0.00     0.171 HD
BRANCH  16  19
HETATM   19  O1  UNL     1      28.325   0.233  54.843  1.00  0.00    -0.309 OA
HETATM   20  C1  UNL     1      29.189   1.136  54.215  1.00  0.00     0.215 C 
ENDBRANCH  16  19
ENDBRANCH  13  15
ENDBRANCH   9  10
ENDBRANCH   8   9
ENDBRANCH   1   8
BRANCH   7  21
HETATM   21  C16 UNL     1      19.162   0.407  50.611  1.00  0.00     0.306 C 
BRANCH  21  22
HETATM   22  N2  UNL     1      18.056   1.317  50.672  1.00  0.00     0.082 N 
HETATM   23  H19 UNL     1      17.496   1.373  49.793  1.00  0.00     0.313 HD
HETATM   24  H20 UNL     1      18.318   2.237  51.084  1.00  0.00     0.313 HD
ENDBRANCH  21  22
ENDBRANCH   7  21
BRANCH   5  25
HETATM   25  O4  UNL     1      22.458   2.357  47.454  1.00  0.00    -0.355 OA
HETATM   26  C13 UNL     1      21.859   3.400  46.708  1.00  0.00     0.210 C 
ENDBRANCH   5  25
TORSDOF 8
ENDMDL
MODEL 9
REMARK VINA RESULT:      -6.6      2.379      3.233
REMARK  8 active torsions:
REMARK  status: ('A' for Active; 'I' for Inactive)
REMARK    1  A    between atoms: O1_2  and  C2_3 
REMARK       I    between atoms: C2_3  and  N1_5 
REMARK    2  A    between atoms: N1_5  and  C3_6 
REMARK    3  A    between atoms: C6_9  and  O3_10 
REMARK    4  A    between atoms: O3_10  and  C7_11 
REMARK    5  A    between atoms: C7_11  and  C8_12 
REMARK    6  A    between atoms: C12_16  and  O4_17 
REMARK    7  A    between atoms: C15_20  and  C16_21 
REMARK    8  A    between atoms: C16_21  and  N2_22 
ROOT
HETATM    1  C8  UNL     1      26.868   4.685  49.117  1.00  0.00    -0.025 A 
HETATM    2  C9  UNL     1      28.135   4.906  48.562  1.00  0.00     0.019 A 
HETATM    3  C10 UNL     1      28.666   6.115  48.194  1.00  0.00    -0.028 A 
HETATM    4  C11 UNL     1      30.045   6.152  47.615  1.00  0.00     0.051 C 
HETATM    5  C12 UNL     1      27.893   7.221  48.382  1.00  0.00     0.074 A 
HETATM    6  C14 UNL     1      26.632   7.080  48.926  1.00  0.00     0.046 A 
HETATM    7  C15 UNL     1      26.135   5.839  49.283  1.00  0.00    -0.019 A 
ENDROOT
BRANCH   1   8
HETATM    8  C7  UNL     1      26.460   3.303  49.450  1.00  0.00     0.214 C 
BRANCH   8   9
HETATM    9  O3  UNL     1      26.892   2.903  50.748  1.00  0.00    -0.351 OA
BRANCH   9  10
HETATM   10  C6  UNL     1      26.060   2.139  51.590  1.00  0.00     0.052 A 
HETATM   11  C5  UNL     1      25.271   2.992  52.261  1.00  0.00     0.034 A 
HETATM   12  C4  UNL     1      24.395   2.193  53.147  1.00  0.00     0.028 A 
HETATM   13  C3  UNL     1      24.684   0.907  52.980  1.00  0.00     0.020 A 
HETATM   14  C17 UNL     1      25.765   0.757  51.976  1.00  0.00     0.121 A 
BRANCH  13  15
HETATM   15  N1  UNL     1      24.062  -0.209  53.653  1.00  0.00    -0.306 N 
HETATM   16  C2  UNL     1      22.780  -0.593  53.159  1.00  0.00     0.364 C 
HETATM   17  O2  UNL     1      22.191  -0.037  52.214  1.00  0.00    -0.238 OA
HETATM   18  H4  UNL     1      24.489  -0.745  54.466  1.00  0.00     0.171 HD
BRANCH  16  19
HETATM   19  O1  UNL     1      22.147  -1.646  53.761  1.00  0.00    -0.309 OA
HETATM   20  C1  UNL     1      20.865  -1.606  54.318  1.00  0.00     0.215 C 
ENDBRANCH  16  19
ENDBRANCH  13  15
ENDBRANCH   9  10
ENDBRANCH   8   9
ENDBRANCH   1   8
BRANCH   7  21
HETATM   21  C16 UNL     1      24.769   5.660  49.878  1.00  0.00     0.306 C 
BRANCH  21  22
HETATM   22  N2  UNL     1      24.632   6.283  51.162  1.00  0.00     0.082 N 
HETATM   23  H19 UNL     1      25.230   5.867  51.908  1.00  0.00     0.313 HD
HETATM   24  H20 UNL     1      23.635   6.431  51.430  1.00  0.00     0.313 HD
ENDBRANCH  21  22
ENDBRANCH   7  21
BRANCH   5  25
HETATM   25  O4  UNL     1      28.419   8.456  48.013  1.00  0.00    -0.355 OA
HETATM   26  C13 UNL     1      27.606   9.526  47.571  1.00  0.00     0.210 C 
ENDBRANCH   5  25
TORSDOF 8
ENDMDL
