MODEL 1
REMARK VINA RESULT:      -8.5      0.000      0.000
REMARK  6 active torsions:
REMARK  status: ('A' for Active; 'I' for Inactive)
REMARK    1  A    between atoms: C5_6  and  N1_7 
REMARK    2  A    between atoms: N1_7  and  C6_8 
REMARK    3  A    between atoms: C11_14  and  C12_15 
REMARK    4  A    between atoms: C13_16  and  C14_18 
REMARK    5  A    between atoms: C14_18  and  O3_19 
REMARK    6  A    between atoms: O3_19  and  C15_20 
ROOT
HETATM    1  C1  UNL     1      27.055   7.705  48.102  1.00  0.00     0.052 C 
HETATM    2  C2  UNL     1      25.747   7.663  48.803  1.00  0.00    -0.011 C 
HETATM    3  C3  UNL     1      25.062   8.674  49.320  1.00  0.00     0.143 C 
HETATM    4  O1  UNL     1      23.844   8.642  49.973  1.00  0.00    -0.360 OA
HETATM    5  C4  UNL     1      23.044   7.702  50.646  1.00  0.00     0.206 C 
HETATM    6  C5  UNL     1      22.753   6.429  49.915  1.00  0.00     0.173 C 
HETATM    7  C7  UNL     1      23.991   5.843  49.343  1.00  0.00     0.021 C 
HETATM    8  C8  UNL     1      23.570   4.620  49.548  1.00  0.00     0.025 C 
HETATM    9  C9  UNL     1      23.690   3.210  48.870  1.00  0.00     0.100 C 
HETATM   10  C10 UNL     1      24.784   3.144  50.004  1.00  0.00    -0.004 C 
HETATM   11  C11 UNL     1      24.031   3.126  51.161  1.00  0.00     0.042 C 
HETATM   12  N3  UNL     1      23.034   4.268  50.894  1.00  0.00    -0.358 N 
HETATM   13  C20 UNL     1      26.218   3.371  50.118  1.00  0.00     0.071 C 
HETATM   14  C21 UNL     1      26.805   2.666  51.156  1.00  0.00     0.101 C 
HETATM   15  N4  UNL     1      27.284   2.123  51.971  1.00  0.00    -0.191 NA
HETATM   16  C22 UNL     1      26.899   4.315  49.321  1.00  0.00     0.140 C 
HETATM   17  N5  UNL     1      26.426   5.488  48.455  1.00  0.00    -0.258 NA
HETATM   18  C23 UNL     1      25.369   6.273  48.832  1.00  0.00     0.074 C 
HETATM   19  H17 UNL     1      22.298   4.773  51.335  1.00  0.00     0.166 HD
ENDROOT
BRANCH  11  20
HETATM   20  C12 UNL     1      24.303   2.297  52.186  1.00  0.00     0.051 C 
HETATM   21  C13 UNL     1      23.672   1.214  52.521  1.00  0.00     0.038 C 
HETATM   22 CL1  UNL     1      22.325   0.872  51.452  1.00  0.00    -0.087 Cl
BRANCH  21  23
HETATM   23  C14 UNL     1      23.699   0.148  53.536  1.00  0.00     0.227 C 
BRANCH  23  24
HETATM   24  O3  UNL     1      24.706  -0.799  53.325  1.00  0.00    -0.346 OA
BRANCH  24  25
HETATM   25  C15 UNL     1      25.980  -0.594  53.789  1.00  0.00     0.071 A 
HETATM   26  C16 UNL     1      26.592   0.100  54.809  1.00  0.00     0.056 A 
HETATM   27  C17 UNL     1      27.959   0.071  54.971  1.00  0.00     0.119 A 
HETATM   28  N2  UNL     1      28.760  -0.631  54.145  1.00  0.00    -0.273 NA
HETATM   29  C18 UNL     1      28.215  -1.339  53.115  1.00  0.00     0.119 A 
HETATM   30  C19 UNL     1      26.825  -1.320  52.937  1.00  0.00     0.056 A 
ENDBRANCH  24  25
ENDBRANCH  23  24
ENDBRANCH  21  23
ENDBRANCH  11  20
BRANCH   6  31
HETATM   31  N1  UNL     1      21.510   5.876  49.685  1.00  0.00    -0.235 NA
BRANCH  31  32
HETATM   32  C6  UNL     1      20.477   6.531  49.493  1.00  0.00     0.332 C 
HETATM   33  O2  UNL     1      19.314   6.913  49.343  1.00  0.00    -0.260 OA
ENDBRANCH  31  32
ENDBRANCH   6  31
TORSDOF 6
ENDMDL
MODEL 2
REMARK VINA RESULT:      -7.6      2.326      3.902
REMARK  6 active torsions:
REMARK  status: ('A' for Active; 'I' for Inactive)
REMARK    1  A    between atoms: C5_6  and  N1_7 
REMARK    2  A    between atoms: N1_7  and  C6_8 
REMARK    3  A    between atoms: C11_14  and  C12_15 
REMARK    4  A    between atoms: C13_16  and  C14_18 
REMARK    5  A    between atoms: C14_18  and  O3_19 
REMARK    6  A    between atoms: O3_19  and  C15_20 
ROOT
HETATM    1  C1  UNL     1      22.492   7.849  45.327  1.00  0.00     0.052 C 
HETATM    2  C2  UNL     1      23.759   7.808  46.098  1.00  0.00    -0.011 C 
HETATM    3  C3  UNL     1      24.963   8.215  45.718  1.00  0.00     0.143 C 
HETATM    4  O1  UNL     1      26.147   8.180  46.431  1.00  0.00    -0.360 OA
HETATM    5  C4  UNL     1      26.683   7.489  47.532  1.00  0.00     0.206 C 
HETATM    6  C5  UNL     1      25.861   7.487  48.783  1.00  0.00     0.173 C 
HETATM    7  C7  UNL     1      24.449   7.129  48.496  1.00  0.00     0.021 C 
HETATM    8  C8  UNL     1      24.324   6.495  49.636  1.00  0.00     0.025 C 
HETATM    9  C9  UNL     1      23.211   6.220  50.707  1.00  0.00     0.100 C 
HETATM   10  C10 UNL     1      23.194   4.901  49.843  1.00  0.00    -0.004 C 
HETATM   11  C11 UNL     1      24.402   4.310  50.153  1.00  0.00     0.042 C 
HETATM   12  N3  UNL     1      25.368   5.501  50.016  1.00  0.00    -0.358 N 
HETATM   13  C20 UNL     1      22.439   4.374  48.713  1.00  0.00     0.071 C 
HETATM   14  C21 UNL     1      22.414   2.991  48.668  1.00  0.00     0.101 C 
HETATM   15  N4  UNL     1      22.386   1.902  48.612  1.00  0.00    -0.191 NA
HETATM   16  C22 UNL     1      21.903   5.207  47.709  1.00  0.00     0.140 C 
HETATM   17  N5  UNL     1      22.166   6.664  47.307  1.00  0.00    -0.258 NA
HETATM   18  C23 UNL     1      23.423   7.203  47.362  1.00  0.00     0.074 C 
HETATM   19  H17 UNL     1      26.339   5.721  50.055  1.00  0.00     0.166 HD
ENDROOT
BRANCH  11  20
HETATM   20  C12 UNL     1      24.518   2.994  50.407  1.00  0.00     0.051 C 
HETATM   21  C13 UNL     1      24.513   2.405  51.564  1.00  0.00     0.038 C 
HETATM   22 CL1  UNL     1      24.327   3.539  52.887  1.00  0.00    -0.087 Cl
BRANCH  21  23
HETATM   23  C14 UNL     1      24.628   1.063  52.158  1.00  0.00     0.227 C 
BRANCH  23  24
HETATM   24  O3  UNL     1      25.909   0.512  52.051  1.00  0.00    -0.346 OA
BRANCH  24  25
HETATM   25  C15 UNL     1      26.946   0.974  52.822  1.00  0.00     0.071 A 
HETATM   26  C16 UNL     1      27.779   2.069  52.854  1.00  0.00     0.056 A 
HETATM   27  C17 UNL     1      28.751   2.195  53.821  1.00  0.00     0.119 A 
HETATM   28  N2  UNL     1      28.933   1.261  54.776  1.00  0.00    -0.273 NA
HETATM   29  C18 UNL     1      28.139   0.153  54.798  1.00  0.00     0.119 A 
HETATM   30  C19 UNL     1      27.145   0.010  53.821  1.00  0.00     0.056 A 
ENDBRANCH  24  25
ENDBRANCH  23  24
ENDBRANCH  21  23
ENDBRANCH  11  20
BRANCH   6  31
HETATM   31  N1  UNL     1      26.278   7.855  50.045  1.00  0.00    -0.235 NA
BRANCH  31  32
HETATM   32  C6  UNL     1      26.836   8.928  50.312  1.00  0.00     0.332 C 
HETATM   33  O2  UNL     1      27.558   9.928  50.330  1.00  0.00    -0.260 OA
ENDBRANCH  31  32
ENDBRANCH   6  31
TORSDOF 6
ENDMDL
MODEL 3
REMARK VINA RESULT:      -7.6      2.731      7.099
REMARK  6 active torsions:
REMARK  status: ('A' for Active; 'I' for Inactive)
REMARK    1  A    between atoms: C5_6  and  N1_7 
REMARK    2  A    between atoms: N1_7  and  C6_8 
REMARK    3  A    between atoms: C11_14  and  C12_15 
REMARK    4  A    between atoms: C13_16  and  C14_18 
REMARK    5  A    between atoms: C14_18  and  O3_19 
REMARK    6  A    between atoms: O3_19  and  C15_20 
ROOT
HETATM    1  C1  UNL     1      24.034  -0.720  53.826  1.00  0.00     0.052 C 
HETATM    2  C2  UNL     1      22.905  -0.068  53.118  1.00  0.00    -0.011 C 
HETATM    3  C3  UNL     1      21.776  -0.620  52.693  1.00  0.00     0.143 C 
HETATM    4  O1  UNL     1      20.721  -0.019  52.034  1.00  0.00    -0.360 OA
HETATM    5  C4  UNL     1      20.489   1.140  51.272  1.00  0.00     0.206 C 
HETATM    6  C5  UNL     1      20.924   2.437  51.880  1.00  0.00     0.173 C 
HETATM    7  C7  UNL     1      22.311   2.345  52.402  1.00  0.00     0.021 C 
HETATM    8  C8  UNL     1      22.569   3.589  52.082  1.00  0.00     0.025 C 
HETATM    9  C9  UNL     1      23.425   4.785  52.627  1.00  0.00     0.100 C 
HETATM   10  C10 UNL     1      24.348   4.185  51.498  1.00  0.00    -0.004 C 
HETATM   11  C11 UNL     1      23.662   4.493  50.340  1.00  0.00     0.042 C 
HETATM   12  N3  UNL     1      22.233   4.054  50.707  1.00  0.00    -0.358 N 
HETATM   13  C20 UNL     1      25.455   3.242  51.413  1.00  0.00     0.071 C 
HETATM   14  C21 UNL     1      26.275   3.456  50.318  1.00  0.00     0.101 C 
HETATM   15  N4  UNL     1      26.929   3.606  49.458  1.00  0.00    -0.191 NA
HETATM   16  C22 UNL     1      25.589   2.152  52.298  1.00  0.00     0.140 C 
HETATM   17  N5  UNL     1      24.618   1.466  53.267  1.00  0.00    -0.258 NA
HETATM   18  C23 UNL     1      23.293   1.310  52.958  1.00  0.00     0.074 C 
HETATM   19  H17 UNL     1      21.323   3.967  50.311  1.00  0.00     0.166 HD
ENDROOT
BRANCH  11  20
HETATM   20  C12 UNL     1      24.277   4.975  49.244  1.00  0.00     0.051 C 
HETATM   21  C13 UNL     1      24.446   6.219  48.911  1.00  0.00     0.038 C 
HETATM   22 CL1  UNL     1      23.765   7.321  50.090  1.00  0.00    -0.087 Cl
BRANCH  21  23
HETATM   23  C14 UNL     1      25.027   7.039  47.836  1.00  0.00     0.227 C 
BRANCH  23  24
HETATM   24  O3  UNL     1      25.935   7.999  48.294  1.00  0.00    -0.346 OA
BRANCH  24  25
HETATM   25  C15 UNL     1      27.280   7.735  48.342  1.00  0.00     0.071 A 
HETATM   26  C16 UNL     1      28.129   6.710  47.992  1.00  0.00     0.056 A 
HETATM   27  C17 UNL     1      29.486   6.804  48.203  1.00  0.00     0.119 A 
HETATM   28  N2  UNL     1      30.046   7.897  48.759  1.00  0.00    -0.273 NA
HETATM   29  C18 UNL     1      29.259   8.948  49.127  1.00  0.00     0.119 A 
HETATM   30  C19 UNL     1      27.876   8.867  48.919  1.00  0.00     0.056 A 
ENDBRANCH  24  25
ENDBRANCH  23  24
ENDBRANCH  21  23
ENDBRANCH  11  20
BRANCH   6  31
HETATM   31  N1  UNL     1      20.153   3.567  52.052  1.00  0.00    -0.235 NA
BRANCH  31  32
HETATM   32  C6  UNL     1      18.934   3.622  51.839  1.00  0.00     0.332 C 
HETATM   33  O2  UNL     1      17.706   3.521  51.890  1.00  0.00    -0.260 OA
ENDBRANCH  31  32
ENDBRANCH   6  31
TORSDOF 6
ENDMDL
MODEL 4
REMARK VINA RESULT:      -7.5      2.535      8.581
REMARK  6 active torsions:
REMARK  status: ('A' for Active; 'I' for Inactive)
REMARK    1  A    between atoms: C5_6  and  N1_7 
REMARK    2  A    between atoms: N1_7  and  C6_8 
REMARK    3  A    between atoms: C11_14  and  C12_15 
REMARK    4  A    between atoms: C13_16  and  C14_18 
REMARK    5  A    between atoms: C14_18  and  O3_19 
REMARK    6  A    between atoms: O3_19  and  C15_20 
ROOT
HETATM    1  C1  UNL     1      22.086  -1.840  54.574  1.00  0.00     0.052 C 
HETATM    2  C2  UNL     1      23.402  -1.160  54.667  1.00  0.00    -0.011 C 
HETATM    3  C3  UNL     1      24.312  -1.266  55.626  1.00  0.00     0.143 C 
HETATM    4  O1  UNL     1      25.539  -0.636  55.719  1.00  0.00    -0.360 OA
HETATM    5  C4  UNL     1      26.174   0.499  55.185  1.00  0.00     0.206 C 
HETATM    6  C5  UNL     1      26.149   0.638  53.695  1.00  0.00     0.173 C 
HETATM    7  C7  UNL     1      24.781   0.423  53.159  1.00  0.00     0.021 C 
HETATM    8  C8  UNL     1      24.957   1.312  52.212  1.00  0.00     0.025 C 
HETATM    9  C9  UNL     1      24.505   1.546  50.728  1.00  0.00     0.100 C 
HETATM   10  C10 UNL     1      23.500   2.447  51.542  1.00  0.00    -0.004 C 
HETATM   11  C11 UNL     1      24.310   3.455  52.028  1.00  0.00     0.042 C 
HETATM   12  N3  UNL     1      25.499   2.650  52.582  1.00  0.00    -0.358 N 
HETATM   13  C20 UNL     1      22.154   2.324  52.084  1.00  0.00     0.071 C 
HETATM   14  C21 UNL     1      21.507   3.540  52.230  1.00  0.00     0.101 C 
HETATM   15  N4  UNL     1      20.983   4.488  52.357  1.00  0.00    -0.191 NA
HETATM   16  C22 UNL     1      21.627   1.092  52.526  1.00  0.00     0.140 C 
HETATM   17  N5  UNL     1      22.271  -0.255  52.874  1.00  0.00    -0.258 NA
HETATM   18  C23 UNL     1      23.489  -0.325  53.496  1.00  0.00     0.074 C 
HETATM   19  H17 UNL     1      26.351   2.771  53.083  1.00  0.00     0.166 HD
ENDROOT
BRANCH  11  20
HETATM   20  C12 UNL     1      23.944   4.750  52.003  1.00  0.00     0.051 C 
HETATM   21  C13 UNL     1      24.272   5.651  51.128  1.00  0.00     0.038 C 
HETATM   22 CL1  UNL     1      25.311   5.010  49.871  1.00  0.00    -0.087 Cl
BRANCH  21  23
HETATM   23  C14 UNL     1      24.068   7.079  50.834  1.00  0.00     0.227 C 
BRANCH  23  24
HETATM   24  O3  UNL     1      24.469   7.447  49.546  1.00  0.00    -0.346 OA
BRANCH  24  25
HETATM   25  C15 UNL     1      25.250   8.555  49.336  1.00  0.00     0.071 A 
HETATM   26  C16 UNL     1      25.204   9.703  48.579  1.00  0.00     0.056 A 
HETATM   27  C17 UNL     1      26.220  10.631  48.628  1.00  0.00     0.119 A 
HETATM   28  N2  UNL     1      27.302  10.462  49.414  1.00  0.00    -0.273 NA
HETATM   29  C18 UNL     1      27.407   9.345  50.189  1.00  0.00     0.119 A 
HETATM   30  C19 UNL     1      26.381   8.392  50.150  1.00  0.00     0.056 A 
ENDBRANCH  24  25
ENDBRANCH  23  24
ENDBRANCH  21  23
ENDBRANCH  11  20
BRANCH   6  31
HETATM   31  N1  UNL     1      27.234   0.839  52.867  1.00  0.00    -0.235 NA
BRANCH  31  32
HETATM   32  C6  UNL     1      28.393   0.494  53.136  1.00  0.00     0.332 C 
HETATM   33  O2  UNL     1      29.495   0.313  53.657  1.00  0.00    -0.260 OA
ENDBRANCH  31  32
ENDBRANCH   6  31
TORSDOF 6
ENDMDL
MODEL 5
REMARK VINA RESULT:      -7.5      3.057      6.988
REMARK  6 active torsions:
REMARK  status: ('A' for Active; 'I' for Inactive)
REMARK    1  A    between atoms: C5_6  and  N1_7 
REMARK    2  A    between atoms: N1_7  and  C6_8 
REMARK    3  A    between atoms: C11_14  and  C12_15 
REMARK    4  A    between atoms: C13_16  and  C14_18 
REMARK    5  A    between atoms: C14_18  and  O3_19 
REMARK    6  A    between atoms: O3_19  and  C15_20 
ROOT
HETATM    1  C1  UNL     1      20.835  -1.094  54.155  1.00  0.00     0.052 C 
HETATM    2  C2  UNL     1      20.495  -0.119  53.088  1.00  0.00    -0.011 C 
HETATM    3  C3  UNL     1      19.479  -0.159  52.237  1.00  0.00     0.143 C 
HETATM    4  O1  UNL     1      19.156   0.744  51.241  1.00  0.00    -0.360 OA
HETATM    5  C4  UNL     1      19.797   1.748  50.494  1.00  0.00     0.206 C 
HETATM    6  C5  UNL     1      20.546   2.784  51.273  1.00  0.00     0.173 C 
HETATM    7  C7  UNL     1      21.427   2.157  52.290  1.00  0.00     0.021 C 
HETATM    8  C8  UNL     1      22.343   3.082  52.143  1.00  0.00     0.025 C 
HETATM    9  C9  UNL     1      23.404   3.829  53.024  1.00  0.00     0.100 C 
HETATM   10  C10 UNL     1      24.264   2.709  52.322  1.00  0.00    -0.004 C 
HETATM   11  C11 UNL     1      24.277   3.110  51.001  1.00  0.00     0.042 C 
HETATM   12  N3  UNL     1      22.789   3.429  50.764  1.00  0.00    -0.358 N 
HETATM   13  C20 UNL     1      24.733   1.367  52.639  1.00  0.00     0.071 C 
HETATM   14  C21 UNL     1      25.886   1.013  51.959  1.00  0.00     0.101 C 
HETATM   15  N4  UNL     1      26.791   0.715  51.428  1.00  0.00    -0.191 NA
HETATM   16  C22 UNL     1      24.002   0.487  53.464  1.00  0.00     0.140 C 
HETATM   17  N5  UNL     1      22.547   0.475  53.951  1.00  0.00    -0.258 NA
HETATM   18  C23 UNL     1      21.521   0.890  53.145  1.00  0.00     0.074 C 
HETATM   19  H17 UNL     1      22.161   3.703  50.042  1.00  0.00     0.166 HD
ENDROOT
BRANCH  11  20
HETATM   20  C12 UNL     1      25.394   3.085  50.250  1.00  0.00     0.051 C 
HETATM   21  C13 UNL     1      26.049   4.096  49.768  1.00  0.00     0.038 C 
HETATM   22 CL1  UNL     1      25.319   5.629  50.200  1.00  0.00    -0.087 Cl
BRANCH  21  23
HETATM   23  C14 UNL     1      27.230   4.397  48.942  1.00  0.00     0.227 C 
BRANCH  23  24
HETATM   24  O3  UNL     1      27.199   5.671  48.366  1.00  0.00    -0.346 OA
BRANCH  24  25
HETATM   25  C15 UNL     1      28.345   6.408  48.211  1.00  0.00     0.071 A 
HETATM   26  C16 UNL     1      28.692   7.734  48.080  1.00  0.00     0.056 A 
HETATM   27  C17 UNL     1      30.007   8.115  47.937  1.00  0.00     0.119 A 
HETATM   28  N2  UNL     1      31.012   7.217  47.917  1.00  0.00    -0.273 NA
HETATM   29  C18 UNL     1      30.733   5.888  48.043  1.00  0.00     0.119 A 
HETATM   30  C19 UNL     1      29.401   5.484  48.190  1.00  0.00     0.056 A 
ENDBRANCH  24  25
ENDBRANCH  23  24
ENDBRANCH  21  23
ENDBRANCH  11  20
BRANCH   6  31
HETATM   31  N1  UNL     1      20.406   4.153  51.173  1.00  0.00    -0.235 NA
BRANCH  31  32
HETATM   32  C6  UNL     1      19.583   4.720  50.442  1.00  0.00     0.332 C 
HETATM   33  O2  UNL     1      18.654   5.002  49.682  1.00  0.00    -0.260 OA
ENDBRANCH  31  32
ENDBRANCH   6  31
TORSDOF 6
ENDMDL
MODEL 6
REMARK VINA RESULT:      -7.4      3.008      8.139
REMARK  6 active torsions:
REMARK  status: ('A' for Active; 'I' for Inactive)
REMARK    1  A    between atoms: C5_6  and  N1_7 
REMARK    2  A    between atoms: N1_7  and  C6_8 
REMARK    3  A    between atoms: C11_14  and  C12_15 
REMARK    4  A    between atoms: C13_16  and  C14_18 
REMARK    5  A    between atoms: C14_18  and  O3_19 
REMARK    6  A    between atoms: O3_19  and  C15_20 
ROOT
HETATM    1  C1  UNL     1      17.857  -0.234  51.446  1.00  0.00     0.052 C 
HETATM    2  C2  UNL     1      19.094  -0.195  52.265  1.00  0.00    -0.011 C 
HETATM    3  C3  UNL     1      19.285  -0.684  53.483  1.00  0.00     0.143 C 
HETATM    4  O1  UNL     1      20.434  -0.652  54.251  1.00  0.00    -0.360 OA
HETATM    5  C4  UNL     1      21.626   0.091  54.317  1.00  0.00     0.206 C 
HETATM    6  C5  UNL     1      22.403   0.221  53.044  1.00  0.00     0.173 C 
HETATM    7  C7  UNL     1      21.522   0.622  51.918  1.00  0.00     0.021 C 
HETATM    8  C8  UNL     1      22.468   1.342  51.366  1.00  0.00     0.025 C 
HETATM    9  C9  UNL     1      22.945   1.744  49.927  1.00  0.00     0.100 C 
HETATM   10  C10 UNL     1      22.098   2.996  50.374  1.00  0.00    -0.004 C 
HETATM   11  C11 UNL     1      22.869   3.553  51.375  1.00  0.00     0.042 C 
HETATM   12  N3  UNL     1      23.214   2.311  52.219  1.00  0.00    -0.358 N 
HETATM   13  C20 UNL     1      20.732   3.474  50.211  1.00  0.00     0.071 C 
HETATM   14  C21 UNL     1      20.617   4.851  50.307  1.00  0.00     0.101 C 
HETATM   15  N4  UNL     1      20.505   5.933  50.385  1.00  0.00    -0.191 NA
HETATM   16  C22 UNL     1      19.634   2.597  50.093  1.00  0.00     0.140 C 
HETATM   17  N5  UNL     1      19.450   1.105  50.396  1.00  0.00    -0.258 NA
HETATM   18  C23 UNL     1      20.063   0.514  51.468  1.00  0.00     0.074 C 
HETATM   19  H17 UNL     1      23.675   2.051  53.062  1.00  0.00     0.166 HD
ENDROOT
BRANCH  11  20
HETATM   20  C12 UNL     1      23.088   4.877  51.466  1.00  0.00     0.051 C 
HETATM   21  C13 UNL     1      24.109   5.546  51.024  1.00  0.00     0.038 C 
HETATM   22 CL1  UNL     1      25.283   4.517  50.228  1.00  0.00    -0.087 Cl
BRANCH  21  23
HETATM   23  C14 UNL     1      24.635   6.920  50.976  1.00  0.00     0.227 C 
BRANCH  23  24
HETATM   24  O3  UNL     1      25.164   7.272  49.730  1.00  0.00    -0.346 OA
BRANCH  24  25
HETATM   25  C15 UNL     1      26.363   7.930  49.629  1.00  0.00     0.071 A 
HETATM   26  C16 UNL     1      26.971   9.028  50.193  1.00  0.00     0.056 A 
HETATM   27  C17 UNL     1      28.243   9.405  49.826  1.00  0.00     0.119 A 
HETATM   28  N2  UNL     1      28.950   8.724  48.903  1.00  0.00    -0.273 NA
HETATM   29  C18 UNL     1      28.403   7.626  48.308  1.00  0.00     0.119 A 
HETATM   30  C19 UNL     1      27.110   7.229  48.671  1.00  0.00     0.056 A 
ENDBRANCH  24  25
ENDBRANCH  23  24
ENDBRANCH  21  23
ENDBRANCH  11  20
BRANCH   6  31
HETATM   31  N1  UNL     1      23.737  -0.074  52.858  1.00  0.00    -0.235 NA
BRANCH  31  32
HETATM   32  C6  UNL     1      24.475  -0.554  53.728  1.00  0.00     0.332 C 
HETATM   33  O2  UNL     1      25.420  -1.015  54.373  1.00  0.00    -0.260 OA
ENDBRANCH  31  32
ENDBRANCH   6  31
TORSDOF 6
ENDMDL
MODEL 7
REMARK VINA RESULT:      -7.4      4.449      6.723
REMARK  6 active torsions:
REMARK  status: ('A' for Active; 'I' for Inactive)
REMARK    1  A    between atoms: C5_6  and  N1_7 
REMARK    2  A    between atoms: N1_7  and  C6_8 
REMARK    3  A    between atoms: C11_14  and  C12_15 
REMARK    4  A    between atoms: C13_16  and  C14_18 
REMARK    5  A    between atoms: C14_18  and  O3_19 
REMARK    6  A    between atoms: O3_19  and  C15_20 
ROOT
HETATM    1  C1  UNL     1      25.593   6.409  48.487  1.00  0.00     0.052 C 
HETATM    2  C2  UNL     1      25.814   5.201  49.320  1.00  0.00    -0.011 C 
HETATM    3  C3  UNL     1      26.896   4.437  49.385  1.00  0.00     0.143 C 
HETATM    4  O1  UNL     1      27.109   3.311  50.159  1.00  0.00    -0.360 OA
HETATM    5  C4  UNL     1      26.339   2.350  50.837  1.00  0.00     0.206 C 
HETATM    6  C5  UNL     1      25.297   2.871  51.777  1.00  0.00     0.173 C 
HETATM    7  C7  UNL     1      24.479   3.931  51.135  1.00  0.00     0.021 C 
HETATM    8  C8  UNL     1      23.397   3.555  51.772  1.00  0.00     0.025 C 
HETATM    9  C9  UNL     1      22.108   4.211  52.377  1.00  0.00     0.100 C 
HETATM   10  C10 UNL     1      21.604   3.680  50.981  1.00  0.00    -0.004 C 
HETATM   11  C11 UNL     1      21.639   2.309  51.138  1.00  0.00     0.042 C 
HETATM   12  N3  UNL     1      23.032   2.110  51.764  1.00  0.00    -0.358 N 
HETATM   13  C20 UNL     1      21.421   4.215  49.638  1.00  0.00     0.071 C 
HETATM   14  C21 UNL     1      20.457   3.542  48.906  1.00  0.00     0.101 C 
HETATM   15  N4  UNL     1      19.704   3.022  48.313  1.00  0.00    -0.191 NA
HETATM   16  C22 UNL     1      22.241   5.235  49.113  1.00  0.00     0.140 C 
HETATM   17  N5  UNL     1      23.600   5.806  49.536  1.00  0.00    -0.258 NA
HETATM   18  C23 UNL     1      24.585   5.002  50.046  1.00  0.00     0.074 C 
HETATM   19  H17 UNL     1      23.655   1.390  52.056  1.00  0.00     0.166 HD
ENDROOT
BRANCH  11  20
HETATM   20  C12 UNL     1      20.643   1.508  50.718  1.00  0.00     0.051 C 
HETATM   21  C13 UNL     1      19.784   0.861  51.444  1.00  0.00     0.038 C 
HETATM   22 CL1  UNL     1      20.029   1.126  53.159  1.00  0.00    -0.087 Cl
BRANCH  21  23
HETATM   23  C14 UNL     1      18.644  -0.061  51.308  1.00  0.00     0.227 C 
BRANCH  23  24
HETATM   24  O3  UNL     1      17.946  -0.267  52.502  1.00  0.00    -0.346 OA
BRANCH  24  25
HETATM   25  C15 UNL     1      17.478  -1.509  52.845  1.00  0.00     0.071 A 
HETATM   26  C16 UNL     1      17.931  -2.613  53.532  1.00  0.00     0.056 A 
HETATM   27  C17 UNL     1      17.145  -3.733  53.678  1.00  0.00     0.119 A 
HETATM   28  N2  UNL     1      15.902  -3.805  53.159  1.00  0.00    -0.273 NA
HETATM   29  C18 UNL     1      15.396  -2.745  52.467  1.00  0.00     0.119 A 
HETATM   30  C19 UNL     1      16.184  -1.597  52.310  1.00  0.00     0.056 A 
ENDBRANCH  24  25
ENDBRANCH  23  24
ENDBRANCH  21  23
ENDBRANCH  11  20
BRANCH   6  31
HETATM   31  N1  UNL     1      25.132   2.524  53.101  1.00  0.00    -0.235 NA
BRANCH  31  32
HETATM   32  C6  UNL     1      26.026   2.052  53.817  1.00  0.00     0.332 C 
HETATM   33  O2  UNL     1      26.687   1.410  54.636  1.00  0.00    -0.260 OA
ENDBRANCH  31  32
ENDBRANCH   6  31
TORSDOF 6
ENDMDL
MODEL 8
REMARK VINA RESULT:      -7.3      3.132      4.597
REMARK  6 active torsions:
REMARK  status: ('A' for Active; 'I' for Inactive)
REMARK    1  A    between atoms: C5_6  and  N1_7 
REMARK    2  A    between atoms: N1_7  and  C6_8 
REMARK    3  A    between atoms: C11_14  and  C12_15 
REMARK    4  A    between atoms: C13_16  and  C14_18 
REMARK    5  A    between atoms: C14_18  and  O3_19 
REMARK    6  A    between atoms: O3_19  and  C15_20 
ROOT
HETATM    1  C1  UNL     1      19.599   5.495  47.381  1.00  0.00     0.052 C 
HETATM    2  C2  UNL     1      19.136   4.837  48.628  1.00  0.00    -0.011 C 
HETATM    3  C3  UNL     1      18.165   5.221  49.445  1.00  0.00     0.143 C 
HETATM    4  O1  UNL     1      17.729   4.614  50.608  1.00  0.00    -0.360 OA
HETATM    5  C4  UNL     1      18.219   3.698  51.555  1.00  0.00     0.206 C 
HETATM    6  C5  UNL     1      18.768   2.412  51.019  1.00  0.00     0.173 C 
HETATM    7  C7  UNL     1      19.709   2.658  49.897  1.00  0.00     0.021 C 
HETATM    8  C8  UNL     1      20.467   1.646  50.243  1.00  0.00     0.025 C 
HETATM    9  C9  UNL     1      21.367   0.566  49.548  1.00  0.00     0.100 C 
HETATM   10  C10 UNL     1      22.416   1.652  50.002  1.00  0.00    -0.004 C 
HETATM   11  C11 UNL     1      22.403   1.541  51.378  1.00  0.00     0.042 C 
HETATM   12  N3  UNL     1      20.890   1.528  51.667  1.00  0.00    -0.358 N 
HETATM   13  C20 UNL     1      23.088   2.801  49.410  1.00  0.00     0.071 C 
HETATM   14  C21 UNL     1      24.302   3.095  50.008  1.00  0.00     0.101 C 
HETATM   15  N4  UNL     1      25.258   3.346  50.469  1.00  0.00    -0.191 NA
HETATM   16  C22 UNL     1      22.486   3.596  48.413  1.00  0.00     0.140 C 
HETATM   17  N5  UNL     1      21.040   3.744  47.925  1.00  0.00    -0.258 NA
HETATM   18  C23 UNL     1      19.983   3.683  48.794  1.00  0.00     0.074 C 
HETATM   19  H17 UNL     1      20.246   1.520  52.427  1.00  0.00     0.166 HD
ENDROOT
BRANCH  11  20
HETATM   20  C12 UNL     1      23.529   1.539  52.114  1.00  0.00     0.051 C 
HETATM   21  C13 UNL     1      23.970   0.596  52.889  1.00  0.00     0.038 C 
HETATM   22 CL1  UNL     1      22.907  -0.797  52.912  1.00  0.00    -0.087 Cl
BRANCH  21  23
HETATM   23  C14 UNL     1      25.093   0.299  53.794  1.00  0.00     0.227 C 
BRANCH  23  24
HETATM   24  O3  UNL     1      26.340   0.654  53.272  1.00  0.00    -0.346 OA
BRANCH  24  25
HETATM   25  C15 UNL     1      27.410  -0.201  53.346  1.00  0.00     0.071 A 
HETATM   26  C16 UNL     1      28.728  -0.150  53.740  1.00  0.00     0.056 A 
HETATM   27  C17 UNL     1      29.537  -1.261  53.667  1.00  0.00     0.119 A 
HETATM   28  N2  UNL     1      29.083  -2.445  53.209  1.00  0.00    -0.273 NA
HETATM   29  C18 UNL     1      27.786  -2.560  52.804  1.00  0.00     0.119 A 
HETATM   30  C19 UNL     1      26.950  -1.439  52.872  1.00  0.00     0.056 A 
ENDBRANCH  24  25
ENDBRANCH  23  24
ENDBRANCH  21  23
ENDBRANCH  11  20
BRANCH   6  31
HETATM   31  N1  UNL     1      18.410   1.138  51.406  1.00  0.00    -0.235 NA
BRANCH  31  32
HETATM   32  C6  UNL     1      17.245   0.766  51.597  1.00  0.00     0.332 C 
HETATM   33  O2  UNL     1      16.115   0.557  52.045  1.00  0.00    -0.260 OA
ENDBRANCH  31  32
ENDBRANCH   6  31
TORSDOF 6
ENDMDL
MODEL 9
REMARK VINA RESULT:      -7.2      2.806      8.279
REMARK  6 active torsions:
REMARK  status: ('A' for Active; 'I' for Inactive)
REMARK    1  A    between atoms: C5_6  and  N1_7 
REMARK    2  A    between atoms: N1_7  and  C6_8 
REMARK    3  A    between atoms: C11_14  and  C12_15 
REMARK    4  A    between atoms: C13_16  and  C14_18 
REMARK    5  A    between atoms: C14_18  and  O3_19 
REMARK    6  A    between atoms: O3_19  and  C15_20 
ROOT
HETATM    1  C1  UNL     1      19.885   0.600  51.801  1.00  0.00     0.052 C 
HETATM    2  C2  UNL     1      21.301   0.709  52.231  1.00  0.00    -0.011 C 
HETATM    3  C3  UNL     1      21.882   0.152  53.286  1.00  0.00     0.143 C 
HETATM    4  O1  UNL     1      23.199   0.248  53.692  1.00  0.00    -0.360 OA
HETATM    5  C4  UNL     1      24.294   1.108  53.491  1.00  0.00     0.206 C 
HETATM    6  C5  UNL     1      24.648   1.417  52.070  1.00  0.00     0.173 C 
HETATM    7  C7  UNL     1      23.445   1.805  51.291  1.00  0.00     0.021 C 
HETATM    8  C8  UNL     1      24.126   2.662  50.569  1.00  0.00     0.025 C 
HETATM    9  C9  UNL     1      24.124   3.221  49.104  1.00  0.00     0.100 C 
HETATM   10  C10 UNL     1      23.349   4.338  49.902  1.00  0.00    -0.004 C 
HETATM   11  C11 UNL     1      24.333   4.896  50.692  1.00  0.00     0.042 C 
HETATM   12  N3  UNL     1      25.010   3.638  51.269  1.00  0.00    -0.358 N 
HETATM   13  C20 UNL     1      21.961   4.678  50.187  1.00  0.00     0.071 C 
HETATM   14  C21 UNL     1      21.769   6.023  50.454  1.00  0.00     0.101 C 
HETATM   15  N4  UNL     1      21.599   7.078  50.672  1.00  0.00    -0.191 NA
HETATM   16  C22 UNL     1      20.951   3.700  50.298  1.00  0.00     0.140 C 
HETATM   17  N5  UNL     1      20.985   2.177  50.484  1.00  0.00    -0.258 NA
HETATM   18  C23 UNL     1      21.932   1.575  51.269  1.00  0.00     0.074 C 
HETATM   19  H17 UNL     1      25.718   3.365  51.913  1.00  0.00     0.166 HD
ENDROOT
BRANCH  11  20
HETATM   20  C12 UNL     1      24.462   6.225  50.854  1.00  0.00     0.051 C 
HETATM   21  C13 UNL     1      25.262   7.028  50.222  1.00  0.00     0.038 C 
HETATM   22 CL1  UNL     1      26.245   6.191  49.037  1.00  0.00    -0.087 Cl
BRANCH  21  23
HETATM   23  C14 UNL     1      25.642   8.450  50.172  1.00  0.00     0.227 C 
BRANCH  23  24
HETATM   24  O3  UNL     1      26.978   8.683  50.512  1.00  0.00    -0.346 OA
BRANCH  24  25
HETATM   25  C15 UNL     1      27.805   9.400  49.686  1.00  0.00     0.071 A 
HETATM   26  C16 UNL     1      29.151   9.469  49.405  1.00  0.00     0.056 A 
HETATM   27  C17 UNL     1      29.640  10.355  48.472  1.00  0.00     0.119 A 
HETATM   28  N2  UNL     1      28.832  11.193  47.792  1.00  0.00    -0.273 NA
HETATM   29  C18 UNL     1      27.488  11.172  48.025  1.00  0.00     0.119 A 
HETATM   30  C19 UNL     1      26.975  10.276  48.971  1.00  0.00     0.056 A 
ENDBRANCH  24  25
ENDBRANCH  23  24
ENDBRANCH  21  23
ENDBRANCH  11  20
BRANCH   6  31
HETATM   31  N1  UNL     1      25.887   1.281  51.480  1.00  0.00    -0.235 NA
BRANCH  31  32
HETATM   32  C6  UNL     1      26.845   0.687  51.994  1.00  0.00     0.332 C 
HETATM   33  O2  UNL     1      27.627   0.115  52.757  1.00  0.00    -0.260 OA
ENDBRANCH  31  32
ENDBRANCH   6  31
TORSDOF 6
ENDMDL
