MODEL 1
REMARK VINA RESULT:      -9.6      0.000      0.000
REMARK  2 active torsions:
REMARK  status: ('A' for Active; 'I' for Inactive)
REMARK    1  A    between atoms: N1_1  and  C1_2 
REMARK    2  A    between atoms: N2_8  and  C6_9 
ROOT
HETATM    1  C6  UNL     1      26.251   1.524  52.396  1.00  0.00     0.127 C 
HETATM    2  C7  UNL     1      26.745   2.501  51.381  1.00  0.00     0.115 C 
HETATM    3  N3  UNL     1      25.900   3.355  50.837  1.00  0.00    -0.270 NA
HETATM    4  C8  UNL     1      24.550   3.221  51.324  1.00  0.00     0.035 C 
HETATM    5  C9  UNL     1      23.455   3.628  50.723  1.00  0.00     0.054 A 
HETATM    6  C10 UNL     1      22.919   4.703  51.201  1.00  0.00    -0.011 A 
HETATM    7  O1  UNL     1      22.111   3.583  51.224  1.00  0.00     0.000 OA
HETATM    8  C11 UNL     1      20.961   3.596  52.049  1.00  0.00     0.013 C 
HETATM    9  C12 UNL     1      20.187   2.310  52.151  1.00  0.00    -0.009 C 
HETATM   10  C13 UNL     1      18.936   2.089  51.855  1.00  0.00    -0.004 C 
HETATM   11  C14 UNL     1      19.272   0.708  52.277  1.00  0.00    -0.004 C 
HETATM   12  C15 UNL     1      20.244  -0.056  52.689  1.00  0.00    -0.023 C 
HETATM   13  C16 UNL     1      21.596  -0.581  53.121  1.00  0.00     0.054 C 
HETATM   14  C17 UNL     1      22.515   0.565  52.885  1.00  0.00    -0.026 C 
HETATM   15  C18 UNL     1      23.522   1.223  52.326  1.00  0.00    -0.020 C 
HETATM   16  C19 UNL     1      24.040   2.624  52.563  1.00  0.00     0.059 C 
HETATM   17  C20 UNL     1      25.365   2.307  53.319  1.00  0.00     0.045 C 
ENDROOT
BRANCH   1  18
HETATM   18  N2  UNL     1      27.290   0.767  52.880  1.00  0.00    -0.358 N 
HETATM   19  C1  UNL     1      27.586  -0.607  52.906  1.00  0.00     0.098 C 
HETATM   20  C2  UNL     1      28.719  -1.180  53.255  1.00  0.00     0.071 C 
HETATM   21 CL1  UNL     1      28.721  -2.925  53.093  1.00  0.00    -0.081 Cl
HETATM   22  C3  UNL     1      29.799  -0.362  53.762  1.00  0.00     0.025 C 
HETATM   23  C4  UNL     1      29.537   0.959  53.841  1.00  0.00    -0.005 C 
HETATM   24  C5  UNL     1      28.302   1.651  53.485  1.00  0.00     0.152 C 
BRANCH  19  25
HETATM   25  N1  UNL     1      26.550  -1.433  52.468  1.00  0.00    -0.287 NA
HETATM   26  H1  UNL     1      25.640  -1.840  52.188  1.00  0.00     0.125 HD
HETATM   27  H2  UNL     1      25.650  -1.893  52.176  1.00  0.00     0.125 HD
ENDBRANCH  19  25
ENDBRANCH   1  18
TORSDOF 2
ENDMDL
MODEL 2
REMARK VINA RESULT:      -9.3      1.640      2.246
REMARK  2 active torsions:
REMARK  status: ('A' for Active; 'I' for Inactive)
REMARK    1  A    between atoms: N1_1  and  C1_2 
REMARK    2  A    between atoms: N2_8  and  C6_9 
ROOT
HETATM    1  C6  UNL     1      25.857   1.215  52.475  1.00  0.00     0.127 C 
HETATM    2  C7  UNL     1      25.998   1.977  51.200  1.00  0.00     0.115 C 
HETATM    3  N3  UNL     1      24.919   2.429  50.591  1.00  0.00    -0.270 NA
HETATM    4  C8  UNL     1      23.692   2.112  51.279  1.00  0.00     0.035 C 
HETATM    5  C9  UNL     1      22.488   2.072  50.756  1.00  0.00     0.054 A 
HETATM    6  C10 UNL     1      21.721   3.075  51.036  1.00  0.00    -0.011 A 
HETATM    7  O1  UNL     1      21.245   1.841  51.435  1.00  0.00     0.000 OA
HETATM    8  C11 UNL     1      20.196   1.798  52.385  1.00  0.00     0.013 C 
HETATM    9  C12 UNL     1      19.802   0.439  52.895  1.00  0.00    -0.009 C 
HETATM   10  C13 UNL     1      18.636  -0.145  52.836  1.00  0.00    -0.004 C 
HETATM   11  C14 UNL     1      19.358  -1.243  53.523  1.00  0.00    -0.004 C 
HETATM   12  C15 UNL     1      20.526  -1.616  53.965  1.00  0.00    -0.023 C 
HETATM   13  C16 UNL     1      21.996  -1.670  54.318  1.00  0.00     0.054 C 
HETATM   14  C17 UNL     1      22.558  -0.442  53.692  1.00  0.00    -0.026 C 
HETATM   15  C18 UNL     1      23.309   0.264  52.858  1.00  0.00    -0.020 C 
HETATM   16  C19 UNL     1      23.452   1.760  52.682  1.00  0.00     0.059 C 
HETATM   17  C20 UNL     1      24.865   1.980  53.301  1.00  0.00     0.045 C 
ENDROOT
BRANCH   1  18
HETATM   18  N2  UNL     1      27.093   0.884  52.976  1.00  0.00    -0.358 N 
HETATM   19  C1  UNL     1      28.082   1.567  53.705  1.00  0.00     0.098 C 
HETATM   20  C2  UNL     1      29.156   1.062  54.274  1.00  0.00     0.071 C 
HETATM   21 CL1  UNL     1      30.122   2.232  55.152  1.00  0.00    -0.081 Cl
HETATM   22  C3  UNL     1      29.457  -0.342  54.096  1.00  0.00     0.025 C 
HETATM   23  C4  UNL     1      28.584  -1.029  53.331  1.00  0.00    -0.005 C 
HETATM   24  C5  UNL     1      27.388  -0.526  52.663  1.00  0.00     0.152 C 
BRANCH  19  25
HETATM   25  N1  UNL     1      27.850   2.935  53.857  1.00  0.00    -0.287 NA
HETATM   26  H1  UNL     1      27.929   3.964  53.936  1.00  0.00     0.125 HD
HETATM   27  H2  UNL     1      27.879   3.983  53.949  1.00  0.00     0.125 HD
ENDBRANCH  19  25
ENDBRANCH   1  18
TORSDOF 2
ENDMDL
MODEL 3
REMARK VINA RESULT:      -9.0      3.319      5.808
REMARK  2 active torsions:
REMARK  status: ('A' for Active; 'I' for Inactive)
REMARK    1  A    between atoms: N1_1  and  C1_2 
REMARK    2  A    between atoms: N2_8  and  C6_9 
ROOT
HETATM    1  C6  UNL     1      25.051   2.973  51.662  1.00  0.00     0.127 C 
HETATM    2  C7  UNL     1      23.882   3.356  52.507  1.00  0.00     0.115 C 
HETATM    3  N3  UNL     1      23.113   4.360  52.133  1.00  0.00    -0.270 NA
HETATM    4  C8  UNL     1      23.526   4.976  50.898  1.00  0.00     0.035 C 
HETATM    5  C9  UNL     1      23.226   6.187  50.486  1.00  0.00     0.054 A 
HETATM    6  C10 UNL     1      22.325   6.258  49.562  1.00  0.00    -0.011 A 
HETATM    7  O1  UNL     1      23.554   6.791  49.226  1.00  0.00     0.000 OA
HETATM    8  C11 UNL     1      23.836   7.031  47.860  1.00  0.00     0.013 C 
HETATM    9  C12 UNL     1      25.232   7.480  47.527  1.00  0.00    -0.009 C 
HETATM   10  C13 UNL     1      25.612   8.574  46.924  1.00  0.00    -0.004 C 
HETATM   11  C14 UNL     1      26.964   8.006  47.145  1.00  0.00    -0.004 C 
HETATM   12  C15 UNL     1      27.608   7.006  47.680  1.00  0.00    -0.023 C 
HETATM   13  C16 UNL     1      27.959   5.729  48.410  1.00  0.00     0.054 C 
HETATM   14  C17 UNL     1      26.659   5.266  48.965  1.00  0.00    -0.026 C 
HETATM   15  C18 UNL     1      25.779   4.958  49.909  1.00  0.00    -0.020 C 
HETATM   16  C19 UNL     1      24.356   4.455  49.807  1.00  0.00     0.059 C 
HETATM   17  C20 UNL     1      24.551   2.974  50.248  1.00  0.00     0.045 C 
ENDROOT
BRANCH   1  18
HETATM   18  N2  UNL     1      25.687   1.876  52.190  1.00  0.00    -0.358 N 
HETATM   19  C1  UNL     1      26.995   1.604  52.627  1.00  0.00     0.098 C 
HETATM   20  C2  UNL     1      27.422   0.544  53.280  1.00  0.00     0.071 C 
HETATM   21 CL1  UNL     1      29.121   0.600  53.708  1.00  0.00    -0.081 Cl
HETATM   22  C3  UNL     1      26.506  -0.545  53.538  1.00  0.00     0.025 C 
HETATM   23  C4  UNL     1      25.254  -0.374  53.062  1.00  0.00    -0.005 C 
HETATM   24  C5  UNL     1      24.726   0.766  52.321  1.00  0.00     0.152 C 
BRANCH  19  25
HETATM   25  N1  UNL     1      27.920   2.613  52.354  1.00  0.00    -0.287 NA
HETATM   26  H1  UNL     1      28.619   3.375  52.404  1.00  0.00     0.125 HD
HETATM   27  H2  UNL     1      28.629   3.391  52.352  1.00  0.00     0.125 HD
ENDBRANCH  19  25
ENDBRANCH   1  18
TORSDOF 2
ENDMDL
MODEL 4
REMARK VINA RESULT:      -8.8      3.528      6.331
REMARK  2 active torsions:
REMARK  status: ('A' for Active; 'I' for Inactive)
REMARK    1  A    between atoms: N1_1  and  C1_2 
REMARK    2  A    between atoms: N2_8  and  C6_9 
ROOT
HETATM    1  C6  UNL     1      24.210   3.355  51.320  1.00  0.00     0.127 C 
HETATM    2  C7  UNL     1      23.132   4.077  52.058  1.00  0.00     0.115 C 
HETATM    3  N3  UNL     1      22.768   5.280  51.661  1.00  0.00    -0.270 NA
HETATM    4  C8  UNL     1      23.495   5.754  50.510  1.00  0.00     0.035 C 
HETATM    5  C9  UNL     1      23.643   7.005  50.136  1.00  0.00     0.054 A 
HETATM    6  C10 UNL     1      22.925   7.377  49.128  1.00  0.00    -0.011 A 
HETATM    7  O1  UNL     1      24.290   7.495  48.953  1.00  0.00     0.000 OA
HETATM    8  C11 UNL     1      24.791   7.657  47.638  1.00  0.00     0.013 C 
HETATM    9  C12 UNL     1      26.286   7.642  47.478  1.00  0.00    -0.009 C 
HETATM   10  C13 UNL     1      27.060   8.567  46.980  1.00  0.00    -0.004 C 
HETATM   11  C14 UNL     1      28.128   7.593  47.310  1.00  0.00    -0.004 C 
HETATM   12  C15 UNL     1      28.356   6.430  47.853  1.00  0.00    -0.023 C 
HETATM   13  C16 UNL     1      28.198   5.094  48.546  1.00  0.00     0.054 C 
HETATM   14  C17 UNL     1      26.762   5.062  48.936  1.00  0.00    -0.026 C 
HETATM   15  C18 UNL     1      25.726   5.035  49.764  1.00  0.00    -0.020 C 
HETATM   16  C19 UNL     1      24.240   5.016  49.486  1.00  0.00     0.059 C 
HETATM   17  C20 UNL     1      23.904   3.542  49.863  1.00  0.00     0.045 C 
ENDROOT
BRANCH   1  18
HETATM   18  N2  UNL     1      24.401   2.103  51.851  1.00  0.00    -0.358 N 
HETATM   19  C1  UNL     1      25.499   1.234  51.970  1.00  0.00     0.098 C 
HETATM   20  C2  UNL     1      25.574   0.121  52.669  1.00  0.00     0.071 C 
HETATM   21 CL1  UNL     1      27.145  -0.656  52.618  1.00  0.00    -0.081 Cl
HETATM   22  C3  UNL     1      24.395  -0.367  53.350  1.00  0.00     0.025 C 
HETATM   23  C4  UNL     1      23.285   0.385  53.197  1.00  0.00    -0.005 C 
HETATM   24  C5  UNL     1      23.135   1.615  52.428  1.00  0.00     0.152 C 
BRANCH  19  25
HETATM   25  N1  UNL     1      26.643   1.648  51.287  1.00  0.00    -0.287 NA
HETATM   26  H1  UNL     1      27.609   1.882  50.993  1.00  0.00     0.125 HD
HETATM   27  H2  UNL     1      27.605   1.905  50.943  1.00  0.00     0.125 HD
ENDBRANCH  19  25
ENDBRANCH   1  18
TORSDOF 2
ENDMDL
MODEL 5
REMARK VINA RESULT:      -8.8      3.199      5.647
REMARK  2 active torsions:
REMARK  status: ('A' for Active; 'I' for Inactive)
REMARK    1  A    between atoms: N1_1  and  C1_2 
REMARK    2  A    between atoms: N2_8  and  C6_9 
ROOT
HETATM    1  C6  UNL     1      24.100   3.553  49.922  1.00  0.00     0.127 C 
HETATM    2  C7  UNL     1      23.106   3.173  48.875  1.00  0.00     0.115 C 
HETATM    3  N3  UNL     1      22.184   2.272  49.154  1.00  0.00    -0.270 NA
HETATM    4  C8  UNL     1      22.267   1.756  50.497  1.00  0.00     0.035 C 
HETATM    5  C9  UNL     1      21.774   0.618  50.933  1.00  0.00     0.054 A 
HETATM    6  C10 UNL     1      20.696   0.708  51.639  1.00  0.00    -0.011 A 
HETATM    7  O1  UNL     1      21.771   0.123  52.279  1.00  0.00     0.000 OA
HETATM    8  C11 UNL     1      21.734   0.003  53.689  1.00  0.00     0.013 C 
HETATM    9  C12 UNL     1      22.980  -0.512  54.356  1.00  0.00    -0.009 C 
HETATM   10  C13 UNL     1      23.119  -1.564  55.116  1.00  0.00    -0.004 C 
HETATM   11  C14 UNL     1      24.535  -1.123  55.150  1.00  0.00    -0.004 C 
HETATM   12  C15 UNL     1      25.368  -0.233  54.688  1.00  0.00    -0.023 C 
HETATM   13  C16 UNL     1      25.985   0.934  53.949  1.00  0.00     0.054 C 
HETATM   14  C17 UNL     1      24.880   1.433  53.086  1.00  0.00    -0.026 C 
HETATM   15  C18 UNL     1      24.252   1.708  51.950  1.00  0.00    -0.020 C 
HETATM   16  C19 UNL     1      22.893   2.322  51.696  1.00  0.00     0.059 C 
HETATM   17  C20 UNL     1      23.315   3.732  51.187  1.00  0.00     0.045 C 
ENDROOT
BRANCH   1  18
HETATM   18  N2  UNL     1      24.934   4.541  49.456  1.00  0.00    -0.358 N 
HETATM   19  C1  UNL     1      26.322   4.659  49.271  1.00  0.00     0.098 C 
HETATM   20  C2  UNL     1      26.972   5.617  48.643  1.00  0.00     0.071 C 
HETATM   21 CL1  UNL     1      28.707   5.378  48.567  1.00  0.00    -0.081 Cl
HETATM   22  C3  UNL     1      26.237   6.754  48.134  1.00  0.00     0.025 C 
HETATM   23  C4  UNL     1      24.907   6.734  48.362  1.00  0.00    -0.005 C 
HETATM   24  C5  UNL     1      24.133   5.713  49.061  1.00  0.00     0.152 C 
BRANCH  19  25
HETATM   25  N1  UNL     1      27.070   3.602  49.791  1.00  0.00    -0.287 NA
HETATM   26  H1  UNL     1      27.414   2.775  50.311  1.00  0.00     0.125 HD
HETATM   27  H2  UNL     1      27.467   2.769  50.297  1.00  0.00     0.125 HD
ENDBRANCH  19  25
ENDBRANCH   1  18
TORSDOF 2
ENDMDL
MODEL 6
REMARK VINA RESULT:      -8.7      3.747      6.106
REMARK  2 active torsions:
REMARK  status: ('A' for Active; 'I' for Inactive)
REMARK    1  A    between atoms: N1_1  and  C1_2 
REMARK    2  A    between atoms: N2_8  and  C6_9 
ROOT
HETATM    1  C6  UNL     1      25.046   5.192  49.174  1.00  0.00     0.127 C 
HETATM    2  C7  UNL     1      23.766   5.385  48.430  1.00  0.00     0.115 C 
HETATM    3  N3  UNL     1      22.687   4.733  48.816  1.00  0.00    -0.270 NA
HETATM    4  C8  UNL     1      22.903   3.885  49.962  1.00  0.00     0.035 C 
HETATM    5  C9  UNL     1      22.172   2.855  50.325  1.00  0.00     0.054 A 
HETATM    6  C10 UNL     1      21.384   3.054  51.330  1.00  0.00    -0.011 A 
HETATM    7  O1  UNL     1      22.317   2.050  51.503  1.00  0.00     0.000 OA
HETATM    8  C11 UNL     1      22.572   1.585  52.816  1.00  0.00     0.013 C 
HETATM    9  C12 UNL     1      23.691   0.592  52.975  1.00  0.00    -0.009 C 
HETATM   10  C13 UNL     1      23.642  -0.616  53.465  1.00  0.00    -0.004 C 
HETATM   11  C14 UNL     1      25.089  -0.607  53.143  1.00  0.00    -0.004 C 
HETATM   12  C15 UNL     1      26.041   0.107  52.610  1.00  0.00    -0.023 C 
HETATM   13  C16 UNL     1      26.824   1.208  51.930  1.00  0.00     0.054 C 
HETATM   14  C17 UNL     1      25.782   2.197  51.541  1.00  0.00    -0.026 C 
HETATM   15  C18 UNL     1      25.036   2.919  50.714  1.00  0.00    -0.020 C 
HETATM   16  C19 UNL     1      23.944   3.927  50.993  1.00  0.00     0.059 C 
HETATM   17  C20 UNL     1      24.685   5.248  50.628  1.00  0.00     0.045 C 
ENDROOT
BRANCH   1  18
HETATM   18  N2  UNL     1      26.030   5.997  48.654  1.00  0.00    -0.358 N 
HETATM   19  C1  UNL     1      27.429   5.912  48.554  1.00  0.00     0.098 C 
HETATM   20  C2  UNL     1      28.236   6.691  47.864  1.00  0.00     0.071 C 
HETATM   21 CL1  UNL     1      29.924   6.224  47.940  1.00  0.00    -0.081 Cl
HETATM   22  C3  UNL     1      27.692   7.838  47.172  1.00  0.00     0.025 C 
HETATM   23  C4  UNL     1      26.362   8.018  47.306  1.00  0.00    -0.005 C 
HETATM   24  C5  UNL     1      25.419   7.203  48.065  1.00  0.00     0.152 C 
BRANCH  19  25
HETATM   25  N1  UNL     1      27.997   4.843  49.249  1.00  0.00    -0.287 NA
HETATM   26  H1  UNL     1      28.215   3.926  49.678  1.00  0.00     0.125 HD
HETATM   27  H2  UNL     1      28.260   3.933  49.708  1.00  0.00     0.125 HD
ENDBRANCH  19  25
ENDBRANCH   1  18
TORSDOF 2
ENDMDL
MODEL 7
REMARK VINA RESULT:      -8.7      3.370      7.024
REMARK  2 active torsions:
REMARK  status: ('A' for Active; 'I' for Inactive)
REMARK    1  A    between atoms: N1_1  and  C1_2 
REMARK    2  A    between atoms: N2_8  and  C6_9 
ROOT
HETATM    1  C6  UNL     1      20.954   1.407  51.472  1.00  0.00     0.127 C 
HETATM    2  C7  UNL     1      20.604   2.809  51.099  1.00  0.00     0.115 C 
HETATM    3  N3  UNL     1      21.568   3.691  50.914  1.00  0.00    -0.270 NA
HETATM    4  C8  UNL     1      22.890   3.150  51.105  1.00  0.00     0.035 C 
HETATM    5  C9  UNL     1      23.983   3.827  51.375  1.00  0.00     0.054 A 
HETATM    6  C10 UNL     1      24.804   3.983  50.388  1.00  0.00    -0.011 A 
HETATM    7  O1  UNL     1      25.321   3.323  51.486  1.00  0.00     0.000 OA
HETATM    8  C11 UNL     1      26.520   2.586  51.328  1.00  0.00     0.013 C 
HETATM    9  C12 UNL     1      26.973   1.772  52.509  1.00  0.00    -0.009 C 
HETATM   10  C13 UNL     1      28.100   1.847  53.163  1.00  0.00    -0.004 C 
HETATM   11  C14 UNL     1      27.491   0.760  53.968  1.00  0.00    -0.004 C 
HETATM   12  C15 UNL     1      26.413   0.044  54.118  1.00  0.00    -0.023 C 
HETATM   13  C16 UNL     1      25.027  -0.544  53.969  1.00  0.00     0.054 C 
HETATM   14  C17 UNL     1      24.386   0.314  52.935  1.00  0.00    -0.026 C 
HETATM   15  C18 UNL     1      23.512   1.184  52.446  1.00  0.00    -0.020 C 
HETATM   16  C19 UNL     1      23.367   1.765  51.057  1.00  0.00     0.059 C 
HETATM   17  C20 UNL     1      22.089   1.015  50.574  1.00  0.00     0.045 C 
ENDROOT
BRANCH   1  18
HETATM   18  N2  UNL     1      19.820   0.636  51.562  1.00  0.00    -0.358 N 
HETATM   19  C1  UNL     1      19.335  -0.308  52.482  1.00  0.00     0.098 C 
HETATM   20  C2  UNL     1      18.134  -0.845  52.527  1.00  0.00     0.071 C 
HETATM   21 CL1  UNL     1      17.887  -1.943  53.872  1.00  0.00    -0.081 Cl
HETATM   22  C3  UNL     1      17.179  -0.533  51.487  1.00  0.00     0.025 C 
HETATM   23  C4  UNL     1      17.624   0.304  50.526  1.00  0.00    -0.005 C 
HETATM   24  C5  UNL     1      18.942   0.919  50.412  1.00  0.00     0.152 C 
BRANCH  19  25
HETATM   25  N1  UNL     1      20.244  -0.671  53.477  1.00  0.00    -0.287 NA
HETATM   26  H1  UNL     1      20.874  -0.705  54.299  1.00  0.00     0.125 HD
HETATM   27  H2  UNL     1      20.899  -0.754  54.297  1.00  0.00     0.125 HD
ENDBRANCH  19  25
ENDBRANCH   1  18
TORSDOF 2
ENDMDL
MODEL 8
REMARK VINA RESULT:      -8.1      6.692      8.164
REMARK  2 active torsions:
REMARK  status: ('A' for Active; 'I' for Inactive)
REMARK    1  A    between atoms: N1_1  and  C1_2 
REMARK    2  A    between atoms: N2_8  and  C6_9 
ROOT
HETATM    1  C6  UNL     1      30.803   6.698  47.576  1.00  0.00     0.127 C 
HETATM    2  C7  UNL     1      30.885   7.618  46.404  1.00  0.00     0.115 C 
HETATM    3  N3  UNL     1      29.796   8.229  45.981  1.00  0.00    -0.270 NA
HETATM    4  C8  UNL     1      28.619   7.910  46.750  1.00  0.00     0.035 C 
HETATM    5  C9  UNL     1      27.370   8.032  46.360  1.00  0.00     0.054 A 
HETATM    6  C10 UNL     1      26.726   9.040  46.850  1.00  0.00    -0.011 A 
HETATM    7  O1  UNL     1      26.184   7.801  47.134  1.00  0.00     0.000 OA
HETATM    8  C11 UNL     1      25.233   7.703  48.177  1.00  0.00     0.013 C 
HETATM    9  C12 UNL     1      24.773   6.319  48.544  1.00  0.00    -0.009 C 
HETATM   10  C13 UNL     1      23.560   5.837  48.536  1.00  0.00    -0.004 C 
HETATM   11  C14 UNL     1      24.246   4.603  48.990  1.00  0.00    -0.004 C 
HETATM   12  C15 UNL     1      25.414   4.087  49.250  1.00  0.00    -0.023 C 
HETATM   13  C16 UNL     1      26.901   3.876  49.431  1.00  0.00     0.054 C 
HETATM   14  C17 UNL     1      27.505   5.134  48.915  1.00  0.00    -0.026 C 
HETATM   15  C18 UNL     1      28.231   5.893  48.104  1.00  0.00    -0.020 C 
HETATM   16  C19 UNL     1      28.487   7.384  48.112  1.00  0.00     0.059 C 
HETATM   17  C20 UNL     1      29.967   7.410  48.598  1.00  0.00     0.045 C 
ENDROOT
BRANCH   1  18
HETATM   18  N2  UNL     1      32.047   6.209  47.893  1.00  0.00    -0.358 N 
HETATM   19  C1  UNL     1      32.655   4.943  47.848  1.00  0.00     0.098 C 
HETATM   20  C2  UNL     1      33.927   4.653  48.021  1.00  0.00     0.071 C 
HETATM   21 CL1  UNL     1      34.311   2.954  47.825  1.00  0.00    -0.081 Cl
HETATM   22  C3  UNL     1      34.849   5.706  48.385  1.00  0.00     0.025 C 
HETATM   23  C4  UNL     1      34.302   6.931  48.527  1.00  0.00    -0.005 C 
HETATM   24  C5  UNL     1      32.903   7.313  48.364  1.00  0.00     0.152 C 
BRANCH  19  25
HETATM   25  N1  UNL     1      31.787   3.893  47.546  1.00  0.00    -0.287 NA
HETATM   26  H1  UNL     1      31.079   3.137  47.565  1.00  0.00     0.125 HD
HETATM   27  H2  UNL     1      31.079   3.114  47.515  1.00  0.00     0.125 HD
ENDBRANCH  19  25
ENDBRANCH   1  18
TORSDOF 2
ENDMDL
MODEL 9
REMARK VINA RESULT:      -8.0      4.048      5.712
REMARK  2 active torsions:
REMARK  status: ('A' for Active; 'I' for Inactive)
REMARK    1  A    between atoms: N1_1  and  C1_2 
REMARK    2  A    between atoms: N2_8  and  C6_9 
ROOT
HETATM    1  C6  UNL     1      23.345   3.348  49.479  1.00  0.00     0.127 C 
HETATM    2  C7  UNL     1      22.434   3.194  48.307  1.00  0.00     0.115 C 
HETATM    3  N3  UNL     1      21.333   2.479  48.430  1.00  0.00    -0.270 NA
HETATM    4  C8  UNL     1      21.151   1.920  49.747  1.00  0.00     0.035 C 
HETATM    5  C9  UNL     1      20.405   0.887  50.064  1.00  0.00     0.054 A 
HETATM    6  C10 UNL     1      19.283   1.162  50.644  1.00  0.00    -0.011 A 
HETATM    7  O1  UNL     1      20.142   0.365  51.374  1.00  0.00     0.000 OA
HETATM    8  C11 UNL     1      19.909   0.215  52.763  1.00  0.00     0.013 C 
HETATM    9  C12 UNL     1      20.945  -0.547  53.544  1.00  0.00    -0.009 C 
HETATM   10  C13 UNL     1      20.790  -1.626  54.261  1.00  0.00    -0.004 C 
HETATM   11  C14 UNL     1      22.248  -1.465  54.481  1.00  0.00    -0.004 C 
HETATM   12  C15 UNL     1      23.283  -0.739  54.165  1.00  0.00    -0.023 C 
HETATM   13  C16 UNL     1      24.193   0.308  53.562  1.00  0.00     0.054 C 
HETATM   14  C17 UNL     1      23.316   1.032  52.602  1.00  0.00    -0.026 C 
HETATM   15  C18 UNL     1      22.896   1.454  51.416  1.00  0.00    -0.020 C 
HETATM   16  C19 UNL     1      21.718   2.323  51.037  1.00  0.00     0.059 C 
HETATM   17  C20 UNL     1      22.456   3.640  50.652  1.00  0.00     0.045 C 
ENDROOT
BRANCH   1  18
HETATM   18  N2  UNL     1      24.399   4.170  49.164  1.00  0.00    -0.358 N 
HETATM   19  C1  UNL     1      24.523   5.509  48.755  1.00  0.00     0.098 C 
HETATM   20  C2  UNL     1      25.625   6.223  48.656  1.00  0.00     0.071 C 
HETATM   21 CL1  UNL     1      25.363   7.886  48.169  1.00  0.00    -0.081 Cl
HETATM   22  C3  UNL     1      26.902   5.590  48.903  1.00  0.00     0.025 C 
HETATM   23  C4  UNL     1      26.847   4.278  49.216  1.00  0.00    -0.005 C 
HETATM   24  C5  UNL     1      25.664   3.432  49.326  1.00  0.00     0.152 C 
BRANCH  19  25
HETATM   25  N1  UNL     1      23.313   6.141  48.462  1.00  0.00    -0.287 NA
HETATM   26  H1  UNL     1      22.386   6.601  48.496  1.00  0.00     0.125 HD
HETATM   27  H2  UNL     1      22.371   6.610  48.444  1.00  0.00     0.125 HD
ENDBRANCH  19  25
ENDBRANCH   1  18
TORSDOF 2
ENDMDL
