MODEL 1
REMARK VINA RESULT:      -8.4      0.000      0.000
REMARK  2 active torsions:
REMARK  status: ('A' for Active; 'I' for Inactive)
REMARK    1  A    between atoms: C2_2  and  C3_4 
REMARK    2  A    between atoms: N3_10  and  C7_11 
ROOT
HETATM    1  C3  UNL     1      27.613   0.635  53.689  1.00  0.00     0.007 A 
HETATM    2  C4  UNL     1      27.195   1.196  52.565  1.00  0.00     0.018 A 
HETATM    3  C5  UNL     1      25.850   1.254  51.881  1.00  0.00     0.161 A 
HETATM    4  N1  UNL     1      25.559   2.669  51.746  1.00  0.00    -0.272 NA
HETATM    5  C6  UNL     1      24.469   3.245  52.056  1.00  0.00     0.218 C 
HETATM    6  N2  UNL     1      23.374   2.505  52.593  1.00  0.00    -0.291 N 
HETATM    7  N3  UNL     1      23.567   1.130  52.753  1.00  0.00    -0.281 N 
HETATM    8  C13 UNL     1      24.819   0.464  52.601  1.00  0.00     0.159 A 
HETATM    9  C14 UNL     1      25.358  -0.129  53.855  1.00  0.00     0.003 A 
HETATM   10  C15 UNL     1      26.564  -0.096  54.388  1.00  0.00     0.013 A 
HETATM   11  H7  UNL     1      22.576   3.112  52.788  1.00  0.00     0.188 HD
ENDROOT
BRANCH   7  12
HETATM   12  C7  UNL     1      22.398   0.396  53.091  1.00  0.00     0.053 A 
HETATM   13  C8  UNL     1      22.349  -0.481  54.155  1.00  0.00     0.031 A 
HETATM   14  C9  UNL     1      21.247  -1.215  54.537  1.00  0.00     0.004 A 
HETATM   15  C10 UNL     1      20.081  -1.081  53.816  1.00  0.00     0.019 A 
HETATM   16  C11 UNL     1      20.054  -0.227  52.745  1.00  0.00     0.013 A 
HETATM   17 BR1  UNL     1      18.436  -0.052  51.757  1.00  0.00    -0.051 Br
HETATM   18  C12 UNL     1      21.196   0.473  52.424  1.00  0.00     0.050 A 
ENDBRANCH   7  12
BRANCH   1  19
HETATM   19  C2  UNL     1      28.999   0.740  54.125  1.00  0.00     0.155 C 
HETATM   20  C1  UNL     1      29.890  -0.329  53.624  1.00  0.00     0.096 C 
HETATM   21  O1  UNL     1      29.267   1.719  54.868  1.00  0.00    -0.293 OA
ENDBRANCH   1  19
TORSDOF 2
ENDMDL
MODEL 2
REMARK VINA RESULT:      -8.3      2.420      3.314
REMARK  2 active torsions:
REMARK  status: ('A' for Active; 'I' for Inactive)
REMARK    1  A    between atoms: C2_2  and  C3_4 
REMARK    2  A    between atoms: N3_10  and  C7_11 
ROOT
HETATM    1  C3  UNL     1      27.746  -0.778  53.385  1.00  0.00     0.007 A 
HETATM    2  C4  UNL     1      27.122  -0.518  54.522  1.00  0.00     0.018 A 
HETATM    3  C5  UNL     1      25.765   0.064  54.842  1.00  0.00     0.161 A 
HETATM    4  N1  UNL     1      25.106  -0.946  55.651  1.00  0.00    -0.272 NA
HETATM    5  C6  UNL     1      23.927  -1.390  55.483  1.00  0.00     0.218 C 
HETATM    6  N2  UNL     1      23.102  -0.903  54.426  1.00  0.00    -0.291 N 
HETATM    7  N3  UNL     1      23.658   0.077  53.599  1.00  0.00    -0.281 N 
HETATM    8  C13 UNL     1      25.027   0.475  53.621  1.00  0.00     0.159 A 
HETATM    9  C14 UNL     1      25.785   0.144  52.384  1.00  0.00     0.003 A 
HETATM   10  C15 UNL     1      26.974  -0.400  52.208  1.00  0.00     0.013 A 
HETATM   11  H7  UNL     1      22.188  -1.360  54.428  1.00  0.00     0.188 HD
ENDROOT
BRANCH   7  12
HETATM   12  C7  UNL     1      22.747   0.683  52.693  1.00  0.00     0.053 A 
HETATM   13  C8  UNL     1      21.895  -0.047  51.889  1.00  0.00     0.031 A 
HETATM   14  C9  UNL     1      20.987   0.481  50.998  1.00  0.00     0.004 A 
HETATM   15  C10 UNL     1      20.898   1.850  50.877  1.00  0.00     0.019 A 
HETATM   16  C11 UNL     1      21.712   2.641  51.645  1.00  0.00     0.013 A 
HETATM   17 BR1  UNL     1      21.577   4.533  51.469  1.00  0.00    -0.051 Br
HETATM   18  C12 UNL     1      22.595   2.040  52.514  1.00  0.00     0.050 A 
ENDBRANCH   7  12
BRANCH   1  19
HETATM   19  C2  UNL     1      29.082  -1.358  53.363  1.00  0.00     0.155 C 
HETATM   20  C1  UNL     1      30.186  -0.374  53.420  1.00  0.00     0.096 C 
HETATM   21  O1  UNL     1      29.135  -2.613  53.299  1.00  0.00    -0.293 OA
ENDBRANCH   1  19
TORSDOF 2
ENDMDL
MODEL 3
REMARK VINA RESULT:      -8.2      3.079      5.886
REMARK  2 active torsions:
REMARK  status: ('A' for Active; 'I' for Inactive)
REMARK    1  A    between atoms: C2_2  and  C3_4 
REMARK    2  A    between atoms: N3_10  and  C7_11 
ROOT
HETATM    1  C3  UNL     1      23.211  -0.418  53.830  1.00  0.00     0.007 A 
HETATM    2  C4  UNL     1      24.488  -0.708  53.639  1.00  0.00     0.018 A 
HETATM    3  C5  UNL     1      25.576  -0.071  52.807  1.00  0.00     0.161 A 
HETATM    4  N1  UNL     1      26.627   0.256  53.753  1.00  0.00    -0.272 NA
HETATM    5  C6  UNL     1      27.231   1.370  53.848  1.00  0.00     0.218 C 
HETATM    6  N2  UNL     1      26.910   2.457  52.982  1.00  0.00    -0.291 N 
HETATM    7  N3  UNL     1      25.908   2.226  52.035  1.00  0.00    -0.281 N 
HETATM    8  C13 UNL     1      25.072   1.071  52.004  1.00  0.00     0.159 A 
HETATM    9  C14 UNL     1      23.635   1.344  52.276  1.00  0.00     0.003 A 
HETATM   10  C15 UNL     1      22.764   0.734  53.058  1.00  0.00     0.013 A 
HETATM   11  H7  UNL     1      27.484   3.277  53.187  1.00  0.00     0.188 HD
ENDROOT
BRANCH   7  12
HETATM   12  C7  UNL     1      25.758   3.250  51.061  1.00  0.00     0.053 A 
HETATM   13  C8  UNL     1      26.668   3.452  50.043  1.00  0.00     0.031 A 
HETATM   14  C9  UNL     1      26.575   4.421  49.068  1.00  0.00     0.004 A 
HETATM   15  C10 UNL     1      25.494   5.274  49.083  1.00  0.00     0.019 A 
HETATM   16  C11 UNL     1      24.548   5.134  50.065  1.00  0.00     0.013 A 
HETATM   17 BR1  UNL     1      23.059   6.320  50.075  1.00  0.00    -0.051 Br
HETATM   18  C12 UNL     1      24.710   4.141  51.007  1.00  0.00     0.050 A 
ENDBRANCH   7  12
BRANCH   1  19
HETATM   19  C2  UNL     1      22.370  -1.217  54.711  1.00  0.00     0.155 C 
HETATM   20  C1  UNL     1      20.971  -1.379  54.255  1.00  0.00     0.096 C 
HETATM   21  O1  UNL     1      22.930  -1.669  55.743  1.00  0.00    -0.293 OA
ENDBRANCH   1  19
TORSDOF 2
ENDMDL
MODEL 4
REMARK VINA RESULT:      -8.0      3.522      6.489
REMARK  2 active torsions:
REMARK  status: ('A' for Active; 'I' for Inactive)
REMARK    1  A    between atoms: C2_2  and  C3_4 
REMARK    2  A    between atoms: N3_10  and  C7_11 
ROOT
HETATM    1  C3  UNL     1      21.761   0.652  52.679  1.00  0.00     0.007 A 
HETATM    2  C4  UNL     1      22.103   1.907  52.438  1.00  0.00     0.018 A 
HETATM    3  C5  UNL     1      23.418   2.647  52.509  1.00  0.00     0.161 A 
HETATM    4  N1  UNL     1      23.616   3.188  51.177  1.00  0.00    -0.272 NA
HETATM    5  C6  UNL     1      24.678   3.108  50.484  1.00  0.00     0.218 C 
HETATM    6  N2  UNL     1      25.835   2.442  50.987  1.00  0.00    -0.291 N 
HETATM    7  N3  UNL     1      25.733   1.893  52.269  1.00  0.00    -0.281 N 
HETATM    8  C13 UNL     1      24.520   1.789  53.012  1.00  0.00     0.159 A 
HETATM    9  C14 UNL     1      24.063   0.393  53.252  1.00  0.00     0.003 A 
HETATM   10  C15 UNL     1      22.876  -0.170  53.129  1.00  0.00     0.013 A 
HETATM   11  H7  UNL     1      26.601   2.465  50.311  1.00  0.00     0.188 HD
ENDROOT
BRANCH   7  12
HETATM   12  C7  UNL     1      26.956   1.423  52.818  1.00  0.00     0.053 A 
HETATM   13  C8  UNL     1      27.846   2.248  53.475  1.00  0.00     0.031 A 
HETATM   14  C9  UNL     1      29.042   1.852  54.033  1.00  0.00     0.004 A 
HETATM   15  C10 UNL     1      29.406   0.527  53.945  1.00  0.00     0.019 A 
HETATM   16  C11 UNL     1      28.572  -0.353  53.307  1.00  0.00     0.013 A 
HETATM   17 BR1  UNL     1      29.087  -2.183  53.193  1.00  0.00    -0.051 Br
HETATM   18  C12 UNL     1      27.392   0.118  52.773  1.00  0.00     0.050 A 
ENDBRANCH   7  12
BRANCH   1  19
HETATM   19  C2  UNL     1      20.387   0.193  52.523  1.00  0.00     0.155 C 
HETATM   20  C1  UNL     1      19.787   0.466  51.198  1.00  0.00     0.096 C 
HETATM   21  O1  UNL     1      19.881  -0.374  53.526  1.00  0.00    -0.293 OA
ENDBRANCH   1  19
TORSDOF 2
ENDMDL
MODEL 5
REMARK VINA RESULT:      -7.9      2.582      3.991
REMARK  2 active torsions:
REMARK  status: ('A' for Active; 'I' for Inactive)
REMARK    1  A    between atoms: C2_2  and  C3_4 
REMARK    2  A    between atoms: N3_10  and  C7_11 
ROOT
HETATM    1  C3  UNL     1      27.039  -0.641  52.991  1.00  0.00     0.007 A 
HETATM    2  C4  UNL     1      26.039  -0.631  53.857  1.00  0.00     0.018 A 
HETATM    3  C5  UNL     1      24.743   0.142  53.924  1.00  0.00     0.161 A 
HETATM    4  N1  UNL     1      23.705  -0.871  53.969  1.00  0.00    -0.272 NA
HETATM    5  C6  UNL     1      22.655  -0.903  53.252  1.00  0.00     0.218 C 
HETATM    6  N2  UNL     1      22.391   0.116  52.289  1.00  0.00    -0.291 N 
HETATM    7  N3  UNL     1      23.341   1.136  52.183  1.00  0.00    -0.281 N 
HETATM    8  C13 UNL     1      24.617   1.126  52.819  1.00  0.00     0.159 A 
HETATM    9  C14 UNL     1      25.772   1.052  51.883  1.00  0.00     0.003 A 
HETATM   10  C15 UNL     1      26.861   0.307  51.898  1.00  0.00     0.013 A 
HETATM   11  H7  UNL     1      21.511  -0.055  51.799  1.00  0.00     0.188 HD
ENDROOT
BRANCH   7  12
HETATM   12  C7  UNL     1      22.951   2.234  51.370  1.00  0.00     0.053 A 
HETATM   13  C8  UNL     1      22.782   3.510  51.868  1.00  0.00     0.031 A 
HETATM   14  C9  UNL     1      22.413   4.615  51.132  1.00  0.00     0.004 A 
HETATM   15  C10 UNL     1      22.187   4.464  49.782  1.00  0.00     0.019 A 
HETATM   16  C11 UNL     1      22.335   3.225  49.215  1.00  0.00     0.013 A 
HETATM   17 BR1  UNL     1      22.020   3.031  47.347  1.00  0.00    -0.051 Br
HETATM   18  C12 UNL     1      22.707   2.168  50.016  1.00  0.00     0.050 A 
ENDBRANCH   7  12
BRANCH   1  19
HETATM   19  C2  UNL     1      28.195  -1.509  53.170  1.00  0.00     0.155 C 
HETATM   20  C1  UNL     1      29.457  -0.804  53.489  1.00  0.00     0.096 C 
HETATM   21  O1  UNL     1      27.983  -2.741  53.033  1.00  0.00    -0.293 OA
ENDBRANCH   1  19
TORSDOF 2
ENDMDL
MODEL 6
REMARK VINA RESULT:      -7.9      4.282      6.264
REMARK  2 active torsions:
REMARK  status: ('A' for Active; 'I' for Inactive)
REMARK    1  A    between atoms: C2_2  and  C3_4 
REMARK    2  A    between atoms: N3_10  and  C7_11 
ROOT
HETATM    1  C3  UNL     1      25.852   5.450  49.037  1.00  0.00     0.007 A 
HETATM    2  C4  UNL     1      24.651   5.209  49.537  1.00  0.00     0.018 A 
HETATM    3  C5  UNL     1      24.105   4.112  50.420  1.00  0.00     0.161 A 
HETATM    4  N1  UNL     1      23.560   4.798  51.577  1.00  0.00    -0.272 NA
HETATM    5  C6  UNL     1      23.770   4.500  52.795  1.00  0.00     0.218 C 
HETATM    6  N2  UNL     1      24.605   3.399  53.148  1.00  0.00    -0.291 N 
HETATM    7  N3  UNL     1      25.169   2.678  52.092  1.00  0.00    -0.281 N 
HETATM    8  C13 UNL     1      25.123   3.075  50.723  1.00  0.00     0.159 A 
HETATM    9  C14 UNL     1      26.447   3.416  50.136  1.00  0.00     0.003 A 
HETATM   10  C15 UNL     1      26.834   4.433  49.390  1.00  0.00     0.013 A 
HETATM   11  H7  UNL     1      24.671   3.293  54.163  1.00  0.00     0.188 HD
ENDROOT
BRANCH   7  12
HETATM   12  C7  UNL     1      25.821   1.473  52.471  1.00  0.00     0.053 A 
HETATM   13  C8  UNL     1      25.174   0.255  52.514  1.00  0.00     0.031 A 
HETATM   14  C9  UNL     1      25.751  -0.946  52.866  1.00  0.00     0.004 A 
HETATM   15  C10 UNL     1      27.085  -0.964  53.207  1.00  0.00     0.019 A 
HETATM   16  C11 UNL     1      27.794   0.208  53.186  1.00  0.00     0.013 A 
HETATM   17 BR1  UNL     1      29.638   0.169  53.659  1.00  0.00    -0.051 Br
HETATM   18  C12 UNL     1      27.148   1.370  52.824  1.00  0.00     0.050 A 
ENDBRANCH   7  12
BRANCH   1  19
HETATM   19  C2  UNL     1      26.109   6.612  48.197  1.00  0.00     0.155 C 
HETATM   20  C1  UNL     1      27.539   6.955  48.033  1.00  0.00     0.096 C 
HETATM   21  O1  UNL     1      25.094   7.179  47.718  1.00  0.00    -0.293 OA
ENDBRANCH   1  19
TORSDOF 2
ENDMDL
MODEL 7
REMARK VINA RESULT:      -7.9      2.351      3.743
REMARK  2 active torsions:
REMARK  status: ('A' for Active; 'I' for Inactive)
REMARK    1  A    between atoms: C2_2  and  C3_4 
REMARK    2  A    between atoms: N3_10  and  C7_11 
ROOT
HETATM    1  C3  UNL     1      25.892   3.420  50.373  1.00  0.00     0.007 A 
HETATM    2  C4  UNL     1      26.642   2.930  51.346  1.00  0.00     0.018 A 
HETATM    3  C5  UNL     1      26.349   2.012  52.509  1.00  0.00     0.161 A 
HETATM    4  N1  UNL     1      27.258   0.893  52.341  1.00  0.00    -0.272 NA
HETATM    5  C6  UNL     1      26.951  -0.339  52.398  1.00  0.00     0.218 C 
HETATM    6  N2  UNL     1      25.608  -0.751  52.650  1.00  0.00    -0.291 N 
HETATM    7  N3  UNL     1      24.666   0.266  52.829  1.00  0.00    -0.281 N 
HETATM    8  C13 UNL     1      24.912   1.650  52.591  1.00  0.00     0.159 A 
HETATM    9  C14 UNL     1      24.134   2.229  51.463  1.00  0.00     0.003 A 
HETATM   10  C15 UNL     1      24.497   3.010  50.463  1.00  0.00     0.013 A 
HETATM   11  H7  UNL     1      25.529  -1.770  52.665  1.00  0.00     0.188 HD
ENDROOT
BRANCH   7  12
HETATM   12  C7  UNL     1      23.391  -0.172  53.279  1.00  0.00     0.053 A 
HETATM   13  C8  UNL     1      23.220  -0.917  54.428  1.00  0.00     0.031 A 
HETATM   14  C9  UNL     1      22.014  -1.365  54.920  1.00  0.00     0.004 A 
HETATM   15  C10 UNL     1      20.863  -1.058  54.228  1.00  0.00     0.019 A 
HETATM   16  C11 UNL     1      20.954  -0.321  53.077  1.00  0.00     0.013 A 
HETATM   17 BR1  UNL     1      19.355   0.097  52.130  1.00  0.00    -0.051 Br
HETATM   18  C12 UNL     1      22.197   0.092  52.648  1.00  0.00     0.050 A 
ENDBRANCH   7  12
BRANCH   1  19
HETATM   19  C2  UNL     1      26.445   4.302  49.353  1.00  0.00     0.155 C 
HETATM   20  C1  UNL     1      25.562   5.421  48.956  1.00  0.00     0.096 C 
HETATM   21  O1  UNL     1      27.595   4.008  48.938  1.00  0.00    -0.293 OA
ENDBRANCH   1  19
TORSDOF 2
ENDMDL
MODEL 8
REMARK VINA RESULT:      -7.8      3.955      5.323
REMARK  2 active torsions:
REMARK  status: ('A' for Active; 'I' for Inactive)
REMARK    1  A    between atoms: C2_2  and  C3_4 
REMARK    2  A    between atoms: N3_10  and  C7_11 
ROOT
HETATM    1  C3  UNL     1      27.152   5.159  48.840  1.00  0.00     0.007 A 
HETATM    2  C4  UNL     1      26.000   5.803  48.931  1.00  0.00     0.018 A 
HETATM    3  C5  UNL     1      24.655   5.430  49.508  1.00  0.00     0.161 A 
HETATM    4  N1  UNL     1      24.377   6.451  50.501  1.00  0.00    -0.272 NA
HETATM    5  C6  UNL     1      23.988   6.252  51.695  1.00  0.00     0.218 C 
HETATM    6  N2  UNL     1      23.774   4.930  52.187  1.00  0.00    -0.291 N 
HETATM    7  N3  UNL     1      24.014   3.884  51.292  1.00  0.00    -0.281 N 
HETATM    8  C13 UNL     1      24.628   4.034  50.014  1.00  0.00     0.159 A 
HETATM    9  C14 UNL     1      25.957   3.378  49.887  1.00  0.00     0.003 A 
HETATM   10  C15 UNL     1      27.098   3.808  49.384  1.00  0.00     0.013 A 
HETATM   11  H7  UNL     1      23.464   4.942  53.161  1.00  0.00     0.188 HD
ENDROOT
BRANCH   7  12
HETATM   12  C7  UNL     1      23.598   2.602  51.744  1.00  0.00     0.053 A 
HETATM   13  C8  UNL     1      22.400   2.030  51.367  1.00  0.00     0.031 A 
HETATM   14  C9  UNL     1      21.944   0.792  51.764  1.00  0.00     0.004 A 
HETATM   15  C10 UNL     1      22.728   0.039  52.609  1.00  0.00     0.019 A 
HETATM   16  C11 UNL     1      23.932   0.541  53.027  1.00  0.00     0.013 A 
HETATM   17 BR1  UNL     1      25.006  -0.511  54.195  1.00  0.00    -0.051 Br
HETATM   18  C12 UNL     1      24.321   1.788  52.587  1.00  0.00     0.050 A 
ENDBRANCH   7  12
BRANCH   1  19
HETATM   19  C2  UNL     1      28.321   5.771  48.222  1.00  0.00     0.155 C 
HETATM   20  C1  UNL     1      28.095   7.125  47.670  1.00  0.00     0.096 C 
HETATM   21  O1  UNL     1      29.372   5.079  48.233  1.00  0.00    -0.293 OA
ENDBRANCH   1  19
TORSDOF 2
ENDMDL
MODEL 9
REMARK VINA RESULT:      -7.8      3.144      4.566
REMARK  2 active torsions:
REMARK  status: ('A' for Active; 'I' for Inactive)
REMARK    1  A    between atoms: C2_2  and  C3_4 
REMARK    2  A    between atoms: N3_10  and  C7_11 
ROOT
HETATM    1  C3  UNL     1      26.451   4.609  49.253  1.00  0.00     0.007 A 
HETATM    2  C4  UNL     1      25.177   4.956  49.181  1.00  0.00     0.018 A 
HETATM    3  C5  UNL     1      23.916   4.375  49.776  1.00  0.00     0.161 A 
HETATM    4  N1  UNL     1      23.330   5.459  50.543  1.00  0.00    -0.272 NA
HETATM    5  C6  UNL     1      22.906   5.389  51.739  1.00  0.00     0.218 C 
HETATM    6  N2  UNL     1      22.972   4.167  52.472  1.00  0.00    -0.291 N 
HETATM    7  N3  UNL     1      23.520   3.068  51.806  1.00  0.00    -0.281 N 
HETATM    8  C13 UNL     1      24.179   3.130  50.543  1.00  0.00     0.159 A 
HETATM    9  C14 UNL     1      25.631   2.809  50.588  1.00  0.00     0.003 A 
HETATM   10  C15 UNL     1      26.674   3.408  50.048  1.00  0.00     0.013 A 
HETATM   11  H7  UNL     1      22.592   4.278  53.415  1.00  0.00     0.188 HD
ENDROOT
BRANCH   7  12
HETATM   12  C7  UNL     1      23.383   1.827  52.485  1.00  0.00     0.053 A 
HETATM   13  C8  UNL     1      24.462   1.118  52.973  1.00  0.00     0.031 A 
HETATM   14  C9  UNL     1      24.394  -0.083  53.643  1.00  0.00     0.004 A 
HETATM   15  C10 UNL     1      23.157  -0.650  53.861  1.00  0.00     0.019 A 
HETATM   16  C11 UNL     1      22.038  -0.003  53.406  1.00  0.00     0.013 A 
HETATM   17 BR1  UNL     1      20.335  -0.797  53.715  1.00  0.00    -0.051 Br
HETATM   18  C12 UNL     1      22.187   1.196  52.743  1.00  0.00     0.050 A 
ENDBRANCH   7  12
BRANCH   1  19
HETATM   19  C2  UNL     1      27.489   5.367  48.566  1.00  0.00     0.155 C 
HETATM   20  C1  UNL     1      27.107   6.748  48.196  1.00  0.00     0.096 C 
HETATM   21  O1  UNL     1      28.573   4.761  48.371  1.00  0.00    -0.293 OA
ENDBRANCH   1  19
TORSDOF 2
ENDMDL
