MODEL 1
REMARK VINA RESULT:      -6.7      0.000      0.000
REMARK  6 active torsions:
REMARK  status: ('A' for Active; 'I' for Inactive)
REMARK    1  A    between atoms: C3_4  and  C4_5 
REMARK    2  A    between atoms: N2_6  and  C5_7 
REMARK    3  A    between atoms: C5_7  and  N3_8 
REMARK    4  A    between atoms: C7_11  and  C8_12 
REMARK    5  A    between atoms: C8_12  and  N5_13 
REMARK    6  A    between atoms: N5_13  and  C9_14 
ROOT
HETATM    1  N3  UNL     1      25.501   2.590  52.149  1.00  0.00    -0.229 NA
HETATM    2  C6  UNL     1      25.331   3.424  51.187  1.00  0.00     0.243 A 
HETATM    3  N4  UNL     1      26.515   3.733  50.425  1.00  0.00    -0.323 N 
HETATM    4  C7  UNL     1      26.444   4.646  49.336  1.00  0.00     0.028 A 
HETATM    5  C11 UNL     1      25.290   5.199  49.037  1.00  0.00     0.026 A 
HETATM    6  C12 UNL     1      24.017   4.943  49.762  1.00  0.00     0.208 A 
HETATM    7  O1  UNL     1      24.158   4.034  50.824  1.00  0.00    -0.317 OA
HETATM    8  H8  UNL     1      27.441   3.287  50.667  1.00  0.00     0.169 HD
ENDROOT
BRANCH   1   9
HETATM    9  C5  UNL     1      24.369   2.199  52.993  1.00  0.00     0.301 C 
BRANCH   9  10
HETATM   10  N2  UNL     1      24.182   0.782  52.753  1.00  0.00    -0.279 NA
HETATM   11  C4  UNL     1      25.018  -0.139  53.008  1.00  0.00     0.126 C 
BRANCH  11  12
HETATM   12  C3  UNL     1      26.352  -0.244  53.569  1.00  0.00     0.017 A 
HETATM   13  C2  UNL     1      27.493  -0.598  52.895  1.00  0.00     0.126 A 
HETATM   14  N1  UNL     1      28.441  -0.546  53.848  1.00  0.00    -0.285 N 
HETATM   15  C1  UNL     1      29.854  -0.849  53.603  1.00  0.00     0.179 C 
HETATM   16  N6  UNL     1      27.938  -0.188  55.036  1.00  0.00    -0.185 NA
HETATM   17  C13 UNL     1      26.602   0.013  54.893  1.00  0.00     0.153 A 
ENDBRANCH  11  12
ENDBRANCH   9  10
ENDBRANCH   1   9
BRANCH   4  18
HETATM   18  C8  UNL     1      27.702   4.921  48.591  1.00  0.00     0.175 C 
BRANCH  18  19
HETATM   19  N5  UNL     1      28.330   6.142  48.996  1.00  0.00    -0.393 N 
HETATM   20  H11 UNL     1      28.848   6.605  49.791  1.00  0.00     0.159 HD
BRANCH  19  21
HETATM   21  C9  UNL     1      28.237   7.119  47.954  1.00  0.00     0.095 C 
HETATM   22  C10 UNL     1      27.598   8.263  48.202  1.00  0.00     0.101 C 
HETATM   23 CL1  UNL     1      26.957   8.368  49.842  1.00  0.00    -0.096 Cl
ENDBRANCH  19  21
ENDBRANCH  18  19
ENDBRANCH   4  18
TORSDOF 6
ENDMDL
MODEL 2
REMARK VINA RESULT:      -6.7      1.796      2.087
REMARK  6 active torsions:
REMARK  status: ('A' for Active; 'I' for Inactive)
REMARK    1  A    between atoms: C3_4  and  C4_5 
REMARK    2  A    between atoms: N2_6  and  C5_7 
REMARK    3  A    between atoms: C5_7  and  N3_8 
REMARK    4  A    between atoms: C7_11  and  C8_12 
REMARK    5  A    between atoms: C8_12  and  N5_13 
REMARK    6  A    between atoms: N5_13  and  C9_14 
ROOT
HETATM    1  N3  UNL     1      26.275   2.871  50.752  1.00  0.00    -0.229 NA
HETATM    2  C6  UNL     1      26.029   3.919  50.052  1.00  0.00     0.243 A 
HETATM    3  N4  UNL     1      27.187   4.567  49.487  1.00  0.00    -0.323 N 
HETATM    4  C7  UNL     1      27.032   5.738  48.693  1.00  0.00     0.028 A 
HETATM    5  C11 UNL     1      25.826   6.216  48.483  1.00  0.00     0.026 A 
HETATM    6  C12 UNL     1      24.575   5.619  49.021  1.00  0.00     0.208 A 
HETATM    7  O1  UNL     1      24.799   4.468  49.795  1.00  0.00    -0.317 OA
HETATM    8  H8  UNL     1      28.154   4.181  49.657  1.00  0.00     0.169 HD
ENDROOT
BRANCH   1   9
HETATM    9  C5  UNL     1      25.178   2.127  51.377  1.00  0.00     0.301 C 
BRANCH   9  10
HETATM   10  N2  UNL     1      25.103   2.622  52.736  1.00  0.00    -0.279 NA
HETATM   11  C4  UNL     1      25.790   2.211  53.722  1.00  0.00     0.126 C 
BRANCH  11  12
HETATM   12  C3  UNL     1      26.819   1.218  53.967  1.00  0.00     0.017 A 
HETATM   13  C2  UNL     1      28.048   1.152  53.360  1.00  0.00     0.126 A 
HETATM   14  N1  UNL     1      28.611   0.070  53.927  1.00  0.00    -0.285 N 
HETATM   15  C1  UNL     1      29.955  -0.413  53.593  1.00  0.00     0.179 C 
HETATM   16  N6  UNL     1      27.800  -0.507  54.822  1.00  0.00    -0.185 NA
HETATM   17  C13 UNL     1      26.643   0.204  54.873  1.00  0.00     0.153 A 
ENDBRANCH  11  12
ENDBRANCH   9  10
ENDBRANCH   1   9
BRANCH   4  18
HETATM   18  C8  UNL     1      28.266   6.356  48.140  1.00  0.00     0.175 C 
BRANCH  18  19
HETATM   19  N5  UNL     1      29.436   6.030  48.897  1.00  0.00    -0.393 N 
HETATM   20  H11 UNL     1      29.820   5.967  49.879  1.00  0.00     0.159 HD
BRANCH  19  21
HETATM   21  C9  UNL     1      30.501   5.636  48.024  1.00  0.00     0.095 C 
HETATM   22  C10 UNL     1      31.714   6.153  48.219  1.00  0.00     0.101 C 
HETATM   23 CL1  UNL     1      31.790   7.276  49.577  1.00  0.00    -0.096 Cl
ENDBRANCH  19  21
ENDBRANCH  18  19
ENDBRANCH   4  18
TORSDOF 6
ENDMDL
MODEL 3
REMARK VINA RESULT:      -6.4      1.532      1.782
REMARK  6 active torsions:
REMARK  status: ('A' for Active; 'I' for Inactive)
REMARK    1  A    between atoms: C3_4  and  C4_5 
REMARK    2  A    between atoms: N2_6  and  C5_7 
REMARK    3  A    between atoms: C5_7  and  N3_8 
REMARK    4  A    between atoms: C7_11  and  C8_12 
REMARK    5  A    between atoms: C8_12  and  N5_13 
REMARK    6  A    between atoms: N5_13  and  C9_14 
ROOT
HETATM    1  N3  UNL     1      25.411   3.213  51.221  1.00  0.00    -0.229 NA
HETATM    2  C6  UNL     1      24.966   4.079  50.383  1.00  0.00     0.243 A 
HETATM    3  N4  UNL     1      25.671   5.337  50.367  1.00  0.00    -0.323 N 
HETATM    4  C7  UNL     1      25.264   6.370  49.477  1.00  0.00     0.028 A 
HETATM    5  C11 UNL     1      24.243   6.162  48.677  1.00  0.00     0.026 A 
HETATM    6  C12 UNL     1      23.455   4.902  48.621  1.00  0.00     0.208 A 
HETATM    7  O1  UNL     1      23.910   3.925  49.523  1.00  0.00    -0.317 OA
HETATM    8  H8  UNL     1      26.491   5.501  51.011  1.00  0.00     0.169 HD
ENDROOT
BRANCH   1   9
HETATM    9  C5  UNL     1      24.776   1.897  51.328  1.00  0.00     0.301 C 
BRANCH   9  10
HETATM   10  N2  UNL     1      24.543   1.697  52.744  1.00  0.00    -0.279 NA
HETATM   11  C4  UNL     1      25.234   0.969  53.522  1.00  0.00     0.126 C 
BRANCH  11  12
HETATM   12  C3  UNL     1      26.402   0.113  53.426  1.00  0.00     0.017 A 
HETATM   13  C2  UNL     1      27.705   0.487  53.638  1.00  0.00     0.126 A 
HETATM   14  N1  UNL     1      28.388  -0.653  53.429  1.00  0.00    -0.285 N 
HETATM   15  C1  UNL     1      29.847  -0.756  53.541  1.00  0.00     0.179 C 
HETATM   16  N6  UNL     1      27.579  -1.671  53.109  1.00  0.00    -0.185 NA
HETATM   17  C13 UNL     1      26.299  -1.215  53.098  1.00  0.00     0.153 A 
ENDBRANCH  11  12
ENDBRANCH   9  10
ENDBRANCH   1   9
BRANCH   4  18
HETATM   18  C8  UNL     1      26.034   7.643  49.510  1.00  0.00     0.175 C 
BRANCH  18  19
HETATM   19  N5  UNL     1      27.447   7.432  49.594  1.00  0.00    -0.393 N 
HETATM   20  H11 UNL     1      28.218   7.099  50.234  1.00  0.00     0.159 HD
BRANCH  19  21
HETATM   21  C9  UNL     1      28.080   7.804  48.364  1.00  0.00     0.095 C 
HETATM   22  C10 UNL     1      28.667   6.856  47.632  1.00  0.00     0.101 C 
HETATM   23 CL1  UNL     1      28.550   5.246  48.343  1.00  0.00    -0.096 Cl
ENDBRANCH  19  21
ENDBRANCH  18  19
ENDBRANCH   4  18
TORSDOF 6
ENDMDL
MODEL 4
REMARK VINA RESULT:      -6.3      3.955      7.862
REMARK  6 active torsions:
REMARK  status: ('A' for Active; 'I' for Inactive)
REMARK    1  A    between atoms: C3_4  and  C4_5 
REMARK    2  A    between atoms: N2_6  and  C5_7 
REMARK    3  A    between atoms: C5_7  and  N3_8 
REMARK    4  A    between atoms: C7_11  and  C8_12 
REMARK    5  A    between atoms: C8_12  and  N5_13 
REMARK    6  A    between atoms: N5_13  and  C9_14 
ROOT
HETATM    1  N3  UNL     1      24.379   2.396  50.900  1.00  0.00    -0.229 NA
HETATM    2  C6  UNL     1      23.891   1.468  51.641  1.00  0.00     0.243 A 
HETATM    3  N4  UNL     1      24.795   0.930  52.628  1.00  0.00    -0.323 N 
HETATM    4  C7  UNL     1      24.361  -0.104  53.503  1.00  0.00     0.028 A 
HETATM    5  C11 UNL     1      23.133  -0.559  53.399  1.00  0.00     0.026 A 
HETATM    6  C12 UNL     1      22.130  -0.069  52.416  1.00  0.00     0.208 A 
HETATM    7  O1  UNL     1      22.623   0.950  51.584  1.00  0.00    -0.317 OA
HETATM    8  H8  UNL     1      25.782   1.298  52.709  1.00  0.00     0.169 HD
ENDROOT
BRANCH   1   9
HETATM    9  C5  UNL     1      23.555   3.020  49.861  1.00  0.00     0.301 C 
BRANCH   9  10
HETATM   10  N2  UNL     1      23.354   4.386  50.298  1.00  0.00    -0.279 NA
HETATM   11  C4  UNL     1      22.297   4.860  50.817  1.00  0.00     0.126 C 
BRANCH  11  12
HETATM   12  C3  UNL     1      20.977   4.378  51.180  1.00  0.00     0.017 A 
HETATM   13  C2  UNL     1      19.807   4.626  50.508  1.00  0.00     0.126 A 
HETATM   14  N1  UNL     1      18.890   3.966  51.238  1.00  0.00    -0.285 N 
HETATM   15  C1  UNL     1      17.461   3.935  50.908  1.00  0.00     0.179 C 
HETATM   16  N6  UNL     1      19.437   3.349  52.293  1.00  0.00    -0.185 NA
HETATM   17  C13 UNL     1      20.774   3.593  52.286  1.00  0.00     0.153 A 
ENDBRANCH  11  12
ENDBRANCH   9  10
ENDBRANCH   1   9
BRANCH   4  18
HETATM   18  C8  UNL     1      25.342  -0.613  54.499  1.00  0.00     0.175 C 
BRANCH  18  19
HETATM   19  N5  UNL     1      26.676  -0.674  53.981  1.00  0.00    -0.393 N 
HETATM   20  H11 UNL     1      27.273  -1.109  53.226  1.00  0.00     0.159 HD
BRANCH  19  21
HETATM   21  C9  UNL     1      27.549   0.156  54.755  1.00  0.00     0.095 C 
HETATM   22  C10 UNL     1      28.866   0.030  54.590  1.00  0.00     0.101 C 
HETATM   23 CL1  UNL     1      29.312  -1.188  53.395  1.00  0.00    -0.096 Cl
ENDBRANCH  19  21
ENDBRANCH  18  19
ENDBRANCH   4  18
TORSDOF 6
ENDMDL
MODEL 5
REMARK VINA RESULT:      -6.2      4.452      7.262
REMARK  6 active torsions:
REMARK  status: ('A' for Active; 'I' for Inactive)
REMARK    1  A    between atoms: C3_4  and  C4_5 
REMARK    2  A    between atoms: N2_6  and  C5_7 
REMARK    3  A    between atoms: C5_7  and  N3_8 
REMARK    4  A    between atoms: C7_11  and  C8_12 
REMARK    5  A    between atoms: C8_12  and  N5_13 
REMARK    6  A    between atoms: N5_13  and  C9_14 
ROOT
HETATM    1  N3  UNL     1      21.955   0.262  53.331  1.00  0.00    -0.229 NA
HETATM    2  C6  UNL     1      23.013   0.871  52.934  1.00  0.00     0.243 A 
HETATM    3  N4  UNL     1      24.204   0.060  52.877  1.00  0.00    -0.323 N 
HETATM    4  C7  UNL     1      25.436   0.632  52.451  1.00  0.00     0.028 A 
HETATM    5  C11 UNL     1      25.471   1.902  52.113  1.00  0.00     0.026 A 
HETATM    6  C12 UNL     1      24.298   2.816  52.139  1.00  0.00     0.208 A 
HETATM    7  O1  UNL     1      23.117   2.189  52.568  1.00  0.00    -0.317 OA
HETATM    8  H8  UNL     1      24.173  -0.959  53.149  1.00  0.00     0.169 HD
ENDROOT
BRANCH   1   9
HETATM    9  C5  UNL     1      20.683   0.983  53.430  1.00  0.00     0.301 C 
BRANCH   9  10
HETATM   10  N2  UNL     1      19.723   0.169  52.712  1.00  0.00    -0.279 NA
HETATM   11  C4  UNL     1      19.493   0.207  51.464  1.00  0.00     0.126 C 
BRANCH  11  12
HETATM   12  C3  UNL     1      19.975   0.945  50.311  1.00  0.00     0.017 A 
HETATM   13  C2  UNL     1      21.222   0.850  49.746  1.00  0.00     0.126 A 
HETATM   14  N1  UNL     1      21.162   1.723  48.725  1.00  0.00    -0.285 N 
HETATM   15  C1  UNL     1      22.279   1.977  47.810  1.00  0.00     0.179 C 
HETATM   16  N6  UNL     1      19.969   2.327  48.650  1.00  0.00    -0.185 NA
HETATM   17  C13 UNL     1      19.184   1.851  49.651  1.00  0.00     0.153 A 
ENDBRANCH  11  12
ENDBRANCH   9  10
ENDBRANCH   1   9
BRANCH   4  18
HETATM   18  C8  UNL     1      26.626  -0.259  52.414  1.00  0.00     0.175 C 
BRANCH  18  19
HETATM   19  N5  UNL     1      26.914  -0.852  53.685  1.00  0.00    -0.393 N 
HETATM   20  H11 UNL     1      26.867  -1.756  54.229  1.00  0.00     0.159 HD
BRANCH  19  21
HETATM   21  C9  UNL     1      27.477   0.121  54.572  1.00  0.00     0.095 C 
HETATM   22  C10 UNL     1      28.800   0.147  54.738  1.00  0.00     0.101 C 
HETATM   23 CL1  UNL     1      29.652  -1.074  53.793  1.00  0.00    -0.096 Cl
ENDBRANCH  19  21
ENDBRANCH  18  19
ENDBRANCH   4  18
TORSDOF 6
ENDMDL
MODEL 6
REMARK VINA RESULT:      -6.1      2.518      7.718
REMARK  6 active torsions:
REMARK  status: ('A' for Active; 'I' for Inactive)
REMARK    1  A    between atoms: C3_4  and  C4_5 
REMARK    2  A    between atoms: N2_6  and  C5_7 
REMARK    3  A    between atoms: C5_7  and  N3_8 
REMARK    4  A    between atoms: C7_11  and  C8_12 
REMARK    5  A    between atoms: C8_12  and  N5_13 
REMARK    6  A    between atoms: N5_13  and  C9_14 
ROOT
HETATM    1  N3  UNL     1      26.727   2.968  50.431  1.00  0.00    -0.229 NA
HETATM    2  C6  UNL     1      25.855   2.326  51.121  1.00  0.00     0.243 A 
HETATM    3  N4  UNL     1      26.389   1.527  52.196  1.00  0.00    -0.323 N 
HETATM    4  C7  UNL     1      25.514   0.773  53.026  1.00  0.00     0.028 A 
HETATM    5  C11 UNL     1      24.220   0.816  52.801  1.00  0.00     0.026 A 
HETATM    6  C12 UNL     1      23.576   1.609  51.720  1.00  0.00     0.208 A 
HETATM    7  O1  UNL     1      24.496   2.328  50.939  1.00  0.00    -0.317 OA
HETATM    8  H8  UNL     1      27.429   1.494  52.375  1.00  0.00     0.169 HD
ENDROOT
BRANCH   1   9
HETATM    9  C5  UNL     1      26.303   3.814  49.312  1.00  0.00     0.301 C 
BRANCH   9  10
HETATM   10  N2  UNL     1      27.489   4.543  48.911  1.00  0.00    -0.279 NA
HETATM   11  C4  UNL     1      27.557   5.786  48.660  1.00  0.00     0.126 C 
BRANCH  11  12
HETATM   12  C3  UNL     1      26.655   6.922  48.643  1.00  0.00     0.017 A 
HETATM   13  C2  UNL     1      25.884   7.335  47.585  1.00  0.00     0.126 A 
HETATM   14  N1  UNL     1      25.243   8.411  48.075  1.00  0.00    -0.285 N 
HETATM   15  C1  UNL     1      24.288   9.208  47.299  1.00  0.00     0.179 C 
HETATM   16  N6  UNL     1      25.582   8.662  49.346  1.00  0.00    -0.185 NA
HETATM   17  C13 UNL     1      26.485   7.726  49.741  1.00  0.00     0.153 A 
ENDBRANCH  11  12
ENDBRANCH   9  10
ENDBRANCH   1   9
BRANCH   4  18
HETATM   18  C8  UNL     1      26.129  -0.030  54.117  1.00  0.00     0.175 C 
BRANCH  18  19
HETATM   19  N5  UNL     1      27.083   0.715  54.882  1.00  0.00    -0.393 N 
HETATM   20  H11 UNL     1      27.192   1.552  55.517  1.00  0.00     0.159 HD
BRANCH  19  21
HETATM   21  C9  UNL     1      28.385   0.130  54.761  1.00  0.00     0.095 C 
HETATM   22  C10 UNL     1      29.378   0.873  54.271  1.00  0.00     0.101 C 
HETATM   23 CL1  UNL     1      28.886   2.512  53.845  1.00  0.00    -0.096 Cl
ENDBRANCH  19  21
ENDBRANCH  18  19
ENDBRANCH   4  18
TORSDOF 6
ENDMDL
MODEL 7
REMARK VINA RESULT:      -6.1      3.009      7.326
REMARK  6 active torsions:
REMARK  status: ('A' for Active; 'I' for Inactive)
REMARK    1  A    between atoms: C3_4  and  C4_5 
REMARK    2  A    between atoms: N2_6  and  C5_7 
REMARK    3  A    between atoms: C5_7  and  N3_8 
REMARK    4  A    between atoms: C7_11  and  C8_12 
REMARK    5  A    between atoms: C8_12  and  N5_13 
REMARK    6  A    between atoms: N5_13  and  C9_14 
ROOT
HETATM    1  N3  UNL     1      24.147   3.634  52.345  1.00  0.00    -0.229 NA
HETATM    2  C6  UNL     1      24.002   2.394  52.648  1.00  0.00     0.243 A 
HETATM    3  N4  UNL     1      25.192   1.589  52.525  1.00  0.00    -0.323 N 
HETATM    4  C7  UNL     1      25.148   0.200  52.833  1.00  0.00     0.028 A 
HETATM    5  C11 UNL     1      24.014  -0.333  53.230  1.00  0.00     0.026 A 
HETATM    6  C12 UNL     1      22.738   0.414  53.388  1.00  0.00     0.208 A 
HETATM    7  O1  UNL     1      22.852   1.777  53.067  1.00  0.00    -0.317 OA
HETATM    8  H8  UNL     1      26.101   2.019  52.206  1.00  0.00     0.169 HD
ENDROOT
BRANCH   1   9
HETATM    9  C5  UNL     1      23.008   4.551  52.432  1.00  0.00     0.301 C 
BRANCH   9  10
HETATM   10  N2  UNL     1      22.522   4.690  51.075  1.00  0.00    -0.279 NA
HETATM   11  C4  UNL     1      23.126   5.265  50.117  1.00  0.00     0.126 C 
BRANCH  11  12
HETATM   12  C3  UNL     1      24.385   5.957  49.911  1.00  0.00     0.017 A 
HETATM   13  C2  UNL     1      24.695   7.226  50.332  1.00  0.00     0.126 A 
HETATM   14  N1  UNL     1      25.957   7.392  49.899  1.00  0.00    -0.285 N 
HETATM   15  C1  UNL     1      26.734   8.616  50.114  1.00  0.00     0.179 C 
HETATM   16  N6  UNL     1      26.411   6.312  49.250  1.00  0.00    -0.185 NA
HETATM   17  C13 UNL     1      25.429   5.373  49.240  1.00  0.00     0.153 A 
ENDBRANCH  11  12
ENDBRANCH   9  10
ENDBRANCH   1   9
BRANCH   4  18
HETATM   18  C8  UNL     1      26.410  -0.573  52.686  1.00  0.00     0.175 C 
BRANCH  18  19
HETATM   19  N5  UNL     1      26.951  -0.993  53.943  1.00  0.00    -0.393 N 
HETATM   20  H11 UNL     1      27.061  -1.826  54.583  1.00  0.00     0.159 HD
BRANCH  19  21
HETATM   21  C9  UNL     1      27.589   0.106  54.603  1.00  0.00     0.095 C 
HETATM   22  C10 UNL     1      28.920   0.182  54.582  1.00  0.00     0.101 C 
HETATM   23 CL1  UNL     1      29.686  -1.144  53.706  1.00  0.00    -0.096 Cl
ENDBRANCH  19  21
ENDBRANCH  18  19
ENDBRANCH   4  18
TORSDOF 6
ENDMDL
MODEL 8
REMARK VINA RESULT:      -6.0      2.869      7.268
REMARK  6 active torsions:
REMARK  status: ('A' for Active; 'I' for Inactive)
REMARK    1  A    between atoms: C3_4  and  C4_5 
REMARK    2  A    between atoms: N2_6  and  C5_7 
REMARK    3  A    between atoms: C5_7  and  N3_8 
REMARK    4  A    between atoms: C7_11  and  C8_12 
REMARK    5  A    between atoms: C8_12  and  N5_13 
REMARK    6  A    between atoms: N5_13  and  C9_14 
ROOT
HETATM    1  N3  UNL     1      26.176   3.451  50.628  1.00  0.00    -0.229 NA
HETATM    2  C6  UNL     1      25.372   2.613  51.176  1.00  0.00     0.243 A 
HETATM    3  N4  UNL     1      25.923   1.867  52.282  1.00  0.00    -0.323 N 
HETATM    4  C7  UNL     1      25.122   0.910  52.965  1.00  0.00     0.028 A 
HETATM    5  C11 UNL     1      23.882   0.716  52.576  1.00  0.00     0.026 A 
HETATM    6  C12 UNL     1      23.227   1.435  51.451  1.00  0.00     0.208 A 
HETATM    7  O1  UNL     1      24.072   2.364  50.821  1.00  0.00    -0.317 OA
HETATM    8  H8  UNL     1      26.919   2.024  52.592  1.00  0.00     0.169 HD
ENDROOT
BRANCH   1   9
HETATM    9  C5  UNL     1      25.729   4.266  49.495  1.00  0.00     0.301 C 
BRANCH   9  10
HETATM   10  N2  UNL     1      25.704   5.628  49.988  1.00  0.00    -0.279 NA
HETATM   11  C4  UNL     1      24.683   6.257  50.403  1.00  0.00     0.126 C 
BRANCH  11  12
HETATM   12  C3  UNL     1      23.265   5.998  50.573  1.00  0.00     0.017 A 
HETATM   13  C2  UNL     1      22.264   6.347  49.702  1.00  0.00     0.126 A 
HETATM   14  N1  UNL     1      21.155   5.888  50.311  1.00  0.00    -0.285 N 
HETATM   15  C1  UNL     1      19.807   6.028  49.753  1.00  0.00     0.179 C 
HETATM   16  N6  UNL     1      21.434   5.295  51.479  1.00  0.00    -0.185 NA
HETATM   17  C13 UNL     1      22.777   5.348  51.677  1.00  0.00     0.153 A 
ENDBRANCH  11  12
ENDBRANCH   9  10
ENDBRANCH   1   9
BRANCH   4  18
HETATM   18  C8  UNL     1      25.750   0.176  54.096  1.00  0.00     0.175 C 
BRANCH  18  19
HETATM   19  N5  UNL     1      26.761   0.942  54.760  1.00  0.00    -0.393 N 
HETATM   20  H11 UNL     1      26.945   1.862  55.245  1.00  0.00     0.159 HD
BRANCH  19  21
HETATM   21  C9  UNL     1      27.994   0.216  54.794  1.00  0.00     0.095 C 
HETATM   22  C10 UNL     1      29.112   0.831  54.405  1.00  0.00     0.101 C 
HETATM   23 CL1  UNL     1      28.855   2.501  53.898  1.00  0.00    -0.096 Cl
ENDBRANCH  19  21
ENDBRANCH  18  19
ENDBRANCH   4  18
TORSDOF 6
ENDMDL
MODEL 9
REMARK VINA RESULT:      -5.9      2.067      3.178
REMARK  6 active torsions:
REMARK  status: ('A' for Active; 'I' for Inactive)
REMARK    1  A    between atoms: C3_4  and  C4_5 
REMARK    2  A    between atoms: N2_6  and  C5_7 
REMARK    3  A    between atoms: C5_7  and  N3_8 
REMARK    4  A    between atoms: C7_11  and  C8_12 
REMARK    5  A    between atoms: C8_12  and  N5_13 
REMARK    6  A    between atoms: N5_13  and  C9_14 
ROOT
HETATM    1  N3  UNL     1      26.081   4.266  49.448  1.00  0.00    -0.229 NA
HETATM    2  C6  UNL     1      26.933   5.038  48.877  1.00  0.00     0.243 A 
HETATM    3  N4  UNL     1      26.383   6.237  48.295  1.00  0.00    -0.323 N 
HETATM    4  C7  UNL     1      27.236   7.166  47.636  1.00  0.00     0.028 A 
HETATM    5  C11 UNL     1      28.524   6.916  47.567  1.00  0.00     0.026 A 
HETATM    6  C12 UNL     1      29.183   5.710  48.135  1.00  0.00     0.208 A 
HETATM    7  O1  UNL     1      28.286   4.836  48.770  1.00  0.00    -0.317 OA
HETATM    8  H8  UNL     1      25.348   6.435  48.353  1.00  0.00     0.169 HD
ENDROOT
BRANCH   1   9
HETATM    9  C5  UNL     1      26.522   3.017  50.075  1.00  0.00     0.301 C 
BRANCH   9  10
HETATM   10  N2  UNL     1      25.713   2.879  51.269  1.00  0.00    -0.279 NA
HETATM   11  C4  UNL     1      26.059   2.306  52.347  1.00  0.00     0.126 C 
BRANCH  11  12
HETATM   12  C3  UNL     1      27.226   1.614  52.862  1.00  0.00     0.017 A 
HETATM   13  C2  UNL     1      27.457   0.262  52.817  1.00  0.00     0.126 A 
HETATM   14  N1  UNL     1      28.655   0.136  53.415  1.00  0.00    -0.285 N 
HETATM   15  C1  UNL     1      29.334  -1.149  53.608  1.00  0.00     0.179 C 
HETATM   16  N6  UNL     1      29.144   1.318  53.811  1.00  0.00    -0.185 NA
HETATM   17  C13 UNL     1      28.254   2.287  53.472  1.00  0.00     0.153 A 
ENDBRANCH  11  12
ENDBRANCH   9  10
ENDBRANCH   1   9
BRANCH   4  18
HETATM   18  C8  UNL     1      26.605   8.383  47.059  1.00  0.00     0.175 C 
BRANCH  18  19
HETATM   19  N5  UNL     1      26.213   9.330  48.058  1.00  0.00    -0.393 N 
HETATM   20  H11 UNL     1      25.476   9.540  48.785  1.00  0.00     0.159 HD
BRANCH  19  21
HETATM   21  C9  UNL     1      27.153  10.409  48.118  1.00  0.00     0.095 C 
HETATM   22  C10 UNL     1      27.900  10.548  49.214  1.00  0.00     0.101 C 
HETATM   23 CL1  UNL     1      27.581   9.324  50.443  1.00  0.00    -0.096 Cl
ENDBRANCH  19  21
ENDBRANCH  18  19
ENDBRANCH   4  18
TORSDOF 6
ENDMDL
