MODEL 1
REMARK VINA RESULT:      -8.2      0.000      0.000
REMARK  5 active torsions:
REMARK  status: ('A' for Active; 'I' for Inactive)
REMARK    1  A    between atoms: C2_2  and  C3_3 
REMARK    2  A    between atoms: C4_4  and  C5_5 
REMARK    3  A    between atoms: C6_6  and  O1_7 
REMARK    4  A    between atoms: O1_7  and  N1_8 
REMARK    5  A    between atoms: N1_8  and  C7_9 
ROOT
HETATM    1  C7  UNL     1      27.089   2.108  52.323  1.00  0.00     0.162 A 
HETATM    2  N2  UNL     1      28.310   2.440  52.722  1.00  0.00    -0.222 NA
HETATM    3  C8  UNL     1      28.882   1.995  53.825  1.00  0.00     0.236 A 
HETATM    4  N3  UNL     1      28.145   1.162  54.554  1.00  0.00    -0.234 NA
HETATM    5  C9  UNL     1      26.897   0.800  54.181  1.00  0.00     0.114 A 
HETATM    6  S1  UNL     1      25.717  -0.285  54.966  1.00  0.00    -0.073 SA
HETATM    7  C10 UNL     1      24.418  -0.043  53.631  1.00  0.00    -0.008 A 
HETATM    8  C11 UNL     1      25.018   0.802  52.784  1.00  0.00    -0.028 A 
HETATM    9  C12 UNL     1      26.288   1.256  53.031  1.00  0.00     0.055 A 
HETATM   10  C13 UNL     1      24.087   1.085  51.662  1.00  0.00     0.041 C 
HETATM   11  C14 UNL     1      22.780   1.568  52.240  1.00  0.00     0.005 C 
HETATM   12  C15 UNL     1      22.150   0.557  53.162  1.00  0.00     0.005 C 
HETATM   13  C16 UNL     1      23.095  -0.582  53.475  1.00  0.00     0.047 C 
ENDROOT
BRANCH   1  14
HETATM   14  N1  UNL     1      26.683   2.706  51.108  1.00  0.00    -0.243 N 
HETATM   15  H8  UNL     1      26.401   3.109  50.199  1.00  0.00     0.196 HD
BRANCH  14  16
HETATM   16  O1  UNL     1      26.063   3.914  51.031  1.00  0.00    -0.248 OA
BRANCH  16  17
HETATM   17  C6  UNL     1      25.369   4.364  49.890  1.00  0.00     0.167 C 
HETATM   18  C5  UNL     1      24.058   4.098  49.756  1.00  0.00     0.026 C 
BRANCH  18  19
HETATM   19  C4  UNL     1      23.156   4.460  48.674  1.00  0.00     0.002 C 
HETATM   20  C3  UNL     1      22.492   3.640  47.896  1.00  0.00    -0.001 C 
BRANCH  20  21
HETATM   21  C2  UNL     1      22.571   2.191  48.013  1.00  0.00    -0.010 C 
HETATM   22  C1  UNL     1      21.557   1.515  48.568  1.00  0.00     0.011 C 
ENDBRANCH  20  21
ENDBRANCH  18  19
ENDBRANCH  16  17
ENDBRANCH  14  16
ENDBRANCH   1  14
TORSDOF 5
ENDMDL
MODEL 2
REMARK VINA RESULT:      -7.7      2.879      4.876
REMARK  5 active torsions:
REMARK  status: ('A' for Active; 'I' for Inactive)
REMARK    1  A    between atoms: C2_2  and  C3_3 
REMARK    2  A    between atoms: C4_4  and  C5_5 
REMARK    3  A    between atoms: C6_6  and  O1_7 
REMARK    4  A    between atoms: O1_7  and  N1_8 
REMARK    5  A    between atoms: N1_8  and  C7_9 
ROOT
HETATM    1  C7  UNL     1      23.140   3.233  52.261  1.00  0.00     0.162 A 
HETATM    2  N2  UNL     1      21.930   3.743  52.081  1.00  0.00    -0.222 NA
HETATM    3  C8  UNL     1      20.803   3.094  52.309  1.00  0.00     0.236 A 
HETATM    4  N3  UNL     1      20.943   1.847  52.747  1.00  0.00    -0.234 NA
HETATM    5  C9  UNL     1      22.160   1.290  52.943  1.00  0.00     0.114 A 
HETATM    6  S1  UNL     1      22.616  -0.338  53.515  1.00  0.00    -0.073 SA
HETATM    7  C10 UNL     1      24.460   0.002  53.397  1.00  0.00    -0.008 A 
HETATM    8  C11 UNL     1      24.501   1.264  52.954  1.00  0.00    -0.028 A 
HETATM    9  C12 UNL     1      23.344   1.958  52.710  1.00  0.00     0.055 A 
HETATM   10  C13 UNL     1      25.923   1.667  52.812  1.00  0.00     0.041 C 
HETATM   11  C14 UNL     1      26.620   0.653  51.941  1.00  0.00     0.005 C 
HETATM   12  C15 UNL     1      26.556  -0.739  52.513  1.00  0.00     0.005 C 
HETATM   13  C16 UNL     1      25.604  -0.819  53.686  1.00  0.00     0.047 C 
ENDROOT
BRANCH   1  14
HETATM   14  N1  UNL     1      24.203   4.113  51.954  1.00  0.00    -0.243 N 
HETATM   15  H8  UNL     1      24.986   4.761  51.770  1.00  0.00     0.196 HD
BRANCH  14  16
HETATM   16  O1  UNL     1      24.592   4.412  50.684  1.00  0.00    -0.248 OA
BRANCH  16  17
HETATM   17  C6  UNL     1      25.863   4.096  50.163  1.00  0.00     0.167 C 
HETATM   18  C5  UNL     1      26.454   4.930  49.289  1.00  0.00     0.026 C 
BRANCH  18  19
HETATM   19  C4  UNL     1      27.745   4.804  48.633  1.00  0.00     0.002 C 
HETATM   20  C3  UNL     1      28.468   5.773  48.126  1.00  0.00    -0.001 C 
BRANCH  20  21
HETATM   21  C2  UNL     1      28.058   7.170  48.152  1.00  0.00    -0.010 C 
HETATM   22  C1  UNL     1      28.113   7.896  47.029  1.00  0.00     0.011 C 
ENDBRANCH  20  21
ENDBRANCH  18  19
ENDBRANCH  16  17
ENDBRANCH  14  16
ENDBRANCH   1  14
TORSDOF 5
ENDMDL
MODEL 3
REMARK VINA RESULT:      -7.7      1.918      2.699
REMARK  5 active torsions:
REMARK  status: ('A' for Active; 'I' for Inactive)
REMARK    1  A    between atoms: C2_2  and  C3_3 
REMARK    2  A    between atoms: C4_4  and  C5_5 
REMARK    3  A    between atoms: C6_6  and  O1_7 
REMARK    4  A    between atoms: O1_7  and  N1_8 
REMARK    5  A    between atoms: N1_8  and  C7_9 
ROOT
HETATM    1  C7  UNL     1      26.855   2.233  52.408  1.00  0.00     0.162 A 
HETATM    2  N2  UNL     1      28.104   2.513  52.752  1.00  0.00    -0.222 NA
HETATM    3  C8  UNL     1      28.761   1.920  53.732  1.00  0.00     0.236 A 
HETATM    4  N3  UNL     1      28.080   0.987  54.390  1.00  0.00    -0.234 NA
HETATM    5  C9  UNL     1      26.804   0.673  54.070  1.00  0.00     0.114 A 
HETATM    6  S1  UNL     1      25.686  -0.520  54.784  1.00  0.00    -0.073 SA
HETATM    7  C10 UNL     1      24.286  -0.100  53.604  1.00  0.00    -0.008 A 
HETATM    8  C11 UNL     1      24.820   0.861  52.841  1.00  0.00    -0.028 A 
HETATM    9  C12 UNL     1      26.108   1.284  53.048  1.00  0.00     0.055 A 
HETATM   10  C13 UNL     1      23.805   1.295  51.848  1.00  0.00     0.041 C 
HETATM   11  C14 UNL     1      22.550   1.682  52.590  1.00  0.00     0.005 C 
HETATM   12  C15 UNL     1      21.990   0.546  53.407  1.00  0.00     0.005 C 
HETATM   13  C16 UNL     1      22.951  -0.620  53.478  1.00  0.00     0.047 C 
ENDROOT
BRANCH   1  14
HETATM   14  N1  UNL     1      26.356   2.994  51.326  1.00  0.00    -0.243 N 
HETATM   15  H8  UNL     1      25.952   3.539  50.546  1.00  0.00     0.196 HD
BRANCH  14  16
HETATM   16  O1  UNL     1      27.144   3.718  50.485  1.00  0.00    -0.248 OA
BRANCH  16  17
HETATM   17  C6  UNL     1      26.660   4.382  49.340  1.00  0.00     0.167 C 
HETATM   18  C5  UNL     1      26.639   5.726  49.305  1.00  0.00     0.026 C 
BRANCH  18  19
HETATM   19  C4  UNL     1      26.187   6.607  48.240  1.00  0.00     0.002 C 
HETATM   20  C3  UNL     1      25.519   7.727  48.377  1.00  0.00    -0.001 C 
BRANCH  20  21
HETATM   21  C2  UNL     1      25.119   8.264  49.670  1.00  0.00    -0.010 C 
HETATM   22  C1  UNL     1      23.827   8.254  50.020  1.00  0.00     0.011 C 
ENDBRANCH  20  21
ENDBRANCH  18  19
ENDBRANCH  16  17
ENDBRANCH  14  16
ENDBRANCH   1  14
TORSDOF 5
ENDMDL
MODEL 4
REMARK VINA RESULT:      -7.7      3.145      5.399
REMARK  5 active torsions:
REMARK  status: ('A' for Active; 'I' for Inactive)
REMARK    1  A    between atoms: C2_2  and  C3_3 
REMARK    2  A    between atoms: C4_4  and  C5_5 
REMARK    3  A    between atoms: C6_6  and  O1_7 
REMARK    4  A    between atoms: O1_7  and  N1_8 
REMARK    5  A    between atoms: N1_8  and  C7_9 
ROOT
HETATM    1  C7  UNL     1      25.409   2.822  51.052  1.00  0.00     0.162 A 
HETATM    2  N2  UNL     1      24.397   2.988  50.212  1.00  0.00    -0.222 NA
HETATM    3  C8  UNL     1      23.274   2.295  50.246  1.00  0.00     0.236 A 
HETATM    4  N3  UNL     1      23.200   1.378  51.207  1.00  0.00    -0.234 NA
HETATM    5  C9  UNL     1      24.210   1.178  52.084  1.00  0.00     0.114 A 
HETATM    6  S1  UNL     1      24.360   0.032  53.443  1.00  0.00    -0.073 SA
HETATM    7  C10 UNL     1      26.081   0.621  53.912  1.00  0.00    -0.008 A 
HETATM    8  C11 UNL     1      26.321   1.582  53.011  1.00  0.00    -0.028 A 
HETATM    9  C12 UNL     1      25.388   1.896  52.058  1.00  0.00     0.055 A 
HETATM   10  C13 UNL     1      27.672   2.143  53.269  1.00  0.00     0.041 C 
HETATM   11  C14 UNL     1      28.664   1.007  53.284  1.00  0.00     0.005 C 
HETATM   12  C15 UNL     1      28.346  -0.021  54.338  1.00  0.00     0.005 C 
HETATM   13  C16 UNL     1      26.983   0.209  54.953  1.00  0.00     0.047 C 
ENDROOT
BRANCH   1  14
HETATM   14  N1  UNL     1      26.511   3.678  50.826  1.00  0.00    -0.243 N 
HETATM   15  H8  UNL     1      27.314   4.316  50.701  1.00  0.00     0.196 HD
BRANCH  14  16
HETATM   16  O1  UNL     1      27.160   3.773  49.634  1.00  0.00    -0.248 OA
BRANCH  16  17
HETATM   17  C6  UNL     1      27.247   4.965  48.886  1.00  0.00     0.167 C 
HETATM   18  C5  UNL     1      28.442   5.391  48.442  1.00  0.00     0.026 C 
BRANCH  18  19
HETATM   19  C4  UNL     1      28.760   6.577  47.663  1.00  0.00     0.002 C 
HETATM   20  C3  UNL     1      29.840   7.315  47.758  1.00  0.00    -0.001 C 
BRANCH  20  21
HETATM   21  C2  UNL     1      30.915   7.036  48.700  1.00  0.00    -0.010 C 
HETATM   22  C1  UNL     1      31.451   8.037  49.408  1.00  0.00     0.011 C 
ENDBRANCH  20  21
ENDBRANCH  18  19
ENDBRANCH  16  17
ENDBRANCH  14  16
ENDBRANCH   1  14
TORSDOF 5
ENDMDL
MODEL 5
REMARK VINA RESULT:      -7.5      4.235      8.132
REMARK  5 active torsions:
REMARK  status: ('A' for Active; 'I' for Inactive)
REMARK    1  A    between atoms: C2_2  and  C3_3 
REMARK    2  A    between atoms: C4_4  and  C5_5 
REMARK    3  A    between atoms: C6_6  and  O1_7 
REMARK    4  A    between atoms: O1_7  and  N1_8 
REMARK    5  A    between atoms: N1_8  and  C7_9 
ROOT
HETATM    1  C7  UNL     1      26.157   5.104  49.475  1.00  0.00     0.162 A 
HETATM    2  N2  UNL     1      24.943   5.093  50.007  1.00  0.00    -0.222 NA
HETATM    3  C8  UNL     1      24.062   6.067  49.878  1.00  0.00     0.236 A 
HETATM    4  N3  UNL     1      24.465   7.109  49.157  1.00  0.00    -0.234 NA
HETATM    5  C9  UNL     1      25.695   7.158  48.597  1.00  0.00     0.114 A 
HETATM    6  S1  UNL     1      26.470   8.418  47.600  1.00  0.00    -0.073 SA
HETATM    7  C10 UNL     1      28.073   7.457  47.409  1.00  0.00    -0.008 A 
HETATM    8  C11 UNL     1      27.831   6.337  48.101  1.00  0.00    -0.028 A 
HETATM    9  C12 UNL     1      26.625   6.147  48.724  1.00  0.00     0.055 A 
HETATM   10  C13 UNL     1      29.036   5.472  48.033  1.00  0.00     0.041 C 
HETATM   11  C14 UNL     1      30.225   6.275  48.498  1.00  0.00     0.005 C 
HETATM   12  C15 UNL     1      30.452   7.505  47.658  1.00  0.00     0.005 C 
HETATM   13  C16 UNL     1      29.296   7.764  46.718  1.00  0.00     0.047 C 
ENDROOT
BRANCH   1  14
HETATM   14  N1  UNL     1      26.930   3.951  49.744  1.00  0.00    -0.243 N 
HETATM   15  H8  UNL     1      27.505   3.107  49.899  1.00  0.00     0.196 HD
BRANCH  14  16
HETATM   16  O1  UNL     1      27.055   3.398  50.980  1.00  0.00    -0.248 OA
BRANCH  16  17
HETATM   17  C6  UNL     1      26.671   2.076  51.286  1.00  0.00     0.167 C 
HETATM   18  C5  UNL     1      27.040   1.525  52.456  1.00  0.00     0.026 C 
BRANCH  18  19
HETATM   19  C4  UNL     1      26.760   0.195  52.970  1.00  0.00     0.002 C 
HETATM   20  C3  UNL     1      27.588  -0.588  53.618  1.00  0.00    -0.001 C 
BRANCH  20  21
HETATM   21  C2  UNL     1      28.962  -0.217  53.924  1.00  0.00    -0.010 C 
HETATM   22  C1  UNL     1      29.960  -1.050  53.604  1.00  0.00     0.011 C 
ENDBRANCH  20  21
ENDBRANCH  18  19
ENDBRANCH  16  17
ENDBRANCH  14  16
ENDBRANCH   1  14
TORSDOF 5
ENDMDL
MODEL 6
REMARK VINA RESULT:      -7.4      2.938      4.535
REMARK  5 active torsions:
REMARK  status: ('A' for Active; 'I' for Inactive)
REMARK    1  A    between atoms: C2_2  and  C3_3 
REMARK    2  A    between atoms: C4_4  and  C5_5 
REMARK    3  A    between atoms: C6_6  and  O1_7 
REMARK    4  A    between atoms: O1_7  and  N1_8 
REMARK    5  A    between atoms: N1_8  and  C7_9 
ROOT
HETATM    1  C7  UNL     1      22.191  -0.079  52.877  1.00  0.00     0.162 A 
HETATM    2  N2  UNL     1      21.003  -0.577  53.188  1.00  0.00    -0.222 NA
HETATM    3  C8  UNL     1      20.757  -1.317  54.254  1.00  0.00     0.236 A 
HETATM    4  N3  UNL     1      21.805  -1.551  55.038  1.00  0.00    -0.234 NA
HETATM    5  C9  UNL     1      23.033  -1.061  54.756  1.00  0.00     0.114 A 
HETATM    6  S1  UNL     1      24.580  -1.226  55.629  1.00  0.00    -0.073 SA
HETATM    7  C10 UNL     1      25.536  -0.193  54.385  1.00  0.00    -0.008 A 
HETATM    8  C11 UNL     1      24.596   0.138  53.491  1.00  0.00    -0.028 A 
HETATM    9  C12 UNL     1      23.303  -0.287  53.646  1.00  0.00     0.055 A 
HETATM   10  C13 UNL     1      25.225   0.969  52.433  1.00  0.00     0.041 C 
HETATM   11  C14 UNL     1      26.408   0.216  51.878  1.00  0.00     0.005 C 
HETATM   12  C15 UNL     1      27.436  -0.100  52.933  1.00  0.00     0.005 C 
HETATM   13  C16 UNL     1      26.919   0.194  54.324  1.00  0.00     0.047 C 
ENDROOT
BRANCH   1  14
HETATM   14  N1  UNL     1      22.218   0.684  51.688  1.00  0.00    -0.243 N 
HETATM   15  H8  UNL     1      22.252   1.208  50.798  1.00  0.00     0.196 HD
BRANCH  14  16
HETATM   16  O1  UNL     1      21.860   1.995  51.624  1.00  0.00    -0.248 OA
BRANCH  16  17
HETATM   17  C6  UNL     1      22.371   2.899  50.670  1.00  0.00     0.167 C 
HETATM   18  C5  UNL     1      23.071   3.973  51.074  1.00  0.00     0.026 C 
BRANCH  18  19
HETATM   19  C4  UNL     1      23.682   5.021  50.273  1.00  0.00     0.002 C 
HETATM   20  C3  UNL     1      24.745   4.913  49.514  1.00  0.00    -0.001 C 
BRANCH  20  21
HETATM   21  C2  UNL     1      25.494   3.673  49.364  1.00  0.00    -0.010 C 
HETATM   22  C1  UNL     1      26.659   3.522  50.005  1.00  0.00     0.011 C 
ENDBRANCH  20  21
ENDBRANCH  18  19
ENDBRANCH  16  17
ENDBRANCH  14  16
ENDBRANCH   1  14
TORSDOF 5
ENDMDL
MODEL 7
REMARK VINA RESULT:      -7.4      2.069      3.043
REMARK  5 active torsions:
REMARK  status: ('A' for Active; 'I' for Inactive)
REMARK    1  A    between atoms: C2_2  and  C3_3 
REMARK    2  A    between atoms: C4_4  and  C5_5 
REMARK    3  A    between atoms: C6_6  and  O1_7 
REMARK    4  A    between atoms: O1_7  and  N1_8 
REMARK    5  A    between atoms: N1_8  and  C7_9 
ROOT
HETATM    1  C7  UNL     1      25.655   0.680  52.733  1.00  0.00     0.162 A 
HETATM    2  N2  UNL     1      26.957   0.776  52.965  1.00  0.00    -0.222 NA
HETATM    3  C8  UNL     1      27.572   0.251  54.008  1.00  0.00     0.236 A 
HETATM    4  N3  UNL     1      26.790  -0.410  54.856  1.00  0.00    -0.234 NA
HETATM    5  C9  UNL     1      25.458  -0.531  54.655  1.00  0.00     0.114 A 
HETATM    6  S1  UNL     1      24.205  -1.352  55.625  1.00  0.00    -0.073 SA
HETATM    7  C10 UNL     1      22.815  -0.888  54.450  1.00  0.00    -0.008 A 
HETATM    8  C11 UNL     1      23.450  -0.192  53.500  1.00  0.00    -0.028 A 
HETATM    9  C12 UNL     1      24.804   0.013  53.570  1.00  0.00     0.055 A 
HETATM   10  C13 UNL     1      22.454   0.245  52.490  1.00  0.00     0.041 C 
HETATM   11  C14 UNL     1      21.347   0.983  53.201  1.00  0.00     0.005 C 
HETATM   12  C15 UNL     1      20.661   0.131  54.237  1.00  0.00     0.005 C 
HETATM   13  C16 UNL     1      21.404  -1.164  54.480  1.00  0.00     0.047 C 
ENDROOT
BRANCH   1  14
HETATM   14  N1  UNL     1      25.217   1.322  51.552  1.00  0.00    -0.243 N 
HETATM   15  H8  UNL     1      24.895   1.753  50.670  1.00  0.00     0.196 HD
BRANCH  14  16
HETATM   16  O1  UNL     1      25.033   2.666  51.447  1.00  0.00    -0.248 OA
BRANCH  16  17
HETATM   17  C6  UNL     1      25.097   3.369  50.227  1.00  0.00     0.167 C 
HETATM   18  C5  UNL     1      25.988   4.364  50.074  1.00  0.00     0.026 C 
BRANCH  18  19
HETATM   19  C4  UNL     1      26.224   5.212  48.917  1.00  0.00     0.002 C 
HETATM   20  C3  UNL     1      26.207   6.523  48.885  1.00  0.00    -0.001 C 
BRANCH  20  21
HETATM   21  C2  UNL     1      25.935   7.344  50.056  1.00  0.00    -0.010 C 
HETATM   22  C1  UNL     1      24.741   7.935  50.187  1.00  0.00     0.011 C 
ENDBRANCH  20  21
ENDBRANCH  18  19
ENDBRANCH  16  17
ENDBRANCH  14  16
ENDBRANCH   1  14
TORSDOF 5
ENDMDL
MODEL 8
REMARK VINA RESULT:      -7.2      3.225      6.004
REMARK  5 active torsions:
REMARK  status: ('A' for Active; 'I' for Inactive)
REMARK    1  A    between atoms: C2_2  and  C3_3 
REMARK    2  A    between atoms: C4_4  and  C5_5 
REMARK    3  A    between atoms: C6_6  and  O1_7 
REMARK    4  A    between atoms: O1_7  and  N1_8 
REMARK    5  A    between atoms: N1_8  and  C7_9 
ROOT
HETATM    1  C7  UNL     1      23.487   4.504  52.209  1.00  0.00     0.162 A 
HETATM    2  N2  UNL     1      23.937   5.691  51.826  1.00  0.00    -0.222 NA
HETATM    3  C8  UNL     1      23.275   6.527  51.048  1.00  0.00     0.236 A 
HETATM    4  N3  UNL     1      22.080   6.105  50.646  1.00  0.00    -0.234 NA
HETATM    5  C9  UNL     1      21.585   4.902  51.015  1.00  0.00     0.114 A 
HETATM    6  S1  UNL     1      20.035   4.112  50.619  1.00  0.00    -0.073 SA
HETATM    7  C10 UNL     1      20.422   2.571  51.622  1.00  0.00    -0.008 A 
HETATM    8  C11 UNL     1      21.637   2.837  52.116  1.00  0.00    -0.028 A 
HETATM    9  C12 UNL     1      22.266   4.020  51.827  1.00  0.00     0.055 A 
HETATM   10  C13 UNL     1      22.073   1.682  52.941  1.00  0.00     0.041 C 
HETATM   11  C14 UNL     1      21.975   0.433  52.102  1.00  0.00     0.005 C 
HETATM   12  C15 UNL     1      20.576   0.184  51.602  1.00  0.00     0.005 C 
HETATM   13  C16 UNL     1      19.670   1.368  51.857  1.00  0.00     0.047 C 
ENDROOT
BRANCH   1  14
HETATM   14  N1  UNL     1      24.367   3.780  53.044  1.00  0.00    -0.243 N 
HETATM   15  H8  UNL     1      24.990   3.264  53.688  1.00  0.00     0.196 HD
BRANCH  14  16
HETATM   16  O1  UNL     1      25.408   3.036  52.579  1.00  0.00    -0.248 OA
BRANCH  16  17
HETATM   17  C6  UNL     1      25.606   1.680  52.908  1.00  0.00     0.167 C 
HETATM   18  C5  UNL     1      26.329   0.893  52.093  1.00  0.00     0.026 C 
BRANCH  18  19
HETATM   19  C4  UNL     1      26.656  -0.517  52.234  1.00  0.00     0.002 C 
HETATM   20  C3  UNL     1      27.647  -1.030  52.922  1.00  0.00    -0.001 C 
BRANCH  20  21
HETATM   21  C2  UNL     1      28.599  -0.222  53.670  1.00  0.00    -0.010 C 
HETATM   22  C1  UNL     1      29.912  -0.438  53.520  1.00  0.00     0.011 C 
ENDBRANCH  20  21
ENDBRANCH  18  19
ENDBRANCH  16  17
ENDBRANCH  14  16
ENDBRANCH   1  14
TORSDOF 5
ENDMDL
MODEL 9
REMARK VINA RESULT:      -7.2      3.218      6.147
REMARK  5 active torsions:
REMARK  status: ('A' for Active; 'I' for Inactive)
REMARK    1  A    between atoms: C2_2  and  C3_3 
REMARK    2  A    between atoms: C4_4  and  C5_5 
REMARK    3  A    between atoms: C6_6  and  O1_7 
REMARK    4  A    between atoms: O1_7  and  N1_8 
REMARK    5  A    between atoms: N1_8  and  C7_9 
ROOT
HETATM    1  C7  UNL     1      22.938  -0.108  53.018  1.00  0.00     0.162 A 
HETATM    2  N2  UNL     1      23.202  -0.735  54.157  1.00  0.00    -0.222 NA
HETATM    3  C8  UNL     1      22.291  -1.301  54.927  1.00  0.00     0.236 A 
HETATM    4  N3  UNL     1      21.039  -1.209  54.489  1.00  0.00    -0.234 NA
HETATM    5  C9  UNL     1      20.729  -0.578  53.334  1.00  0.00     0.114 A 
HETATM    6  S1  UNL     1      19.154  -0.319  52.536  1.00  0.00    -0.073 SA
HETATM    7  C10 UNL     1      19.901   0.618  51.090  1.00  0.00    -0.008 A 
HETATM    8  C11 UNL     1      21.207   0.619  51.380  1.00  0.00    -0.028 A 
HETATM    9  C12 UNL     1      21.671   0.016  52.520  1.00  0.00     0.055 A 
HETATM   10  C13 UNL     1      21.929   1.341  50.302  1.00  0.00     0.041 C 
HETATM   11  C14 UNL     1      21.302   2.703  50.138  1.00  0.00     0.005 C 
HETATM   12  C15 UNL     1      19.840   2.625  49.787  1.00  0.00     0.005 C 
HETATM   13  C16 UNL     1      19.304   1.217  49.926  1.00  0.00     0.047 C 
ENDROOT
BRANCH   1  14
HETATM   14  N1  UNL     1      24.072   0.422  52.360  1.00  0.00    -0.243 N 
HETATM   15  H8  UNL     1      24.892   0.784  51.846  1.00  0.00     0.196 HD
BRANCH  14  16
HETATM   16  O1  UNL     1      24.886   1.368  52.902  1.00  0.00    -0.248 OA
BRANCH  16  17
HETATM   17  C6  UNL     1      26.280   1.406  52.700  1.00  0.00     0.167 C 
HETATM   18  C5  UNL     1      27.074   1.988  53.616  1.00  0.00     0.026 C 
BRANCH  18  19
HETATM   19  C4  UNL     1      28.520   2.139  53.612  1.00  0.00     0.002 C 
HETATM   20  C3  UNL     1      29.408   1.217  53.894  1.00  0.00    -0.001 C 
BRANCH  20  21
HETATM   21  C2  UNL     1      29.052  -0.144  54.269  1.00  0.00    -0.010 C 
HETATM   22  C1  UNL     1      29.419  -1.164  53.484  1.00  0.00     0.011 C 
ENDBRANCH  20  21
ENDBRANCH  18  19
ENDBRANCH  16  17
ENDBRANCH  14  16
ENDBRANCH   1  14
TORSDOF 5
ENDMDL
