MODEL 1
REMARK VINA RESULT:      -8.1      0.000      0.000
REMARK  3 active torsions:
REMARK  status: ('A' for Active; 'I' for Inactive)
REMARK    1  A    between atoms: N1_1  and  C1_2 
REMARK    2  A    between atoms: C6_9  and  N4_10 
REMARK    3  A    between atoms: N4_10  and  C7_11 
ROOT
HETATM    1  C1  UNL     1      28.685  -2.152  53.207  1.00  0.00     0.026 A 
HETATM    2  C2  UNL     1      29.872  -1.556  53.648  1.00  0.00     0.031 A 
HETATM    3  C3  UNL     1      29.995  -0.189  53.817  1.00  0.00     0.035 A 
HETATM    4  C4  UNL     1      28.930   0.645  53.551  1.00  0.00     0.072 A 
HETATM    5  N2  UNL     1      29.054   1.966  53.715  1.00  0.00    -0.241 NA
HETATM    6  C5  UNL     1      28.001   2.777  53.450  1.00  0.00     0.236 A 
HETATM    7  N3  UNL     1      26.829   2.239  53.018  1.00  0.00    -0.224 NA
HETATM    8  C6  UNL     1      26.720   0.923  52.859  1.00  0.00     0.141 A 
HETATM    9  C13 UNL     1      27.750   0.040  53.111  1.00  0.00     0.041 A 
HETATM   10  C14 UNL     1      27.614  -1.314  52.939  1.00  0.00     0.046 A 
ENDROOT
BRANCH   8  11
HETATM   11  N4  UNL     1      25.460   0.459  52.407  1.00  0.00    -0.348 N 
HETATM   12  H6  UNL     1      25.112  -0.485  52.142  1.00  0.00     0.167 HD
BRANCH  11  13
HETATM   13  C7  UNL     1      24.379   1.362  52.242  1.00  0.00     0.121 C 
HETATM   14  C8  UNL     1      23.164   1.105  52.665  1.00  0.00     0.074 C 
HETATM   15  C9  UNL     1      22.871  -0.154  53.339  1.00  0.00     0.057 C 
HETATM   16  N5  UNL     1      22.143   2.073  52.454  1.00  0.00    -0.245 NA
HETATM   17  C10 UNL     1      21.583  -0.255  53.705  1.00  0.00     0.038 C 
HETATM   18 CL1  UNL     1      21.137  -1.747  54.528  1.00  0.00    -0.084 Cl
HETATM   19  C11 UNL     1      20.596   0.788  53.450  1.00  0.00     0.058 C 
HETATM   20  C12 UNL     1      20.913   1.782  52.642  1.00  0.00     0.088 C 
ENDBRANCH  11  13
ENDBRANCH   8  11
BRANCH   1  21
HETATM   21  N1  UNL     1      28.575  -3.548  53.041  1.00  0.00    -0.399 N 
HETATM   22  H1  UNL     1      28.248  -4.035  52.164  1.00  0.00     0.156 HD
HETATM   23  H2  UNL     1      28.876  -3.958  53.936  1.00  0.00     0.156 HD
ENDBRANCH   1  21
TORSDOF 3
ENDMDL
MODEL 2
REMARK VINA RESULT:      -8.1      2.562      7.048
REMARK  3 active torsions:
REMARK  status: ('A' for Active; 'I' for Inactive)
REMARK    1  A    between atoms: N1_1  and  C1_2 
REMARK    2  A    between atoms: C6_9  and  N4_10 
REMARK    3  A    between atoms: N4_10  and  C7_11 
ROOT
HETATM    1  C1  UNL     1      20.567   0.582  51.462  1.00  0.00     0.026 A 
HETATM    2  C2  UNL     1      19.615   0.029  52.326  1.00  0.00     0.031 A 
HETATM    3  C3  UNL     1      19.964  -0.594  53.511  1.00  0.00     0.035 A 
HETATM    4  C4  UNL     1      21.288  -0.689  53.884  1.00  0.00     0.072 A 
HETATM    5  N2  UNL     1      21.621  -1.292  55.031  1.00  0.00    -0.241 NA
HETATM    6  C5  UNL     1      22.925  -1.380  55.388  1.00  0.00     0.236 A 
HETATM    7  N3  UNL     1      23.882  -0.856  54.577  1.00  0.00    -0.224 NA
HETATM    8  C6  UNL     1      23.537  -0.260  53.440  1.00  0.00     0.141 A 
HETATM    9  C13 UNL     1      22.230  -0.134  53.015  1.00  0.00     0.041 A 
HETATM   10  C14 UNL     1      21.898   0.486  51.837  1.00  0.00     0.046 A 
ENDROOT
BRANCH   8  11
HETATM   11  N4  UNL     1      24.605   0.254  52.664  1.00  0.00    -0.348 N 
HETATM   12  H6  UNL     1      24.854   0.159  51.658  1.00  0.00     0.167 HD
BRANCH  11  13
HETATM   13  C7  UNL     1      25.596   1.075  53.260  1.00  0.00     0.121 C 
HETATM   14  C8  UNL     1      26.821   0.664  53.488  1.00  0.00     0.074 C 
HETATM   15  C9  UNL     1      27.222  -0.690  53.125  1.00  0.00     0.057 C 
HETATM   16  N5  UNL     1      27.746   1.561  54.092  1.00  0.00    -0.245 NA
HETATM   17  C10 UNL     1      28.505  -0.945  53.427  1.00  0.00     0.038 C 
HETATM   18 CL1  UNL     1      29.077  -2.562  53.022  1.00  0.00    -0.084 Cl
HETATM   19  C11 UNL     1      29.389   0.033  54.047  1.00  0.00     0.058 C 
HETATM   20  C12 UNL     1      28.871   1.144  54.534  1.00  0.00     0.088 C 
ENDBRANCH  11  13
ENDBRANCH   8  11
BRANCH   1  21
HETATM   21  N1  UNL     1      20.195   1.214  50.258  1.00  0.00    -0.399 N 
HETATM   22  H1  UNL     1      19.569   0.797  49.517  1.00  0.00     0.156 HD
HETATM   23  H2  UNL     1      20.657   2.134  50.274  1.00  0.00     0.156 HD
ENDBRANCH   1  21
TORSDOF 3
ENDMDL
MODEL 3
REMARK VINA RESULT:      -8.0      2.803      6.668
REMARK  3 active torsions:
REMARK  status: ('A' for Active; 'I' for Inactive)
REMARK    1  A    between atoms: N1_1  and  C1_2 
REMARK    2  A    between atoms: C6_9  and  N4_10 
REMARK    3  A    between atoms: N4_10  and  C7_11 
ROOT
HETATM    1  C1  UNL     1      25.334   3.220  50.583  1.00  0.00     0.026 A 
HETATM    2  C2  UNL     1      24.269   3.402  49.693  1.00  0.00     0.031 A 
HETATM    3  C3  UNL     1      23.095   2.677  49.786  1.00  0.00     0.035 A 
HETATM    4  C4  UNL     1      22.935   1.734  50.780  1.00  0.00     0.072 A 
HETATM    5  N2  UNL     1      21.798   1.036  50.866  1.00  0.00    -0.241 NA
HETATM    6  C5  UNL     1      21.651   0.111  51.845  1.00  0.00     0.236 A 
HETATM    7  N3  UNL     1      22.662  -0.098  52.730  1.00  0.00    -0.224 NA
HETATM    8  C6  UNL     1      23.788   0.604  52.632  1.00  0.00     0.141 A 
HETATM    9  C13 UNL     1      24.004   1.560  51.662  1.00  0.00     0.041 A 
HETATM   10  C14 UNL     1      25.174   2.272  51.580  1.00  0.00     0.046 A 
ENDROOT
BRANCH   8  11
HETATM   11  N4  UNL     1      24.781   0.314  53.601  1.00  0.00    -0.348 N 
HETATM   12  H6  UNL     1      25.014   0.742  54.520  1.00  0.00     0.167 HD
BRANCH  11  13
HETATM   13  C7  UNL     1      25.699  -0.746  53.392  1.00  0.00     0.121 C 
HETATM   14  C8  UNL     1      26.994  -0.611  53.556  1.00  0.00     0.074 C 
HETATM   15  C9  UNL     1      27.553   0.670  53.971  1.00  0.00     0.057 C 
HETATM   16  N5  UNL     1      27.838  -1.733  53.322  1.00  0.00    -0.245 NA
HETATM   17  C10 UNL     1      28.891   0.633  54.090  1.00  0.00     0.038 C 
HETATM   18 CL1  UNL     1      29.654   2.141  54.589  1.00  0.00    -0.084 Cl
HETATM   19  C11 UNL     1      29.683  -0.563  53.831  1.00  0.00     0.058 C 
HETATM   20  C12 UNL     1      29.106  -1.597  53.251  1.00  0.00     0.088 C 
ENDBRANCH  11  13
ENDBRANCH   8  11
BRANCH   1  21
HETATM   21  N1  UNL     1      26.526   3.968  50.474  1.00  0.00    -0.399 N 
HETATM   22  H1  UNL     1      26.674   4.789  49.830  1.00  0.00     0.156 HD
HETATM   23  H2  UNL     1      27.182   3.539  51.142  1.00  0.00     0.156 HD
ENDBRANCH   1  21
TORSDOF 3
ENDMDL
MODEL 4
REMARK VINA RESULT:      -8.0      2.424      6.334
REMARK  3 active torsions:
REMARK  status: ('A' for Active; 'I' for Inactive)
REMARK    1  A    between atoms: N1_1  and  C1_2 
REMARK    2  A    between atoms: C6_9  and  N4_10 
REMARK    3  A    between atoms: N4_10  and  C7_11 
ROOT
HETATM    1  C1  UNL     1      22.861  -0.961  54.845  1.00  0.00     0.026 A 
HETATM    2  C2  UNL     1      21.511  -0.597  54.903  1.00  0.00     0.031 A 
HETATM    3  C3  UNL     1      20.956   0.331  54.040  1.00  0.00     0.035 A 
HETATM    4  C4  UNL     1      21.733   0.937  53.076  1.00  0.00     0.072 A 
HETATM    5  N2  UNL     1      21.193   1.834  52.244  1.00  0.00    -0.241 NA
HETATM    6  C5  UNL     1      21.966   2.424  51.300  1.00  0.00     0.236 A 
HETATM    7  N3  UNL     1      23.283   2.100  51.210  1.00  0.00    -0.224 NA
HETATM    8  C6  UNL     1      23.807   1.206  52.044  1.00  0.00     0.141 A 
HETATM    9  C13 UNL     1      23.080   0.567  53.027  1.00  0.00     0.041 A 
HETATM   10  C14 UNL     1      23.642  -0.351  53.877  1.00  0.00     0.046 A 
ENDROOT
BRANCH   8  11
HETATM   11  N4  UNL     1      25.187   0.935  51.870  1.00  0.00    -0.348 N 
HETATM   12  H6  UNL     1      25.700   0.247  51.281  1.00  0.00     0.167 HD
BRANCH  11  13
HETATM   13  C7  UNL     1      26.161   1.681  52.582  1.00  0.00     0.121 C 
HETATM   14  C8  UNL     1      27.266   1.149  53.047  1.00  0.00     0.074 C 
HETATM   15  C9  UNL     1      27.543  -0.268  52.845  1.00  0.00     0.057 C 
HETATM   16  N5  UNL     1      28.185   1.978  53.750  1.00  0.00    -0.245 NA
HETATM   17  C10 UNL     1      28.713  -0.646  53.384  1.00  0.00     0.038 C 
HETATM   18 CL1  UNL     1      29.131  -2.347  53.187  1.00  0.00    -0.084 Cl
HETATM   19  C11 UNL     1      29.600   0.270  54.091  1.00  0.00     0.058 C 
HETATM   20  C12 UNL     1      29.155   1.470  54.410  1.00  0.00     0.088 C 
ENDBRANCH  11  13
ENDBRANCH   8  11
BRANCH   1  21
HETATM   21  N1  UNL     1      23.411  -1.909  55.732  1.00  0.00    -0.399 N 
HETATM   22  H1  UNL     1      23.981  -2.750  55.450  1.00  0.00     0.156 HD
HETATM   23  H2  UNL     1      23.134  -1.599  56.674  1.00  0.00     0.156 HD
ENDBRANCH   1  21
TORSDOF 3
ENDMDL
MODEL 5
REMARK VINA RESULT:      -7.9      2.636      6.868
REMARK  3 active torsions:
REMARK  status: ('A' for Active; 'I' for Inactive)
REMARK    1  A    between atoms: N1_1  and  C1_2 
REMARK    2  A    between atoms: C6_9  and  N4_10 
REMARK    3  A    between atoms: N4_10  and  C7_11 
ROOT
HETATM    1  C1  UNL     1      20.738  -0.526  53.335  1.00  0.00     0.026 A 
HETATM    2  C2  UNL     1      20.110   0.110  52.258  1.00  0.00     0.031 A 
HETATM    3  C3  UNL     1      20.796   0.932  51.381  1.00  0.00     0.035 A 
HETATM    4  C4  UNL     1      22.147   1.153  51.546  1.00  0.00     0.072 A 
HETATM    5  N2  UNL     1      22.805   1.949  50.697  1.00  0.00    -0.241 NA
HETATM    6  C5  UNL     1      24.133   2.160  50.868  1.00  0.00     0.236 A 
HETATM    7  N3  UNL     1      24.782   1.561  51.903  1.00  0.00    -0.224 NA
HETATM    8  C6  UNL     1      24.114   0.773  52.740  1.00  0.00     0.141 A 
HETATM    9  C13 UNL     1      22.764   0.514  52.625  1.00  0.00     0.041 A 
HETATM   10  C14 UNL     1      22.095  -0.303  53.501  1.00  0.00     0.046 A 
ENDROOT
BRANCH   8  11
HETATM   11  N4  UNL     1      24.877   0.195  53.784  1.00  0.00    -0.348 N 
HETATM   12  H6  UNL     1      24.902   0.360  54.811  1.00  0.00     0.167 HD
BRANCH  11  13
HETATM   13  C7  UNL     1      25.828  -0.818  53.503  1.00  0.00     0.121 C 
HETATM   14  C8  UNL     1      27.123  -0.631  53.607  1.00  0.00     0.074 C 
HETATM   15  C9  UNL     1      27.647   0.663  54.028  1.00  0.00     0.057 C 
HETATM   16  N5  UNL     1      28.001  -1.709  53.302  1.00  0.00    -0.245 NA
HETATM   17  C10 UNL     1      28.989   0.682  54.081  1.00  0.00     0.038 C 
HETATM   18 CL1  UNL     1      29.711   2.209  54.582  1.00  0.00    -0.084 Cl
HETATM   19  C11 UNL     1      29.818  -0.471  53.752  1.00  0.00     0.058 C 
HETATM   20  C12 UNL     1      29.257  -1.515  53.172  1.00  0.00     0.088 C 
ENDBRANCH  11  13
ENDBRANCH   8  11
BRANCH   1  21
HETATM   21  N1  UNL     1      20.024  -1.361  54.219  1.00  0.00    -0.399 N 
HETATM   22  H1  UNL     1      19.616  -1.064  55.145  1.00  0.00     0.156 HD
HETATM   23  H2  UNL     1      19.998  -2.286  53.766  1.00  0.00     0.156 HD
ENDBRANCH   1  21
TORSDOF 3
ENDMDL
MODEL 6
REMARK VINA RESULT:      -7.6      4.353      5.737
REMARK  3 active torsions:
REMARK  status: ('A' for Active; 'I' for Inactive)
REMARK    1  A    between atoms: N1_1  and  C1_2 
REMARK    2  A    between atoms: C6_9  and  N4_10 
REMARK    3  A    between atoms: N4_10  and  C7_11 
ROOT
HETATM    1  C1  UNL     1      24.281  -0.394  53.480  1.00  0.00     0.026 A 
HETATM    2  C2  UNL     1      24.934  -0.632  54.695  1.00  0.00     0.031 A 
HETATM    3  C3  UNL     1      26.149  -0.049  55.009  1.00  0.00     0.035 A 
HETATM    4  C4  UNL     1      26.765   0.801  54.116  1.00  0.00     0.072 A 
HETATM    5  N2  UNL     1      27.939   1.362  54.424  1.00  0.00    -0.241 NA
HETATM    6  C5  UNL     1      28.537   2.197  53.538  1.00  0.00     0.236 A 
HETATM    7  N3  UNL     1      27.936   2.454  52.346  1.00  0.00    -0.224 NA
HETATM    8  C6  UNL     1      26.768   1.889  52.053  1.00  0.00     0.141 A 
HETATM    9  C13 UNL     1      26.105   1.032  52.906  1.00  0.00     0.041 A 
HETATM   10  C14 UNL     1      24.900   0.460  52.582  1.00  0.00     0.046 A 
ENDROOT
BRANCH   8  11
HETATM   11  N4  UNL     1      26.223   2.220  50.787  1.00  0.00    -0.348 N 
HETATM   12  H6  UNL     1      26.251   1.743  49.863  1.00  0.00     0.167 HD
BRANCH  11  13
HETATM   13  C7  UNL     1      25.470   3.410  50.619  1.00  0.00     0.121 C 
HETATM   14  C8  UNL     1      25.906   4.439  49.932  1.00  0.00     0.074 C 
HETATM   15  C9  UNL     1      27.219   4.397  49.298  1.00  0.00     0.057 C 
HETATM   16  N5  UNL     1      25.079   5.591  49.818  1.00  0.00    -0.245 NA
HETATM   17  C10 UNL     1      27.508   5.530  48.637  1.00  0.00     0.038 C 
HETATM   18 CL1  UNL     1      29.078   5.568  47.838  1.00  0.00    -0.084 Cl
HETATM   19  C11 UNL     1      26.600   6.668  48.569  1.00  0.00     0.058 C 
HETATM   20  C12 UNL     1      25.542   6.689  49.356  1.00  0.00     0.088 C 
ENDBRANCH  11  13
ENDBRANCH   8  11
BRANCH   1  21
HETATM   21  N1  UNL     1      23.042  -0.996  53.175  1.00  0.00    -0.399 N 
HETATM   22  H1  UNL     1      22.309  -0.593  52.533  1.00  0.00     0.156 HD
HETATM   23  H2  UNL     1      23.026  -1.879  53.705  1.00  0.00     0.156 HD
ENDBRANCH   1  21
TORSDOF 3
ENDMDL
MODEL 7
REMARK VINA RESULT:      -7.4      3.667      5.677
REMARK  3 active torsions:
REMARK  status: ('A' for Active; 'I' for Inactive)
REMARK    1  A    between atoms: N1_1  and  C1_2 
REMARK    2  A    between atoms: C6_9  and  N4_10 
REMARK    3  A    between atoms: N4_10  and  C7_11 
ROOT
HETATM    1  C1  UNL     1      21.946  -0.667  54.290  1.00  0.00     0.026 A 
HETATM    2  C2  UNL     1      22.659  -1.334  55.293  1.00  0.00     0.031 A 
HETATM    3  C3  UNL     1      24.039  -1.290  55.375  1.00  0.00     0.035 A 
HETATM    4  C4  UNL     1      24.769  -0.573  54.450  1.00  0.00     0.072 A 
HETATM    5  N2  UNL     1      26.103  -0.534  54.533  1.00  0.00    -0.241 NA
HETATM    6  C5  UNL     1      26.811   0.173  53.618  1.00  0.00     0.236 A 
HETATM    7  N3  UNL     1      26.157   0.835  52.626  1.00  0.00    -0.224 NA
HETATM    8  C6  UNL     1      24.830   0.787  52.557  1.00  0.00     0.141 A 
HETATM    9  C13 UNL     1      24.048   0.088  53.452  1.00  0.00     0.041 A 
HETATM   10  C14 UNL     1      22.679   0.053  53.361  1.00  0.00     0.046 A 
ENDROOT
BRANCH   8  11
HETATM   11  N4  UNL     1      24.242   1.509  51.488  1.00  0.00    -0.348 N 
HETATM   12  H6  UNL     1      24.039   1.259  50.499  1.00  0.00     0.167 HD
BRANCH  11  13
HETATM   13  C7  UNL     1      23.803   2.843  51.680  1.00  0.00     0.121 C 
HETATM   14  C8  UNL     1      24.379   3.873  51.107  1.00  0.00     0.074 C 
HETATM   15  C9  UNL     1      25.525   3.679  50.226  1.00  0.00     0.057 C 
HETATM   16  N5  UNL     1      23.866   5.177  51.359  1.00  0.00    -0.245 NA
HETATM   17  C10 UNL     1      25.991   4.835  49.726  1.00  0.00     0.038 C 
HETATM   18 CL1  UNL     1      27.379   4.696  48.649  1.00  0.00    -0.084 Cl
HETATM   19  C11 UNL     1      25.406   6.134  50.036  1.00  0.00     0.058 C 
HETATM   20  C12 UNL     1      24.520   6.218  51.010  1.00  0.00     0.088 C 
ENDBRANCH  11  13
ENDBRANCH   8  11
BRANCH   1  21
HETATM   21  N1  UNL     1      20.538  -0.722  54.221  1.00  0.00    -0.399 N 
HETATM   22  H1  UNL     1      19.879  -0.013  54.641  1.00  0.00     0.156 HD
HETATM   23  H2  UNL     1      20.320  -1.576  53.690  1.00  0.00     0.156 HD
ENDBRANCH   1  21
TORSDOF 3
ENDMDL
MODEL 8
REMARK VINA RESULT:      -7.3      4.566      6.092
REMARK  3 active torsions:
REMARK  status: ('A' for Active; 'I' for Inactive)
REMARK    1  A    between atoms: N1_1  and  C1_2 
REMARK    2  A    between atoms: C6_9  and  N4_10 
REMARK    3  A    between atoms: N4_10  and  C7_11 
ROOT
HETATM    1  C1  UNL     1      28.359   1.007  53.702  1.00  0.00     0.026 A 
HETATM    2  C2  UNL     1      27.666   0.199  54.612  1.00  0.00     0.031 A 
HETATM    3  C3  UNL     1      26.305  -0.027  54.514  1.00  0.00     0.035 A 
HETATM    4  C4  UNL     1      25.575   0.549  53.495  1.00  0.00     0.072 A 
HETATM    5  N2  UNL     1      24.259   0.328  53.405  1.00  0.00    -0.241 NA
HETATM    6  C5  UNL     1      23.551   0.899  52.400  1.00  0.00     0.236 A 
HETATM    7  N3  UNL     1      24.185   1.692  51.495  1.00  0.00    -0.224 NA
HETATM    8  C6  UNL     1      25.494   1.903  51.598  1.00  0.00     0.141 A 
HETATM    9  C13 UNL     1      26.276   1.354  52.593  1.00  0.00     0.041 A 
HETATM   10  C14 UNL     1      27.625   1.586  52.680  1.00  0.00     0.046 A 
ENDROOT
BRANCH   8  11
HETATM   11  N4  UNL     1      26.063   2.742  50.608  1.00  0.00    -0.348 N 
HETATM   12  H6  UNL     1      26.973   2.719  50.104  1.00  0.00     0.167 HD
BRANCH  11  13
HETATM   13  C7  UNL     1      25.350   3.870  50.127  1.00  0.00     0.121 C 
HETATM   14  C8  UNL     1      25.913   4.821  49.420  1.00  0.00     0.074 C 
HETATM   15  C9  UNL     1      27.332   4.753  49.093  1.00  0.00     0.057 C 
HETATM   16  N5  UNL     1      25.115   5.915  48.980  1.00  0.00    -0.245 NA
HETATM   17  C10 UNL     1      27.744   5.805  48.367  1.00  0.00     0.038 C 
HETATM   18 CL1  UNL     1      29.450   5.806  47.925  1.00  0.00    -0.084 Cl
HETATM   19  C11 UNL     1      26.859   6.888  47.956  1.00  0.00     0.058 C 
HETATM   20  C12 UNL     1      25.654   6.964  48.488  1.00  0.00     0.088 C 
ENDBRANCH  11  13
ENDBRANCH   8  11
BRANCH   1  21
HETATM   21  N1  UNL     1      29.747   1.226  53.816  1.00  0.00    -0.399 N 
HETATM   22  H1  UNL     1      30.335   1.785  53.141  1.00  0.00     0.156 HD
HETATM   23  H2  UNL     1      30.035   0.736  54.675  1.00  0.00     0.156 HD
ENDBRANCH   1  21
TORSDOF 3
ENDMDL
MODEL 9
REMARK VINA RESULT:      -7.3      3.706      5.130
REMARK  3 active torsions:
REMARK  status: ('A' for Active; 'I' for Inactive)
REMARK    1  A    between atoms: N1_1  and  C1_2 
REMARK    2  A    between atoms: C6_9  and  N4_10 
REMARK    3  A    between atoms: N4_10  and  C7_11 
ROOT
HETATM    1  C1  UNL     1      28.196   1.582  53.689  1.00  0.00     0.026 A 
HETATM    2  C2  UNL     1      28.153   0.184  53.747  1.00  0.00     0.031 A 
HETATM    3  C3  UNL     1      26.974  -0.527  53.610  1.00  0.00     0.035 A 
HETATM    4  C4  UNL     1      25.781   0.135  53.408  1.00  0.00     0.072 A 
HETATM    5  N2  UNL     1      24.644  -0.556  53.276  1.00  0.00    -0.241 NA
HETATM    6  C5  UNL     1      23.477   0.104  53.078  1.00  0.00     0.236 A 
HETATM    7  N3  UNL     1      23.474   1.463  53.017  1.00  0.00    -0.224 NA
HETATM    8  C6  UNL     1      24.613   2.137  53.150  1.00  0.00     0.141 A 
HETATM    9  C13 UNL     1      25.835   1.530  53.352  1.00  0.00     0.041 A 
HETATM   10  C14 UNL     1      26.997   2.247  53.487  1.00  0.00     0.046 A 
ENDROOT
BRANCH   8  11
HETATM   11  N4  UNL     1      24.507   3.548  53.071  1.00  0.00    -0.348 N 
HETATM   12  H6  UNL     1      25.010   4.319  53.555  1.00  0.00     0.167 HD
BRANCH  11  13
HETATM   13  C7  UNL     1      23.568   4.149  52.194  1.00  0.00     0.121 C 
HETATM   14  C8  UNL     1      23.895   4.628  51.018  1.00  0.00     0.074 C 
HETATM   15  C9  UNL     1      25.275   4.558  50.553  1.00  0.00     0.057 C 
HETATM   16  N5  UNL     1      22.882   5.214  50.208  1.00  0.00    -0.245 NA
HETATM   17  C10 UNL     1      25.435   5.093  49.332  1.00  0.00     0.038 C 
HETATM   18 CL1  UNL     1      27.075   5.052  48.689  1.00  0.00    -0.084 Cl
HETATM   19  C11 UNL     1      24.340   5.676  48.565  1.00  0.00     0.058 C 
HETATM   20  C12 UNL     1      23.184   5.888  49.165  1.00  0.00     0.088 C 
ENDBRANCH  11  13
ENDBRANCH   8  11
BRANCH   1  21
HETATM   21  N1  UNL     1      29.407   2.291  53.831  1.00  0.00    -0.399 N 
HETATM   22  H1  UNL     1      29.505   3.253  54.254  1.00  0.00     0.156 HD
HETATM   23  H2  UNL     1      30.135   1.676  53.441  1.00  0.00     0.156 HD
ENDBRANCH   1  21
TORSDOF 3
ENDMDL
