MODEL 1
REMARK VINA RESULT:      -8.2      0.000      0.000
REMARK  4 active torsions:
REMARK  status: ('A' for Active; 'I' for Inactive)
REMARK    1  A    between atoms: N1_1  and  C1_2 
REMARK    2  A    between atoms: N2_5  and  C4_6 
REMARK    3  A    between atoms: C4_6  and  C5_7 
REMARK    4  A    between atoms: C7_9  and  N3_10 
ROOT
HETATM    1  N3  UNL     1      23.424   2.570  51.691  1.00  0.00    -0.336 N 
HETATM    2  C8  UNL     1      22.125   2.528  51.158  1.00  0.00     0.098 C 
HETATM    3  C9  UNL     1      21.195   2.359  50.241  1.00  0.00    -0.032 C 
HETATM    4  C10 UNL     1      21.735   1.988  48.921  1.00  0.00     0.064 C 
HETATM    5  C11 UNL     1      20.434   1.957  48.105  1.00  0.00     0.173 C 
HETATM    6  O1  UNL     1      19.563   2.779  48.824  1.00  0.00    -0.379 OA
HETATM    7  C12 UNL     1      19.746   2.384  50.168  1.00  0.00     0.176 C 
HETATM    8  C13 UNL     1      18.958   1.198  50.503  1.00  0.00     0.212 C 
HETATM    9  O2  UNL     1      19.615   0.014  50.915  1.00  0.00    -0.348 OA
HETATM   10  C14 UNL     1      20.412   0.133  52.076  1.00  0.00     0.069 A 
HETATM   11  C15 UNL     1      19.904   0.355  53.330  1.00  0.00     0.037 A 
HETATM   12  C16 UNL     1      20.741   0.485  54.419  1.00  0.00     0.004 A 
HETATM   13  C17 UNL     1      22.128   0.390  54.219  1.00  0.00     0.012 A 
HETATM   14  C18 UNL     1      22.446   0.168  52.906  1.00  0.00    -0.024 A 
HETATM   15  C19 UNL     1      21.740   0.011  51.748  1.00  0.00     0.048 A 
HETATM   16  C20 UNL     1      23.892   0.305  52.663  1.00  0.00    -0.001 A 
HETATM   17  C21 UNL     1      24.245   1.464  52.090  1.00  0.00     0.136 A 
HETATM   18  N4  UNL     1      25.656   1.638  51.833  1.00  0.00    -0.247 NA
HETATM   19  C22 UNL     1      26.365   0.606  52.217  1.00  0.00     0.092 A 
HETATM   20  C23 UNL     1      26.073  -0.701  52.852  1.00  0.00     0.051 A 
HETATM   21  C24 UNL     1      24.591  -0.872  53.162  1.00  0.00     0.048 A 
ENDROOT
BRANCH   1  22
HETATM   22  C7  UNL     1      23.995   3.890  51.885  1.00  0.00     0.092 C 
HETATM   23  C6  UNL     1      22.892   4.925  51.968  1.00  0.00     0.032 C 
HETATM   24  C5  UNL     1      23.699   5.751  50.947  1.00  0.00     0.018 C 
HETATM   25  C25 UNL     1      24.514   4.531  50.616  1.00  0.00     0.032 C 
BRANCH  24  26
HETATM   26  C4  UNL     1      24.348   6.897  51.635  1.00  0.00     0.280 C 
BRANCH  26  27
HETATM   27  N2  UNL     1      24.603   7.982  50.782  1.00  0.00     0.122 N 
HETATM   28  C1  UNL     1      25.831   7.850  50.000  1.00  0.00     0.453 C 
HETATM   29  C2  UNL     1      25.087   8.622  48.912  1.00  0.00     0.098 C 
HETATM   30  C3  UNL     1      23.781   8.184  49.624  1.00  0.00     0.279 C 
BRANCH  28  31
HETATM   31  N1  UNL     1      26.929   8.569  50.613  1.00  0.00     0.112 N 
HETATM   32  H1  UNL     1      27.412   9.131  49.868  1.00  0.00     0.315 HD
HETATM   33  H2  UNL     1      27.631   7.881  50.942  1.00  0.00     0.315 HD
ENDBRANCH  28  31
ENDBRANCH  26  27
ENDBRANCH  24  26
ENDBRANCH   1  22
TORSDOF 4
ENDMDL
MODEL 2
REMARK VINA RESULT:      -8.2      1.934      6.112
REMARK  4 active torsions:
REMARK  status: ('A' for Active; 'I' for Inactive)
REMARK    1  A    between atoms: N1_1  and  C1_2 
REMARK    2  A    between atoms: N2_5  and  C4_6 
REMARK    3  A    between atoms: C4_6  and  C5_7 
REMARK    4  A    between atoms: C7_9  and  N3_10 
ROOT
HETATM    1  N3  UNL     1      23.684   3.363  51.488  1.00  0.00    -0.336 N 
HETATM    2  C8  UNL     1      22.830   2.247  51.506  1.00  0.00     0.098 C 
HETATM    3  C9  UNL     1      21.849   1.477  51.932  1.00  0.00    -0.032 C 
HETATM    4  C10 UNL     1      21.152   2.016  53.113  1.00  0.00     0.064 C 
HETATM    5  C11 UNL     1      20.166   0.868  53.380  1.00  0.00     0.173 C 
HETATM    6  O1  UNL     1      20.766  -0.242  52.780  1.00  0.00    -0.379 OA
HETATM    7  C12 UNL     1      21.208   0.240  51.527  1.00  0.00     0.176 C 
HETATM    8  C13 UNL     1      20.136   0.242  50.532  1.00  0.00     0.212 C 
HETATM    9  O2  UNL     1      19.727   1.464  49.947  1.00  0.00    -0.348 OA
HETATM   10  C14 UNL     1      20.732   2.170  49.246  1.00  0.00     0.069 A 
HETATM   11  C15 UNL     1      21.297   1.733  48.077  1.00  0.00     0.037 A 
HETATM   12  C16 UNL     1      22.292   2.460  47.458  1.00  0.00     0.004 A 
HETATM   13  C17 UNL     1      22.721   3.660  48.052  1.00  0.00     0.012 A 
HETATM   14  C18 UNL     1      22.044   3.932  49.210  1.00  0.00    -0.024 A 
HETATM   15  C19 UNL     1      21.051   3.323  49.922  1.00  0.00     0.048 A 
HETATM   16  C20 UNL     1      22.652   5.053  49.948  1.00  0.00    -0.001 A 
HETATM   17  C21 UNL     1      23.398   4.678  50.997  1.00  0.00     0.136 A 
HETATM   18  N4  UNL     1      24.012   5.749  51.748  1.00  0.00    -0.247 NA
HETATM   19  C22 UNL     1      23.726   6.930  51.261  1.00  0.00     0.092 A 
HETATM   20  C23 UNL     1      22.924   7.440  50.123  1.00  0.00     0.051 A 
HETATM   21  C24 UNL     1      22.308   6.313  49.303  1.00  0.00     0.048 A 
ENDROOT
BRANCH   1  22
HETATM   22  C7  UNL     1      25.024   3.152  52.004  1.00  0.00     0.092 C 
HETATM   23  C6  UNL     1      25.534   1.788  51.582  1.00  0.00     0.032 C 
HETATM   24  C5  UNL     1      25.943   1.575  53.053  1.00  0.00     0.018 C 
HETATM   25  C25 UNL     1      25.067   2.729  53.457  1.00  0.00     0.032 C 
BRANCH  24  26
HETATM   26  C4  UNL     1      27.418   1.700  53.183  1.00  0.00     0.280 C 
BRANCH  26  27
HETATM   27  N2  UNL     1      28.007   0.622  53.861  1.00  0.00     0.122 N 
HETATM   28  C1  UNL     1      28.063  -0.613  53.083  1.00  0.00     0.453 C 
HETATM   29  C2  UNL     1      29.364  -0.893  53.832  1.00  0.00     0.098 C 
HETATM   30  C3  UNL     1      29.418   0.629  54.121  1.00  0.00     0.279 C 
BRANCH  28  31
HETATM   31  N1  UNL     1      26.967  -1.500  53.414  1.00  0.00     0.112 N 
HETATM   32  H1  UNL     1      27.321  -2.489  53.380  1.00  0.00     0.315 HD
HETATM   33  H2  UNL     1      26.251  -1.434  52.669  1.00  0.00     0.315 HD
ENDBRANCH  28  31
ENDBRANCH  26  27
ENDBRANCH  24  26
ENDBRANCH   1  22
TORSDOF 4
ENDMDL
MODEL 3
REMARK VINA RESULT:      -8.0      1.959      6.108
REMARK  4 active torsions:
REMARK  status: ('A' for Active; 'I' for Inactive)
REMARK    1  A    between atoms: N1_1  and  C1_2 
REMARK    2  A    between atoms: N2_5  and  C4_6 
REMARK    3  A    between atoms: C4_6  and  C5_7 
REMARK    4  A    between atoms: C7_9  and  N3_10 
ROOT
HETATM    1  N3  UNL     1      23.381   4.122  50.830  1.00  0.00    -0.336 N 
HETATM    2  C8  UNL     1      22.440   3.082  50.761  1.00  0.00     0.098 C 
HETATM    3  C9  UNL     1      21.399   2.362  51.126  1.00  0.00    -0.032 C 
HETATM    4  C10 UNL     1      20.740   2.860  52.346  1.00  0.00     0.064 C 
HETATM    5  C11 UNL     1      19.664   1.778  52.523  1.00  0.00     0.173 C 
HETATM    6  O1  UNL     1      20.176   0.674  51.837  1.00  0.00    -0.379 OA
HETATM    7  C12 UNL     1      20.662   1.216  50.625  1.00  0.00     0.176 C 
HETATM    8  C13 UNL     1      19.599   1.383  49.634  1.00  0.00     0.212 C 
HETATM    9  O2  UNL     1      19.292   2.676  49.148  1.00  0.00    -0.348 OA
HETATM   10  C14 UNL     1      20.354   3.351  48.505  1.00  0.00     0.069 A 
HETATM   11  C15 UNL     1      20.889   2.963  47.304  1.00  0.00     0.037 A 
HETATM   12  C16 UNL     1      21.943   3.655  46.743  1.00  0.00     0.004 A 
HETATM   13  C17 UNL     1      22.463   4.766  47.429  1.00  0.00     0.012 A 
HETATM   14  C18 UNL     1      21.804   4.999  48.606  1.00  0.00    -0.024 A 
HETATM   15  C19 UNL     1      20.761   4.418  49.269  1.00  0.00     0.048 A 
HETATM   16  C20 UNL     1      22.496   6.006  49.429  1.00  0.00    -0.001 A 
HETATM   17  C21 UNL     1      23.205   5.491  50.444  1.00  0.00     0.136 A 
HETATM   18  N4  UNL     1      23.898   6.447  51.277  1.00  0.00    -0.247 NA
HETATM   19  C22 UNL     1      23.711   7.681  50.885  1.00  0.00     0.092 A 
HETATM   20  C23 UNL     1      22.959   8.342  49.792  1.00  0.00     0.051 A 
HETATM   21  C24 UNL     1      22.259   7.337  48.886  1.00  0.00     0.048 A 
ENDROOT
BRANCH   1  22
HETATM   22  C7  UNL     1      24.697   3.764  51.326  1.00  0.00     0.092 C 
HETATM   23  C6  UNL     1      25.205   2.531  50.607  1.00  0.00     0.032 C 
HETATM   24  C5  UNL     1      25.554   1.961  51.996  1.00  0.00     0.018 C 
HETATM   25  C25 UNL     1      24.678   3.004  52.635  1.00  0.00     0.032 C 
BRANCH  24  26
HETATM   26  C4  UNL     1      27.024   2.020  52.204  1.00  0.00     0.280 C 
BRANCH  26  27
HETATM   27  N2  UNL     1      27.527   0.915  52.909  1.00  0.00     0.122 N 
HETATM   28  C1  UNL     1      28.468   1.265  53.971  1.00  0.00     0.453 C 
HETATM   29  C2  UNL     1      27.904   0.055  54.713  1.00  0.00     0.098 C 
HETATM   30  C3  UNL     1      26.665   0.182  53.791  1.00  0.00     0.279 C 
BRANCH  28  31
HETATM   31  N1  UNL     1      29.841   1.123  53.530  1.00  0.00     0.112 N 
HETATM   32  H1  UNL     1      30.170   2.054  53.171  1.00  0.00     0.315 HD
HETATM   33  H2  UNL     1      29.862   0.486  52.714  1.00  0.00     0.315 HD
ENDBRANCH  28  31
ENDBRANCH  26  27
ENDBRANCH  24  26
ENDBRANCH   1  22
TORSDOF 4
ENDMDL
MODEL 4
REMARK VINA RESULT:      -7.9      1.466      1.792
REMARK  4 active torsions:
REMARK  status: ('A' for Active; 'I' for Inactive)
REMARK    1  A    between atoms: N1_1  and  C1_2 
REMARK    2  A    between atoms: N2_5  and  C4_6 
REMARK    3  A    between atoms: C4_6  and  C5_7 
REMARK    4  A    between atoms: C7_9  and  N3_10 
ROOT
HETATM    1  N3  UNL     1      24.007   3.687  50.697  1.00  0.00    -0.336 N 
HETATM    2  C8  UNL     1      22.821   3.684  49.944  1.00  0.00     0.098 C 
HETATM    3  C9  UNL     1      22.061   3.533  48.878  1.00  0.00    -0.032 C 
HETATM    4  C10 UNL     1      22.809   3.113  47.680  1.00  0.00     0.064 C 
HETATM    5  C11 UNL     1      21.672   3.116  46.648  1.00  0.00     0.173 C 
HETATM    6  O1  UNL     1      20.723   3.986  47.189  1.00  0.00    -0.379 OA
HETATM    7  C12 UNL     1      20.650   3.612  48.551  1.00  0.00     0.176 C 
HETATM    8  C13 UNL     1      19.766   2.465  48.757  1.00  0.00     0.212 C 
HETATM    9  O2  UNL     1      20.291   1.266  49.294  1.00  0.00    -0.348 OA
HETATM   10  C14 UNL     1      20.874   1.377  50.577  1.00  0.00     0.069 A 
HETATM   11  C15 UNL     1      20.163   1.645  51.717  1.00  0.00     0.037 A 
HETATM   12  C16 UNL     1      20.800   1.765  52.936  1.00  0.00     0.004 A 
HETATM   13  C17 UNL     1      22.196   1.612  52.986  1.00  0.00     0.012 A 
HETATM   14  C18 UNL     1      22.730   1.351  51.753  1.00  0.00    -0.024 A 
HETATM   15  C19 UNL     1      22.233   1.197  50.490  1.00  0.00     0.048 A 
HETATM   16  C20 UNL     1      24.201   1.427  51.768  1.00  0.00    -0.001 A 
HETATM   17  C21 UNL     1      24.697   2.559  51.250  1.00  0.00     0.136 A 
HETATM   18  N4  UNL     1      26.138   2.672  51.245  1.00  0.00    -0.247 NA
HETATM   19  C22 UNL     1      26.724   1.622  51.762  1.00  0.00     0.092 A 
HETATM   20  C23 UNL     1      26.271   0.341  52.353  1.00  0.00     0.051 A 
HETATM   21  C24 UNL     1      24.751   0.234  52.399  1.00  0.00     0.048 A 
ENDROOT
BRANCH   1  22
HETATM   22  C7  UNL     1      24.589   4.988  50.972  1.00  0.00     0.092 C 
HETATM   23  C6  UNL     1      23.528   6.064  50.866  1.00  0.00     0.032 C 
HETATM   24  C5  UNL     1      24.520   6.846  49.983  1.00  0.00     0.018 C 
HETATM   25  C25 UNL     1      25.331   5.592  49.798  1.00  0.00     0.032 C 
BRANCH  24  26
HETATM   26  C4  UNL     1      25.094   7.976  50.759  1.00  0.00     0.280 C 
BRANCH  26  27
HETATM   27  N2  UNL     1      25.697   8.951  49.950  1.00  0.00     0.122 N 
HETATM   28  C1  UNL     1      27.115   8.714  49.687  1.00  0.00     0.453 C 
HETATM   29  C2  UNL     1      26.856   9.364  48.330  1.00  0.00     0.098 C 
HETATM   30  C3  UNL     1      25.360   9.029  48.558  1.00  0.00     0.279 C 
BRANCH  28  31
HETATM   31  N1  UNL     1      27.956   9.485  50.581  1.00  0.00     0.112 N 
HETATM   32  H1  UNL     1      28.722   8.858  50.935  1.00  0.00     0.315 HD
HETATM   33  H2  UNL     1      27.400   9.745  51.414  1.00  0.00     0.315 HD
ENDBRANCH  28  31
ENDBRANCH  26  27
ENDBRANCH  24  26
ENDBRANCH   1  22
TORSDOF 4
ENDMDL
MODEL 5
REMARK VINA RESULT:      -7.6      6.535     10.370
REMARK  4 active torsions:
REMARK  status: ('A' for Active; 'I' for Inactive)
REMARK    1  A    between atoms: N1_1  and  C1_2 
REMARK    2  A    between atoms: N2_5  and  C4_6 
REMARK    3  A    between atoms: C4_6  and  C5_7 
REMARK    4  A    between atoms: C7_9  and  N3_10 
ROOT
HETATM    1  N3  UNL     1      28.963   8.128  48.264  1.00  0.00    -0.336 N 
HETATM    2  C8  UNL     1      27.672   7.575  48.300  1.00  0.00     0.098 C 
HETATM    3  C9  UNL     1      26.480   7.308  48.792  1.00  0.00    -0.032 C 
HETATM    4  C10 UNL     1      26.248   7.904  50.120  1.00  0.00     0.064 C 
HETATM    5  C11 UNL     1      24.849   7.343  50.417  1.00  0.00     0.173 C 
HETATM    6  O1  UNL     1      24.763   6.202  49.616  1.00  0.00    -0.379 OA
HETATM    7  C12 UNL     1      25.275   6.620  48.366  1.00  0.00     0.176 C 
HETATM    8  C13 UNL     1      24.265   7.306  47.561  1.00  0.00     0.212 C 
HETATM    9  O2  UNL     1      24.469   8.654  47.181  1.00  0.00    -0.348 OA
HETATM   10  C14 UNL     1      25.627   8.900  46.409  1.00  0.00     0.069 A 
HETATM   11  C15 UNL     1      25.796   8.452  45.125  1.00  0.00     0.037 A 
HETATM   12  C16 UNL     1      26.964   8.708  44.435  1.00  0.00     0.004 A 
HETATM   13  C17 UNL     1      27.982   9.434  45.077  1.00  0.00     0.012 A 
HETATM   14  C18 UNL     1      27.633   9.794  46.351  1.00  0.00    -0.024 A 
HETATM   15  C19 UNL     1      26.534   9.624  47.144  1.00  0.00     0.048 A 
HETATM   16  C20 UNL     1      28.779  10.341  47.097  1.00  0.00    -0.001 A 
HETATM   17  C21 UNL     1      29.328   9.482  47.967  1.00  0.00     0.136 A 
HETATM   18  N4  UNL     1      30.456   9.981  48.720  1.00  0.00    -0.247 NA
HETATM   19  C22 UNL     1      30.755  11.218  48.413  1.00  0.00     0.092 A 
HETATM   20  C23 UNL     1      30.218  12.236  47.479  1.00  0.00     0.051 A 
HETATM   21  C24 UNL     1      29.054  11.701  46.652  1.00  0.00     0.048 A 
ENDROOT
BRANCH   1  22
HETATM   22  C7  UNL     1      30.059   7.217  48.533  1.00  0.00     0.092 C 
HETATM   23  C6  UNL     1      30.907   7.042  47.290  1.00  0.00     0.032 C 
HETATM   24  C5  UNL     1      30.816   5.523  47.536  1.00  0.00     0.018 C 
HETATM   25  C25 UNL     1      29.671   5.753  48.484  1.00  0.00     0.032 C 
BRANCH  24  26
HETATM   26  C4  UNL     1      32.112   5.026  48.067  1.00  0.00     0.280 C 
BRANCH  26  27
HETATM   27  N2  UNL     1      32.664   3.992  47.296  1.00  0.00     0.122 N 
HETATM   28  C1  UNL     1      33.214   2.890  48.083  1.00  0.00     0.453 C 
HETATM   29  C2  UNL     1      32.776   1.995  46.926  1.00  0.00     0.098 C 
HETATM   30  C3  UNL     1      31.803   3.136  46.532  1.00  0.00     0.279 C 
BRANCH  28  31
HETATM   31  N1  UNL     1      34.648   3.017  48.245  1.00  0.00     0.112 N 
HETATM   32  H1  UNL     1      34.846   3.931  48.726  1.00  0.00     0.315 HD
HETATM   33  H2  UNL     1      35.080   3.096  47.307  1.00  0.00     0.315 HD
ENDBRANCH  28  31
ENDBRANCH  26  27
ENDBRANCH  24  26
ENDBRANCH   1  22
TORSDOF 4
ENDMDL
MODEL 6
REMARK VINA RESULT:      -7.5      3.737      7.171
REMARK  4 active torsions:
REMARK  status: ('A' for Active; 'I' for Inactive)
REMARK    1  A    between atoms: N1_1  and  C1_2 
REMARK    2  A    between atoms: N2_5  and  C4_6 
REMARK    3  A    between atoms: C4_6  and  C5_7 
REMARK    4  A    between atoms: C7_9  and  N3_10 
ROOT
HETATM    1  N3  UNL     1      24.043   4.044  49.765  1.00  0.00    -0.336 N 
HETATM    2  C8  UNL     1      24.725   5.265  49.904  1.00  0.00     0.098 C 
HETATM    3  C9  UNL     1      25.569   6.225  49.587  1.00  0.00    -0.032 C 
HETATM    4  C10 UNL     1      26.316   5.963  48.344  1.00  0.00     0.064 C 
HETATM    5  C11 UNL     1      27.233   7.195  48.325  1.00  0.00     0.173 C 
HETATM    6  O1  UNL     1      27.291   7.597  49.661  1.00  0.00    -0.379 OA
HETATM    7  C12 UNL     1      25.948   7.528  50.100  1.00  0.00     0.176 C 
HETATM    8  C13 UNL     1      25.191   8.726  49.736  1.00  0.00     0.212 C 
HETATM    9  O2  UNL     1      24.068   8.612  48.884  1.00  0.00    -0.348 OA
HETATM   10  C14 UNL     1      23.027   7.781  49.357  1.00  0.00     0.069 A 
HETATM   11  C15 UNL     1      22.245   8.081  50.442  1.00  0.00     0.037 A 
HETATM   12  C16 UNL     1      21.260   7.213  50.866  1.00  0.00     0.004 A 
HETATM   13  C17 UNL     1      21.075   6.008  50.165  1.00  0.00     0.012 A 
HETATM   14  C18 UNL     1      21.946   5.883  49.116  1.00  0.00    -0.024 A 
HETATM   15  C19 UNL     1      22.944   6.649  48.584  1.00  0.00     0.048 A 
HETATM   16  C20 UNL     1      21.911   4.530  48.536  1.00  0.00    -0.001 A 
HETATM   17  C21 UNL     1      22.938   3.750  48.901  1.00  0.00     0.136 A 
HETATM   18  N4  UNL     1      22.942   2.413  48.352  1.00  0.00    -0.247 NA
HETATM   19  C22 UNL     1      21.914   2.190  47.574  1.00  0.00     0.092 A 
HETATM   20  C23 UNL     1      20.742   2.974  47.115  1.00  0.00     0.051 A 
HETATM   21  C24 UNL     1      20.712   4.371  47.724  1.00  0.00     0.048 A 
ENDROOT
BRANCH   1  22
HETATM   22  C7  UNL     1      24.492   2.959  50.617  1.00  0.00     0.092 C 
HETATM   23  C6  UNL     1      24.592   3.433  52.053  1.00  0.00     0.032 C 
HETATM   24  C5  UNL     1      25.994   2.793  52.085  1.00  0.00     0.018 C 
HETATM   25  C25 UNL     1      25.988   2.725  50.582  1.00  0.00     0.032 C 
BRANCH  24  26
HETATM   26  C4  UNL     1      25.948   1.532  52.871  1.00  0.00     0.280 C 
BRANCH  26  27
HETATM   27  N2  UNL     1      27.110   1.310  53.625  1.00  0.00     0.122 N 
HETATM   28  C1  UNL     1      27.955   0.232  53.115  1.00  0.00     0.453 C 
HETATM   29  C2  UNL     1      29.128   1.056  53.640  1.00  0.00     0.098 C 
HETATM   30  C3  UNL     1      28.171   2.275  53.600  1.00  0.00     0.279 C 
BRANCH  28  31
HETATM   31  N1  UNL     1      27.717  -1.009  53.824  1.00  0.00     0.112 N 
HETATM   32  H1  UNL     1      28.006  -0.877  54.826  1.00  0.00     0.315 HD
HETATM   33  H2  UNL     1      28.353  -1.733  53.444  1.00  0.00     0.315 HD
ENDBRANCH  28  31
ENDBRANCH  26  27
ENDBRANCH  24  26
ENDBRANCH   1  22
TORSDOF 4
ENDMDL
MODEL 7
REMARK VINA RESULT:      -7.4      8.430     12.480
REMARK  4 active torsions:
REMARK  status: ('A' for Active; 'I' for Inactive)
REMARK    1  A    between atoms: N1_1  and  C1_2 
REMARK    2  A    between atoms: N2_5  and  C4_6 
REMARK    3  A    between atoms: C4_6  and  C5_7 
REMARK    4  A    between atoms: C7_9  and  N3_10 
ROOT
HETATM    1  N3  UNL     1      31.851   6.705  46.734  1.00  0.00    -0.336 N 
HETATM    2  C8  UNL     1      31.963   7.990  46.176  1.00  0.00     0.098 C 
HETATM    3  C9  UNL     1      32.362   9.242  46.085  1.00  0.00    -0.032 C 
HETATM    4  C10 UNL     1      33.224   9.665  47.203  1.00  0.00     0.064 C 
HETATM    5  C11 UNL     1      33.426  11.142  46.833  1.00  0.00     0.173 C 
HETATM    6  O1  UNL     1      32.328  11.443  46.024  1.00  0.00    -0.379 OA
HETATM    7  C12 UNL     1      32.235  10.340  45.145  1.00  0.00     0.176 C 
HETATM    8  C13 UNL     1      33.150  10.465  44.010  1.00  0.00     0.212 C 
HETATM    9  O2  UNL     1      34.165   9.497  43.820  1.00  0.00    -0.348 OA
HETATM   10  C14 UNL     1      33.714   8.169  43.643  1.00  0.00     0.069 A 
HETATM   11  C15 UNL     1      33.017   7.740  42.544  1.00  0.00     0.037 A 
HETATM   12  C16 UNL     1      32.585   6.433  42.446  1.00  0.00     0.004 A 
HETATM   13  C17 UNL     1      32.868   5.548  43.501  1.00  0.00     0.012 A 
HETATM   14  C18 UNL     1      33.568   6.155  44.508  1.00  0.00    -0.024 A 
HETATM   15  C19 UNL     1      34.062   7.408  44.732  1.00  0.00     0.048 A 
HETATM   16  C20 UNL     1      33.656   5.299  45.705  1.00  0.00    -0.001 A 
HETATM   17  C21 UNL     1      32.812   5.642  46.688  1.00  0.00     0.136 A 
HETATM   18  N4  UNL     1      32.867   4.828  47.880  1.00  0.00    -0.247 NA
HETATM   19  C22 UNL     1      33.754   3.870  47.790  1.00  0.00     0.092 A 
HETATM   20  C23 UNL     1      34.720   3.414  46.762  1.00  0.00     0.051 A 
HETATM   21  C24 UNL     1      34.637   4.244  45.487  1.00  0.00     0.048 A 
ENDROOT
BRANCH   1  22
HETATM   22  C7  UNL     1      30.604   6.408  47.414  1.00  0.00     0.092 C 
HETATM   23  C6  UNL     1      29.468   7.183  46.778  1.00  0.00     0.032 C 
HETATM   24  C5  UNL     1      29.062   7.604  48.204  1.00  0.00     0.018 C 
HETATM   25  C25 UNL     1      30.411   7.170  48.709  1.00  0.00     0.032 C 
BRANCH  24  26
HETATM   26  C4  UNL     1      27.851   6.850  48.620  1.00  0.00     0.280 C 
BRANCH  26  27
HETATM   27  N2  UNL     1      26.836   7.673  49.131  1.00  0.00     0.122 N 
HETATM   28  C1  UNL     1      27.273   9.031  49.448  1.00  0.00     0.453 C 
HETATM   29  C2  UNL     1      25.863   9.458  49.043  1.00  0.00     0.098 C 
HETATM   30  C3  UNL     1      25.780   8.119  48.268  1.00  0.00     0.279 C 
BRANCH  28  31
HETATM   31  N1  UNL     1      27.571   9.176  50.859  1.00  0.00     0.112 N 
HETATM   32  H1  UNL     1      28.471   9.711  50.952  1.00  0.00     0.315 HD
HETATM   33  H2  UNL     1      27.761   8.238  51.254  1.00  0.00     0.315 HD
ENDBRANCH  28  31
ENDBRANCH  26  27
ENDBRANCH  24  26
ENDBRANCH   1  22
TORSDOF 4
ENDMDL
MODEL 8
REMARK VINA RESULT:      -7.4      9.455     13.199
REMARK  4 active torsions:
REMARK  status: ('A' for Active; 'I' for Inactive)
REMARK    1  A    between atoms: N1_1  and  C1_2 
REMARK    2  A    between atoms: N2_5  and  C4_6 
REMARK    3  A    between atoms: C4_6  and  C5_7 
REMARK    4  A    between atoms: C7_9  and  N3_10 
ROOT
HETATM    1  N3  UNL     1      32.638   8.855  46.687  1.00  0.00    -0.336 N 
HETATM    2  C8  UNL     1      32.909   7.512  46.997  1.00  0.00     0.098 C 
HETATM    3  C9  UNL     1      33.522   6.501  47.578  1.00  0.00    -0.032 C 
HETATM    4  C10 UNL     1      34.617   6.917  48.473  1.00  0.00     0.064 C 
HETATM    5  C11 UNL     1      35.145   5.538  48.897  1.00  0.00     0.173 C 
HETATM    6  O1  UNL     1      34.733   4.686  47.870  1.00  0.00    -0.379 OA
HETATM    7  C12 UNL     1      33.391   5.057  47.631  1.00  0.00     0.176 C 
HETATM    8  C13 UNL     1      32.470   4.422  48.574  1.00  0.00     0.212 C 
HETATM    9  O2  UNL     1      31.689   5.226  49.438  1.00  0.00    -0.348 OA
HETATM   10  C14 UNL     1      30.817   6.137  48.799  1.00  0.00     0.069 A 
HETATM   11  C15 UNL     1      29.723   5.759  48.066  1.00  0.00     0.037 A 
HETATM   12  C16 UNL     1      28.926   6.701  47.447  1.00  0.00     0.004 A 
HETATM   13  C17 UNL     1      29.262   8.059  47.578  1.00  0.00     0.012 A 
HETATM   14  C18 UNL     1      30.383   8.242  48.343  1.00  0.00    -0.024 A 
HETATM   15  C19 UNL     1      31.247   7.424  49.012  1.00  0.00     0.048 A 
HETATM   16  C20 UNL     1      30.865   9.633  48.282  1.00  0.00    -0.001 A 
HETATM   17  C21 UNL     1      31.924   9.812  47.481  1.00  0.00     0.136 A 
HETATM   18  N4  UNL     1      32.429  11.163  47.395  1.00  0.00    -0.247 NA
HETATM   19  C22 UNL     1      31.745  12.000  48.132  1.00  0.00     0.092 A 
HETATM   20  C23 UNL     1      30.575  11.902  49.038  1.00  0.00     0.051 A 
HETATM   21  C24 UNL     1      30.014  10.486  49.101  1.00  0.00     0.048 A 
ENDROOT
BRANCH   1  22
HETATM   22  C7  UNL     1      33.112   9.324  45.398  1.00  0.00     0.092 C 
HETATM   23  C6  UNL     1      32.937   8.240  44.354  1.00  0.00     0.032 C 
HETATM   24  C5  UNL     1      34.397   8.510  43.942  1.00  0.00     0.018 C 
HETATM   25  C25 UNL     1      34.616   9.253  45.231  1.00  0.00     0.032 C 
BRANCH  24  26
HETATM   26  C4  UNL     1      34.422   9.257  42.658  1.00  0.00     0.280 C 
BRANCH  26  27
HETATM   27  N2  UNL     1      35.326   8.726  41.726  1.00  0.00     0.122 N 
HETATM   28  C1  UNL     1      36.119   7.609  42.236  1.00  0.00     0.453 C 
HETATM   29  C2  UNL     1      36.074   7.072  40.807  1.00  0.00     0.098 C 
HETATM   30  C3  UNL     1      34.836   7.981  40.602  1.00  0.00     0.279 C 
BRANCH  28  31
HETATM   31  N1  UNL     1      37.427   8.046  42.682  1.00  0.00     0.112 N 
HETATM   32  H1  UNL     1      37.346   8.363  43.680  1.00  0.00     0.315 HD
HETATM   33  H2  UNL     1      37.694   8.888  42.142  1.00  0.00     0.315 HD
ENDBRANCH  28  31
ENDBRANCH  26  27
ENDBRANCH  24  26
ENDBRANCH   1  22
TORSDOF 4
ENDMDL
MODEL 9
REMARK VINA RESULT:      -7.2      2.849      6.049
REMARK  4 active torsions:
REMARK  status: ('A' for Active; 'I' for Inactive)
REMARK    1  A    between atoms: N1_1  and  C1_2 
REMARK    2  A    between atoms: N2_5  and  C4_6 
REMARK    3  A    between atoms: C4_6  and  C5_7 
REMARK    4  A    between atoms: C7_9  and  N3_10 
ROOT
HETATM    1  N3  UNL     1      23.341   6.330  49.502  1.00  0.00    -0.336 N 
HETATM    2  C8  UNL     1      23.758   5.110  50.060  1.00  0.00     0.098 C 
HETATM    3  C9  UNL     1      23.966   4.218  51.006  1.00  0.00    -0.032 C 
HETATM    4  C10 UNL     1      23.540   4.670  52.342  1.00  0.00     0.064 C 
HETATM    5  C11 UNL     1      23.990   3.465  53.182  1.00  0.00     0.173 C 
HETATM    6  O1  UNL     1      24.993   2.870  52.413  1.00  0.00    -0.379 OA
HETATM    7  C12 UNL     1      24.460   2.857  51.103  1.00  0.00     0.176 C 
HETATM    8  C13 UNL     1      23.568   1.718  50.886  1.00  0.00     0.212 C 
HETATM    9  O2  UNL     1      22.209   1.945  50.564  1.00  0.00    -0.348 OA
HETATM   10  C14 UNL     1      21.979   2.684  49.382  1.00  0.00     0.069 A 
HETATM   11  C15 UNL     1      22.258   2.217  48.124  1.00  0.00     0.037 A 
HETATM   12  C16 UNL     1      22.031   3.002  47.012  1.00  0.00     0.004 A 
HETATM   13  C17 UNL     1      21.510   4.294  47.193  1.00  0.00     0.012 A 
HETATM   14  C18 UNL     1      21.297   4.584  48.514  1.00  0.00    -0.024 A 
HETATM   15  C19 UNL     1      21.462   3.918  49.695  1.00  0.00     0.048 A 
HETATM   16  C20 UNL     1      20.980   6.008  48.717  1.00  0.00    -0.001 A 
HETATM   17  C21 UNL     1      22.004   6.737  49.183  1.00  0.00     0.136 A 
HETATM   18  N4  UNL     1      21.734   8.140  49.396  1.00  0.00    -0.247 NA
HETATM   19  C22 UNL     1      20.504   8.465  49.089  1.00  0.00     0.092 A 
HETATM   20  C23 UNL     1      19.316   7.744  48.573  1.00  0.00     0.051 A 
HETATM   21  C24 UNL     1      19.607   6.272  48.307  1.00  0.00     0.048 A 
ENDROOT
BRANCH   1  22
HETATM   22  C7  UNL     1      24.390   7.282  49.184  1.00  0.00     0.092 C 
HETATM   23  C6  UNL     1      25.565   6.567  48.549  1.00  0.00     0.032 C 
HETATM   24  C5  UNL     1      26.464   7.328  49.543  1.00  0.00     0.018 C 
HETATM   25  C25 UNL     1      25.253   7.667  50.367  1.00  0.00     0.032 C 
BRANCH  24  26
HETATM   26  C4  UNL     1      27.187   8.413  48.830  1.00  0.00     0.280 C 
BRANCH  26  27
HETATM   27  N2  UNL     1      28.503   8.591  49.285  1.00  0.00     0.122 N 
HETATM   28  C1  UNL     1      29.510   7.906  48.478  1.00  0.00     0.453 C 
HETATM   29  C2  UNL     1      30.426   9.075  48.834  1.00  0.00     0.098 C 
HETATM   30  C3  UNL     1      29.135   9.872  49.149  1.00  0.00     0.279 C 
BRANCH  28  31
HETATM   31  N1  UNL     1      29.887   6.636  49.065  1.00  0.00     0.112 N 
HETATM   32  H1  UNL     1      30.110   6.796  50.080  1.00  0.00     0.315 HD
HETATM   33  H2  UNL     1      30.773   6.322  48.631  1.00  0.00     0.315 HD
ENDBRANCH  28  31
ENDBRANCH  26  27
ENDBRANCH  24  26
ENDBRANCH   1  22
TORSDOF 4
ENDMDL
