MODEL 1
REMARK VINA RESULT:      -7.8      0.000      0.000
REMARK  8 active torsions:
REMARK  status: ('A' for Active; 'I' for Inactive)
REMARK    1  A    between atoms: C2_2  and  C3_3 
REMARK    2  A    between atoms: C2_2  and  C6_7 
REMARK    3  A    between atoms: C3_3  and  C4_4 
REMARK    4  A    between atoms: C6_7  and  C7_8 
REMARK    5  A    between atoms: C10_11  and  O2_12 
REMARK    6  A    between atoms: O2_12  and  S1_13 
REMARK    7  A    between atoms: S1_13  and  C11_16 
REMARK    8  A    between atoms: C14_19  and  C15_20 
REMARK       I    between atoms: C15_20  and  N1_22 
ROOT
HETATM    1  O2  UNL     1      22.119   3.478  49.400  1.00  0.00    -0.229 OA
ENDROOT
BRANCH   1   2
HETATM    2  C10 UNL     1      21.424   2.588  50.222  1.00  0.00     0.089 A 
HETATM    3  C9  UNL     1      21.777   1.251  50.094  1.00  0.00     0.039 A 
HETATM    4  C8  UNL     1      21.111   0.348  50.898  1.00  0.00     0.010 A 
HETATM    5  C7  UNL     1      20.138   0.735  51.794  1.00  0.00    -0.054 A 
HETATM    6  C21 UNL     1      19.832   2.075  51.874  1.00  0.00     0.010 A 
HETATM    7  C20 UNL     1      20.452   3.035  51.105  1.00  0.00     0.039 A 
BRANCH   5   8
HETATM    8  C6  UNL     1      19.398  -0.163  52.709  1.00  0.00     0.072 C 
BRANCH   8   9
HETATM    9  C2  UNL     1      20.197  -0.737  53.803  1.00  0.00    -0.078 C 
HETATM   10  C1  UNL     1      20.111  -2.009  54.118  1.00  0.00     0.015 C 
BRANCH   9  11
HETATM   11  C3  UNL     1      21.140   0.047  54.652  1.00  0.00     0.111 C 
BRANCH  11  12
HETATM   12  C4  UNL     1      22.386  -0.797  54.732  1.00  0.00     0.127 C 
HETATM   13  C5  UNL     1      23.363  -0.618  53.589  1.00  0.00     0.091 C 
HETATM   14  O1  UNL     1      22.763  -1.626  55.572  1.00  0.00    -0.298 OA
ENDBRANCH  11  12
ENDBRANCH   9  11
ENDBRANCH   8   9
ENDBRANCH   5   8
ENDBRANCH   1   2
BRANCH   1  15
HETATM   15  S1  UNL     1      23.283   4.541  50.027  1.00  0.00     0.303 S 
HETATM   16  O3  UNL     1      22.642   5.721  50.703  1.00  0.00    -0.193 OA
HETATM   17  O4  UNL     1      24.072   5.101  48.880  1.00  0.00    -0.193 OA
BRANCH  15  18
HETATM   18  C11 UNL     1      24.331   3.684  51.094  1.00  0.00     0.086 A 
HETATM   19  C12 UNL     1      25.498   3.261  50.513  1.00  0.00     0.027 A 
HETATM   20  C13 UNL     1      26.457   2.541  51.216  1.00  0.00     0.018 A 
HETATM   21  C14 UNL     1      26.224   2.238  52.564  1.00  0.00     0.032 A 
HETATM   22  C18 UNL     1      25.046   2.670  53.143  1.00  0.00     0.018 A 
HETATM   23  C19 UNL     1      24.095   3.390  52.423  1.00  0.00     0.027 A 
BRANCH  21  24
HETATM   24  C15 UNL     1      27.135   1.487  53.421  1.00  0.00     0.253 C 
HETATM   25  O5  UNL     1      27.584   2.400  54.184  1.00  0.00    -0.267 OA
HETATM   26  N1  UNL     1      27.507   0.118  53.487  1.00  0.00    -0.357 N 
HETATM   27  C16 UNL     1      26.965  -0.907  52.596  1.00  0.00     0.152 C 
HETATM   28  C17 UNL     1      28.480  -0.189  54.517  1.00  0.00     0.152 C 
ENDBRANCH  21  24
ENDBRANCH  15  18
ENDBRANCH   1  15
TORSDOF 8
ENDMDL
MODEL 2
REMARK VINA RESULT:      -7.5      3.412      5.834
REMARK  8 active torsions:
REMARK  status: ('A' for Active; 'I' for Inactive)
REMARK    1  A    between atoms: C2_2  and  C3_3 
REMARK    2  A    between atoms: C2_2  and  C6_7 
REMARK    3  A    between atoms: C3_3  and  C4_4 
REMARK    4  A    between atoms: C6_7  and  C7_8 
REMARK    5  A    between atoms: C10_11  and  O2_12 
REMARK    6  A    between atoms: O2_12  and  S1_13 
REMARK    7  A    between atoms: S1_13  and  C11_16 
REMARK    8  A    between atoms: C14_19  and  C15_20 
REMARK       I    between atoms: C15_20  and  N1_22 
ROOT
HETATM    1  O2  UNL     1      22.626   3.812  50.817  1.00  0.00    -0.229 OA
ENDROOT
BRANCH   1   2
HETATM    2  C10 UNL     1      23.225   2.814  51.591  1.00  0.00     0.089 A 
HETATM    3  C9  UNL     1      24.320   3.214  52.344  1.00  0.00     0.039 A 
HETATM    4  C8  UNL     1      24.929   2.252  53.123  1.00  0.00     0.010 A 
HETATM    5  C7  UNL     1      24.484   0.947  53.167  1.00  0.00    -0.054 A 
HETATM    6  C21 UNL     1      23.393   0.613  52.397  1.00  0.00     0.010 A 
HETATM    7  C20 UNL     1      22.734   1.517  51.593  1.00  0.00     0.039 A 
BRANCH   5   8
HETATM    8  C6  UNL     1      25.061  -0.136  53.994  1.00  0.00     0.072 C 
BRANCH   8   9
HETATM    9  C2  UNL     1      26.468  -0.459  53.708  1.00  0.00    -0.078 C 
HETATM   10  C1  UNL     1      26.805  -1.188  52.669  1.00  0.00     0.015 C 
BRANCH   9  11
HETATM   11  C3  UNL     1      27.616  -0.021  54.554  1.00  0.00     0.111 C 
BRANCH  11  12
HETATM   12  C4  UNL     1      28.566   0.657  53.600  1.00  0.00     0.127 C 
HETATM   13  C5  UNL     1      29.934   0.018  53.487  1.00  0.00     0.091 C 
HETATM   14  O1  UNL     1      28.432   1.658  52.883  1.00  0.00    -0.298 OA
ENDBRANCH  11  12
ENDBRANCH   9  11
ENDBRANCH   8   9
ENDBRANCH   5   8
ENDBRANCH   1   2
BRANCH   1  15
HETATM   15  S1  UNL     1      22.992   3.999  49.171  1.00  0.00     0.303 S 
HETATM   16  O3  UNL     1      21.894   4.724  48.443  1.00  0.00    -0.193 OA
HETATM   17  O4  UNL     1      23.066   2.634  48.551  1.00  0.00    -0.193 OA
BRANCH  15  18
HETATM   18  C11 UNL     1      24.509   4.800  49.005  1.00  0.00     0.086 A 
HETATM   19  C12 UNL     1      24.413   6.098  48.577  1.00  0.00     0.027 A 
HETATM   20  C13 UNL     1      25.534   6.894  48.371  1.00  0.00     0.018 A 
HETATM   21  C14 UNL     1      26.803   6.353  48.610  1.00  0.00     0.032 A 
HETATM   22  C18 UNL     1      26.892   5.044  49.044  1.00  0.00     0.018 A 
HETATM   23  C19 UNL     1      25.758   4.259  49.245  1.00  0.00     0.027 A 
BRANCH  21  24
HETATM   24  C15 UNL     1      28.064   7.067  48.431  1.00  0.00     0.253 C 
HETATM   25  O5  UNL     1      28.706   6.271  47.674  1.00  0.00    -0.267 OA
HETATM   26  N1  UNL     1      28.559   8.307  48.915  1.00  0.00    -0.357 N 
HETATM   27  C16 UNL     1      27.790   9.199  49.781  1.00  0.00     0.152 C 
HETATM   28  C17 UNL     1      29.906   8.622  48.482  1.00  0.00     0.152 C 
ENDBRANCH  21  24
ENDBRANCH  15  18
ENDBRANCH   1  15
TORSDOF 8
ENDMDL
MODEL 3
REMARK VINA RESULT:      -7.4      4.392      6.496
REMARK  8 active torsions:
REMARK  status: ('A' for Active; 'I' for Inactive)
REMARK    1  A    between atoms: C2_2  and  C3_3 
REMARK    2  A    between atoms: C2_2  and  C6_7 
REMARK    3  A    between atoms: C3_3  and  C4_4 
REMARK    4  A    between atoms: C6_7  and  C7_8 
REMARK    5  A    between atoms: C10_11  and  O2_12 
REMARK    6  A    between atoms: O2_12  and  S1_13 
REMARK    7  A    between atoms: S1_13  and  C11_16 
REMARK    8  A    between atoms: C14_19  and  C15_20 
REMARK       I    between atoms: C15_20  and  N1_22 
ROOT
HETATM    1  O2  UNL     1      24.846   4.137  48.968  1.00  0.00    -0.229 OA
ENDROOT
BRANCH   1   2
HETATM    2  C10 UNL     1      24.901   3.233  50.032  1.00  0.00     0.089 A 
HETATM    3  C9  UNL     1      26.175   2.841  50.421  1.00  0.00     0.039 A 
HETATM    4  C8  UNL     1      26.262   1.952  51.474  1.00  0.00     0.010 A 
HETATM    5  C7  UNL     1      25.147   1.466  52.124  1.00  0.00    -0.054 A 
HETATM    6  C21 UNL     1      23.912   1.893  51.690  1.00  0.00     0.010 A 
HETATM    7  C20 UNL     1      23.745   2.776  50.646  1.00  0.00     0.039 A 
BRANCH   5   8
HETATM    8  C6  UNL     1      25.154   0.535  53.274  1.00  0.00     0.072 C 
BRANCH   8   9
HETATM    9  C2  UNL     1      26.399  -0.227  53.454  1.00  0.00    -0.078 C 
HETATM   10  C1  UNL     1      26.779  -1.130  52.580  1.00  0.00     0.015 C 
BRANCH   9  11
HETATM   11  C3  UNL     1      27.316  -0.072  54.621  1.00  0.00     0.111 C 
BRANCH  11  12
HETATM   12  C4  UNL     1      28.334   0.949  54.182  1.00  0.00     0.127 C 
HETATM   13  C5  UNL     1      29.653   0.381  53.702  1.00  0.00     0.091 C 
HETATM   14  O1  UNL     1      28.291   2.186  54.143  1.00  0.00    -0.298 OA
ENDBRANCH  11  12
ENDBRANCH   9  11
ENDBRANCH   8   9
ENDBRANCH   5   8
ENDBRANCH   1   2
BRANCH   1  15
HETATM   15  S1  UNL     1      25.140   5.792  49.193  1.00  0.00     0.303 S 
HETATM   16  O3  UNL     1      24.880   6.207  50.615  1.00  0.00    -0.193 OA
HETATM   17  O4  UNL     1      24.161   6.560  48.354  1.00  0.00    -0.193 OA
BRANCH  15  18
HETATM   18  C11 UNL     1      26.749   6.164  48.701  1.00  0.00     0.086 A 
HETATM   19  C12 UNL     1      26.967   7.494  48.453  1.00  0.00     0.027 A 
HETATM   20  C13 UNL     1      28.200   7.977  48.032  1.00  0.00     0.018 A 
HETATM   21  C14 UNL     1      29.257   7.076  47.855  1.00  0.00     0.032 A 
HETATM   22  C18 UNL     1      29.031   5.736  48.110  1.00  0.00     0.018 A 
HETATM   23  C19 UNL     1      27.788   5.269  48.531  1.00  0.00     0.027 A 
BRANCH  21  24
HETATM   24  C15 UNL     1      30.600   7.437  47.413  1.00  0.00     0.253 C 
HETATM   25  O5  UNL     1      30.458   7.459  46.149  1.00  0.00    -0.267 OA
HETATM   26  N1  UNL     1      31.812   7.713  48.100  1.00  0.00    -0.357 N 
HETATM   27  C16 UNL     1      31.936   7.684  49.556  1.00  0.00     0.152 C 
HETATM   28  C17 UNL     1      32.932   8.025  47.234  1.00  0.00     0.152 C 
ENDBRANCH  21  24
ENDBRANCH  15  18
ENDBRANCH   1  15
TORSDOF 8
ENDMDL
MODEL 4
REMARK VINA RESULT:      -7.3      3.175      7.864
REMARK  8 active torsions:
REMARK  status: ('A' for Active; 'I' for Inactive)
REMARK    1  A    between atoms: C2_2  and  C3_3 
REMARK    2  A    between atoms: C2_2  and  C6_7 
REMARK    3  A    between atoms: C3_3  and  C4_4 
REMARK    4  A    between atoms: C6_7  and  C7_8 
REMARK    5  A    between atoms: C10_11  and  O2_12 
REMARK    6  A    between atoms: O2_12  and  S1_13 
REMARK    7  A    between atoms: S1_13  and  C11_16 
REMARK    8  A    between atoms: C14_19  and  C15_20 
REMARK       I    between atoms: C15_20  and  N1_22 
ROOT
HETATM    1  O2  UNL     1      25.668   1.101  53.968  1.00  0.00    -0.229 OA
ENDROOT
BRANCH   1   2
HETATM    2  C10 UNL     1      25.589   1.883  52.812  1.00  0.00     0.089 A 
HETATM    3  C9  UNL     1      26.542   1.615  51.839  1.00  0.00     0.039 A 
HETATM    4  C8  UNL     1      26.485   2.367  50.684  1.00  0.00     0.010 A 
HETATM    5  C7  UNL     1      25.532   3.343  50.484  1.00  0.00    -0.054 A 
HETATM    6  C21 UNL     1      24.614   3.561  51.487  1.00  0.00     0.010 A 
HETATM    7  C20 UNL     1      24.608   2.853  52.668  1.00  0.00     0.039 A 
BRANCH   5   8
HETATM    8  C6  UNL     1      25.385   4.173  49.267  1.00  0.00     0.072 C 
BRANCH   8   9
HETATM    9  C2  UNL     1      26.364   5.263  49.133  1.00  0.00    -0.078 C 
HETATM   10  C1  UNL     1      27.550   5.055  48.610  1.00  0.00     0.015 C 
BRANCH   9  11
HETATM   11  C3  UNL     1      26.123   6.666  49.580  1.00  0.00     0.111 C 
BRANCH  11  12
HETATM   12  C4  UNL     1      24.714   6.977  49.145  1.00  0.00     0.127 C 
HETATM   13  C5  UNL     1      24.552   7.330  47.681  1.00  0.00     0.091 C 
HETATM   14  O1  UNL     1      23.648   6.999  49.774  1.00  0.00    -0.298 OA
ENDBRANCH  11  12
ENDBRANCH   9  11
ENDBRANCH   8   9
ENDBRANCH   5   8
ENDBRANCH   1   2
BRANCH   1  15
HETATM   15  S1  UNL     1      24.988  -0.451  54.038  1.00  0.00     0.303 S 
HETATM   16  O3  UNL     1      25.177  -1.073  55.393  1.00  0.00    -0.193 OA
HETATM   17  O4  UNL     1      25.729  -1.331  53.073  1.00  0.00    -0.193 OA
BRANCH  15  18
HETATM   18  C11 UNL     1      23.324  -0.372  53.596  1.00  0.00     0.086 A 
HETATM   19  C12 UNL     1      22.458  -0.674  54.615  1.00  0.00     0.027 A 
HETATM   20  C13 UNL     1      21.080  -0.677  54.439  1.00  0.00     0.018 A 
HETATM   21  C14 UNL     1      20.556  -0.359  53.179  1.00  0.00     0.032 A 
HETATM   22  C18 UNL     1      21.435  -0.053  52.157  1.00  0.00     0.018 A 
HETATM   23  C19 UNL     1      22.815  -0.056  52.351  1.00  0.00     0.027 A 
BRANCH  21  24
HETATM   24  C15 UNL     1      19.135  -0.328  52.848  1.00  0.00     0.253 C 
HETATM   25  O5  UNL     1      19.034   0.791  52.251  1.00  0.00    -0.267 OA
HETATM   26  N1  UNL     1      18.061  -1.230  53.073  1.00  0.00    -0.357 N 
HETATM   27  C16 UNL     1      18.217  -2.512  53.759  1.00  0.00     0.152 C 
HETATM   28  C17 UNL     1      16.782  -0.773  52.568  1.00  0.00     0.152 C 
ENDBRANCH  21  24
ENDBRANCH  15  18
ENDBRANCH   1  15
TORSDOF 8
ENDMDL
MODEL 5
REMARK VINA RESULT:      -7.3      3.499      7.205
REMARK  8 active torsions:
REMARK  status: ('A' for Active; 'I' for Inactive)
REMARK    1  A    between atoms: C2_2  and  C3_3 
REMARK    2  A    between atoms: C2_2  and  C6_7 
REMARK    3  A    between atoms: C3_3  and  C4_4 
REMARK    4  A    between atoms: C6_7  and  C7_8 
REMARK    5  A    between atoms: C10_11  and  O2_12 
REMARK    6  A    between atoms: O2_12  and  S1_13 
REMARK    7  A    between atoms: S1_13  and  C11_16 
REMARK    8  A    between atoms: C14_19  and  C15_20 
REMARK       I    between atoms: C15_20  and  N1_22 
ROOT
HETATM    1  O2  UNL     1      23.035   5.680  50.346  1.00  0.00    -0.229 OA
ENDROOT
BRANCH   1   2
HETATM    2  C10 UNL     1      24.094   6.438  49.838  1.00  0.00     0.089 A 
HETATM    3  C9  UNL     1      24.111   6.596  48.459  1.00  0.00     0.039 A 
HETATM    4  C8  UNL     1      25.142   7.345  47.928  1.00  0.00     0.010 A 
HETATM    5  C7  UNL     1      26.117   7.920  48.714  1.00  0.00    -0.054 A 
HETATM    6  C21 UNL     1      26.045   7.726  50.075  1.00  0.00     0.010 A 
HETATM    7  C20 UNL     1      25.048   6.990  50.678  1.00  0.00     0.039 A 
BRANCH   5   8
HETATM    8  C6  UNL     1      27.237   8.758  48.229  1.00  0.00     0.072 C 
BRANCH   8   9
HETATM    9  C2  UNL     1      28.550   8.093  48.204  1.00  0.00    -0.078 C 
HETATM   10  C1  UNL     1      29.533   8.492  48.977  1.00  0.00     0.015 C 
BRANCH   9  11
HETATM   11  C3  UNL     1      28.891   6.948  47.312  1.00  0.00     0.111 C 
BRANCH  11  12
HETATM   12  C4  UNL     1      29.132   5.787  48.243  1.00  0.00     0.127 C 
HETATM   13  C5  UNL     1      27.910   4.955  48.568  1.00  0.00     0.091 C 
HETATM   14  O1  UNL     1      30.161   5.384  48.802  1.00  0.00    -0.298 OA
ENDBRANCH  11  12
ENDBRANCH   9  11
ENDBRANCH   8   9
ENDBRANCH   5   8
ENDBRANCH   1   2
BRANCH   1  15
HETATM   15  S1  UNL     1      23.003   3.991  50.200  1.00  0.00     0.303 S 
HETATM   16  O3  UNL     1      23.180   3.559  48.771  1.00  0.00    -0.193 OA
HETATM   17  O4  UNL     1      21.641   3.511  50.609  1.00  0.00    -0.193 OA
BRANCH  15  18
HETATM   18  C11 UNL     1      24.199   3.300  51.231  1.00  0.00     0.086 A 
HETATM   19  C12 UNL     1      25.350   2.930  50.585  1.00  0.00     0.027 A 
HETATM   20  C13 UNL     1      26.417   2.342  51.252  1.00  0.00     0.018 A 
HETATM   21  C14 UNL     1      26.316   2.121  52.632  1.00  0.00     0.032 A 
HETATM   22  C18 UNL     1      25.154   2.499  53.277  1.00  0.00     0.018 A 
HETATM   23  C19 UNL     1      24.092   3.087  52.592  1.00  0.00     0.027 A 
BRANCH  21  24
HETATM   24  C15 UNL     1      27.351   1.509  53.459  1.00  0.00     0.253 C 
HETATM   25  O5  UNL     1      27.805   2.516  54.091  1.00  0.00    -0.267 OA
HETATM   26  N1  UNL     1      27.820   0.177  53.609  1.00  0.00    -0.357 N 
HETATM   27  C16 UNL     1      27.270  -0.958  52.868  1.00  0.00     0.152 C 
HETATM   28  C17 UNL     1      28.902   0.027  54.561  1.00  0.00     0.152 C 
ENDBRANCH  21  24
ENDBRANCH  15  18
ENDBRANCH   1  15
TORSDOF 8
ENDMDL
MODEL 6
REMARK VINA RESULT:      -7.3      2.878      7.127
REMARK  8 active torsions:
REMARK  status: ('A' for Active; 'I' for Inactive)
REMARK    1  A    between atoms: C2_2  and  C3_3 
REMARK    2  A    between atoms: C2_2  and  C6_7 
REMARK    3  A    between atoms: C3_3  and  C4_4 
REMARK    4  A    between atoms: C6_7  and  C7_8 
REMARK    5  A    between atoms: C10_11  and  O2_12 
REMARK    6  A    between atoms: O2_12  and  S1_13 
REMARK    7  A    between atoms: S1_13  and  C11_16 
REMARK    8  A    between atoms: C14_19  and  C15_20 
REMARK       I    between atoms: C15_20  and  N1_22 
ROOT
HETATM    1  O2  UNL     1      25.920   0.930  54.156  1.00  0.00    -0.229 OA
ENDROOT
BRANCH   1   2
HETATM    2  C10 UNL     1      25.661   1.768  53.068  1.00  0.00     0.089 A 
HETATM    3  C9  UNL     1      24.670   2.720  53.266  1.00  0.00     0.039 A 
HETATM    4  C8  UNL     1      24.396   3.565  52.210  1.00  0.00     0.010 A 
HETATM    5  C7  UNL     1      25.064   3.486  51.007  1.00  0.00    -0.054 A 
HETATM    6  C21 UNL     1      26.036   2.519  50.873  1.00  0.00     0.010 A 
HETATM    7  C20 UNL     1      26.365   1.639  51.880  1.00  0.00     0.039 A 
BRANCH   5   8
HETATM    8  C6  UNL     1      24.850   4.368  49.838  1.00  0.00     0.072 C 
BRANCH   8   9
HETATM    9  C2  UNL     1      23.681   4.035  49.009  1.00  0.00    -0.078 C 
HETATM   10  C1  UNL     1      22.976   4.970  48.415  1.00  0.00     0.015 C 
BRANCH   9  11
HETATM   11  C3  UNL     1      23.182   2.648  48.783  1.00  0.00     0.111 C 
BRANCH  11  12
HETATM   12  C4  UNL     1      21.839   2.601  49.467  1.00  0.00     0.127 C 
HETATM   13  C5  UNL     1      20.722   1.983  48.653  1.00  0.00     0.091 C 
HETATM   14  O1  UNL     1      21.476   2.983  50.587  1.00  0.00    -0.298 OA
ENDBRANCH  11  12
ENDBRANCH   9  11
ENDBRANCH   8   9
ENDBRANCH   5   8
ENDBRANCH   1   2
BRANCH   1  15
HETATM   15  S1  UNL     1      25.180  -0.588  54.305  1.00  0.00     0.303 S 
HETATM   16  O3  UNL     1      25.308  -1.127  55.703  1.00  0.00    -0.193 OA
HETATM   17  O4  UNL     1      25.913  -1.555  53.421  1.00  0.00    -0.193 OA
BRANCH  15  18
HETATM   18  C11 UNL     1      23.533  -0.477  53.809  1.00  0.00     0.086 A 
HETATM   19  C12 UNL     1      22.628  -0.749  54.803  1.00  0.00     0.027 A 
HETATM   20  C13 UNL     1      21.257  -0.723  54.583  1.00  0.00     0.018 A 
HETATM   21  C14 UNL     1      20.781  -0.408  53.304  1.00  0.00     0.032 A 
HETATM   22  C18 UNL     1      21.698  -0.132  52.308  1.00  0.00     0.018 A 
HETATM   23  C19 UNL     1      23.071  -0.164  52.546  1.00  0.00     0.027 A 
BRANCH  21  24
HETATM   24  C15 UNL     1      19.372  -0.349  52.927  1.00  0.00     0.253 C 
HETATM   25  O5  UNL     1      19.318   0.758  52.302  1.00  0.00    -0.267 OA
HETATM   26  N1  UNL     1      18.269  -1.217  53.139  1.00  0.00    -0.357 N 
HETATM   27  C16 UNL     1      18.369  -2.486  53.859  1.00  0.00     0.152 C 
HETATM   28  C17 UNL     1      17.017  -0.741  52.583  1.00  0.00     0.152 C 
ENDBRANCH  21  24
ENDBRANCH  15  18
ENDBRANCH   1  15
TORSDOF 8
ENDMDL
MODEL 7
REMARK VINA RESULT:      -7.2      2.847      7.353
REMARK  8 active torsions:
REMARK  status: ('A' for Active; 'I' for Inactive)
REMARK    1  A    between atoms: C2_2  and  C3_3 
REMARK    2  A    between atoms: C2_2  and  C6_7 
REMARK    3  A    between atoms: C3_3  and  C4_4 
REMARK    4  A    between atoms: C6_7  and  C7_8 
REMARK    5  A    between atoms: C10_11  and  O2_12 
REMARK    6  A    between atoms: O2_12  and  S1_13 
REMARK    7  A    between atoms: S1_13  and  C11_16 
REMARK    8  A    between atoms: C14_19  and  C15_20 
REMARK       I    between atoms: C15_20  and  N1_22 
ROOT
HETATM    1  O2  UNL     1      25.930   0.893  54.486  1.00  0.00    -0.229 OA
ENDROOT
BRANCH   1   2
HETATM    2  C10 UNL     1      25.841   1.587  53.276  1.00  0.00     0.089 A 
HETATM    3  C9  UNL     1      24.876   2.584  53.225  1.00  0.00     0.039 A 
HETATM    4  C8  UNL     1      24.768   3.290  52.045  1.00  0.00     0.010 A 
HETATM    5  C7  UNL     1      25.573   3.036  50.955  1.00  0.00    -0.054 A 
HETATM    6  C21 UNL     1      26.511   2.034  51.068  1.00  0.00     0.010 A 
HETATM    7  C20 UNL     1      26.677   1.284  52.212  1.00  0.00     0.039 A 
BRANCH   5   8
HETATM    8  C6  UNL     1      25.542   3.763  49.666  1.00  0.00     0.072 C 
BRANCH   8   9
HETATM    9  C2  UNL     1      24.198   4.109  49.177  1.00  0.00    -0.078 C 
HETATM   10  C1  UNL     1      23.314   3.180  48.894  1.00  0.00     0.015 C 
BRANCH   9  11
HETATM   11  C3  UNL     1      23.725   5.504  48.941  1.00  0.00     0.111 C 
BRANCH  11  12
HETATM   12  C4  UNL     1      23.322   6.013  50.301  1.00  0.00     0.127 C 
HETATM   13  C5  UNL     1      24.241   7.059  50.898  1.00  0.00     0.091 C 
HETATM   14  O1  UNL     1      22.365   5.729  51.033  1.00  0.00    -0.298 OA
ENDBRANCH  11  12
ENDBRANCH   9  11
ENDBRANCH   8   9
ENDBRANCH   5   8
ENDBRANCH   1   2
BRANCH   1  15
HETATM   15  S1  UNL     1      25.276  -0.661  54.668  1.00  0.00     0.303 S 
HETATM   16  O3  UNL     1      25.508  -1.195  56.054  1.00  0.00    -0.193 OA
HETATM   17  O4  UNL     1      26.008  -1.588  53.741  1.00  0.00    -0.193 OA
BRANCH  15  18
HETATM   18  C11 UNL     1      23.601  -0.633  54.264  1.00  0.00     0.086 A 
HETATM   19  C12 UNL     1      23.346  -0.353  52.947  1.00  0.00     0.027 A 
HETATM   20  C13 UNL     1      22.054  -0.274  52.443  1.00  0.00     0.018 A 
HETATM   21  C14 UNL     1      20.974  -0.487  53.309  1.00  0.00     0.032 A 
HETATM   22  C18 UNL     1      21.238  -0.771  54.636  1.00  0.00     0.018 A 
HETATM   23  C19 UNL     1      22.541  -0.846  55.124  1.00  0.00     0.027 A 
BRANCH  21  24
HETATM   24  C15 UNL     1      19.568  -0.429  52.922  1.00  0.00     0.253 C 
HETATM   25  O5  UNL     1      19.097  -1.456  53.507  1.00  0.00    -0.267 OA
HETATM   26  N1  UNL     1      18.813   0.468  52.121  1.00  0.00    -0.357 N 
HETATM   27  C16 UNL     1      19.387   1.643  51.467  1.00  0.00     0.152 C 
HETATM   28  C17 UNL     1      17.410   0.122  51.997  1.00  0.00     0.152 C 
ENDBRANCH  21  24
ENDBRANCH  15  18
ENDBRANCH   1  15
TORSDOF 8
ENDMDL
MODEL 8
REMARK VINA RESULT:      -7.2      2.737      5.934
REMARK  8 active torsions:
REMARK  status: ('A' for Active; 'I' for Inactive)
REMARK    1  A    between atoms: C2_2  and  C3_3 
REMARK    2  A    between atoms: C2_2  and  C6_7 
REMARK    3  A    between atoms: C3_3  and  C4_4 
REMARK    4  A    between atoms: C6_7  and  C7_8 
REMARK    5  A    between atoms: C10_11  and  O2_12 
REMARK    6  A    between atoms: O2_12  and  S1_13 
REMARK    7  A    between atoms: S1_13  and  C11_16 
REMARK    8  A    between atoms: C14_19  and  C15_20 
REMARK       I    between atoms: C15_20  and  N1_22 
ROOT
HETATM    1  O2  UNL     1      21.389   2.916  52.548  1.00  0.00    -0.229 OA
ENDROOT
BRANCH   1   2
HETATM    2  C10 UNL     1      22.038   4.038  52.024  1.00  0.00     0.089 A 
HETATM    3  C9  UNL     1      21.491   4.559  50.859  1.00  0.00     0.039 A 
HETATM    4  C8  UNL     1      22.107   5.671  50.322  1.00  0.00     0.010 A 
HETATM    5  C7  UNL     1      23.214   6.254  50.901  1.00  0.00    -0.054 A 
HETATM    6  C21 UNL     1      23.709   5.690  52.056  1.00  0.00     0.010 A 
HETATM    7  C20 UNL     1      23.150   4.580  52.650  1.00  0.00     0.039 A 
BRANCH   5   8
HETATM    8  C6  UNL     1      23.915   7.460  50.406  1.00  0.00     0.072 C 
BRANCH   8   9
HETATM    9  C2  UNL     1      25.204   7.205  49.744  1.00  0.00    -0.078 C 
HETATM   10  C1  UNL     1      26.288   7.865  50.082  1.00  0.00     0.015 C 
BRANCH   9  11
HETATM   11  C3  UNL     1      25.400   6.218  48.643  1.00  0.00     0.111 C 
BRANCH  11  12
HETATM   12  C4  UNL     1      26.317   5.169  49.219  1.00  0.00     0.127 C 
HETATM   13  C5  UNL     1      27.673   5.062  48.555  1.00  0.00     0.091 C 
HETATM   14  O1  UNL     1      26.161   4.365  50.147  1.00  0.00    -0.298 OA
ENDBRANCH  11  12
ENDBRANCH   9  11
ENDBRANCH   8   9
ENDBRANCH   5   8
ENDBRANCH   1   2
BRANCH   1  15
HETATM   15  S1  UNL     1      21.735   1.352  51.993  1.00  0.00     0.303 S 
HETATM   16  O3  UNL     1      21.359   1.186  50.547  1.00  0.00    -0.193 OA
HETATM   17  O4  UNL     1      20.878   0.384  52.756  1.00  0.00    -0.193 OA
BRANCH  15  18
HETATM   18  C11 UNL     1      23.400   0.998  52.266  1.00  0.00     0.086 A 
HETATM   19  C12 UNL     1      23.628   0.155  53.322  1.00  0.00     0.027 A 
HETATM   20  C13 UNL     1      24.909  -0.228  53.700  1.00  0.00     0.018 A 
HETATM   21  C14 UNL     1      26.005   0.261  52.978  1.00  0.00     0.032 A 
HETATM   22  C18 UNL     1      25.767   1.109  51.913  1.00  0.00     0.018 A 
HETATM   23  C19 UNL     1      24.475   1.484  51.547  1.00  0.00     0.027 A 
BRANCH  21  24
HETATM   24  C15 UNL     1      27.401  -0.050  53.264  1.00  0.00     0.253 C 
HETATM   25  O5  UNL     1      27.396  -1.321  53.225  1.00  0.00    -0.267 OA
HETATM   26  N1  UNL     1      28.544   0.750  53.531  1.00  0.00    -0.357 N 
HETATM   27  C16 UNL     1      28.514   2.212  53.563  1.00  0.00     0.152 C 
HETATM   28  C17 UNL     1      29.757  -0.004  53.777  1.00  0.00     0.152 C 
ENDBRANCH  21  24
ENDBRANCH  15  18
ENDBRANCH   1  15
TORSDOF 8
ENDMDL
MODEL 9
REMARK VINA RESULT:      -7.1      4.172      6.008
REMARK  8 active torsions:
REMARK  status: ('A' for Active; 'I' for Inactive)
REMARK    1  A    between atoms: C2_2  and  C3_3 
REMARK    2  A    between atoms: C2_2  and  C6_7 
REMARK    3  A    between atoms: C3_3  and  C4_4 
REMARK    4  A    between atoms: C6_7  and  C7_8 
REMARK    5  A    between atoms: C10_11  and  O2_12 
REMARK    6  A    between atoms: O2_12  and  S1_13 
REMARK    7  A    between atoms: S1_13  and  C11_16 
REMARK    8  A    between atoms: C14_19  and  C15_20 
REMARK       I    between atoms: C15_20  and  N1_22 
ROOT
HETATM    1  O2  UNL     1      24.778   4.099  49.512  1.00  0.00    -0.229 OA
ENDROOT
BRANCH   1   2
HETATM    2  C10 UNL     1      25.157   3.365  50.639  1.00  0.00     0.089 A 
HETATM    3  C9  UNL     1      24.223   3.316  51.665  1.00  0.00     0.039 A 
HETATM    4  C8  UNL     1      24.567   2.593  52.790  1.00  0.00     0.010 A 
HETATM    5  C7  UNL     1      25.775   1.941  52.907  1.00  0.00    -0.054 A 
HETATM    6  C21 UNL     1      26.659   2.028  51.855  1.00  0.00     0.010 A 
HETATM    7  C20 UNL     1      26.388   2.731  50.701  1.00  0.00     0.039 A 
BRANCH   5   8
HETATM    8  C6  UNL     1      26.209   1.124  54.063  1.00  0.00     0.072 C 
BRANCH   8   9
HETATM    9  C2  UNL     1      25.814  -0.292  54.011  1.00  0.00    -0.078 C 
HETATM   10  C1  UNL     1      26.350  -1.120  53.144  1.00  0.00     0.015 C 
BRANCH   9  11
HETATM   11  C3  UNL     1      24.782  -0.907  54.896  1.00  0.00     0.111 C 
BRANCH  11  12
HETATM   12  C4  UNL     1      23.487  -0.771  54.137  1.00  0.00     0.127 C 
HETATM   13  C5  UNL     1      22.233  -1.003  54.953  1.00  0.00     0.091 C 
HETATM   14  O1  UNL     1      23.256  -0.503  52.951  1.00  0.00    -0.298 OA
ENDBRANCH  11  12
ENDBRANCH   9  11
ENDBRANCH   8   9
ENDBRANCH   5   8
ENDBRANCH   1   2
BRANCH   1  15
HETATM   15  S1  UNL     1      25.108   5.757  49.380  1.00  0.00     0.303 S 
HETATM   16  O3  UNL     1      24.824   6.478  50.668  1.00  0.00    -0.193 OA
HETATM   17  O4  UNL     1      24.171   6.342  48.364  1.00  0.00    -0.193 OA
BRANCH  15  18
HETATM   18  C11 UNL     1      26.739   5.981  48.867  1.00  0.00     0.086 A 
HETATM   19  C12 UNL     1      27.115   7.294  48.752  1.00  0.00     0.027 A 
HETATM   20  C13 UNL     1      28.388   7.665  48.336  1.00  0.00     0.018 A 
HETATM   21  C14 UNL     1      29.318   6.666  48.025  1.00  0.00     0.032 A 
HETATM   22  C18 UNL     1      28.933   5.344  48.146  1.00  0.00     0.018 A 
HETATM   23  C19 UNL     1      27.652   4.990  48.564  1.00  0.00     0.027 A 
BRANCH  21  24
HETATM   24  C15 UNL     1      30.684   6.907  47.571  1.00  0.00     0.253 C 
HETATM   25  O5  UNL     1      30.488   7.410  46.419  1.00  0.00    -0.267 OA
HETATM   26  N1  UNL     1      31.960   6.685  48.155  1.00  0.00    -0.357 N 
HETATM   27  C16 UNL     1      32.147   6.109  49.486  1.00  0.00     0.152 C 
HETATM   28  C17 UNL     1      33.077   7.075  47.317  1.00  0.00     0.152 C 
ENDBRANCH  21  24
ENDBRANCH  15  18
ENDBRANCH   1  15
TORSDOF 8
ENDMDL
