MODEL 1
REMARK VINA RESULT:      -7.5      0.000      0.000
REMARK  3 active torsions:
REMARK  status: ('A' for Active; 'I' for Inactive)
REMARK    1  A    between atoms: N1_3  and  C2_4 
REMARK    2  A    between atoms: C7_11  and  N4_12 
REMARK    3  A    between atoms: N4_12  and  C8_13 
ROOT
HETATM    1  S1  UNL     1      24.097   4.800  50.879  1.00  0.00    -0.055 SA
HETATM    2  C1  UNL     1      23.639   3.262  50.611  1.00  0.00     0.163 C 
HETATM    3  N1  UNL     1      23.116   2.122  50.404  1.00  0.00    -0.234 NA
ENDROOT
BRANCH   3   4
HETATM    4  C2  UNL     1      23.039   1.227  51.508  1.00  0.00     0.059 A 
HETATM    5  C3  UNL     1      21.866   0.531  51.719  1.00  0.00     0.034 A 
HETATM    6  C4  UNL     1      21.742  -0.351  52.777  1.00  0.00     0.035 A 
HETATM    7  C5  UNL     1      22.815  -0.513  53.609  1.00  0.00     0.072 A 
HETATM    8  N2  UNL     1      22.705  -1.358  54.629  1.00  0.00    -0.241 NA
HETATM    9  C13 UNL     1      23.992   0.200  53.379  1.00  0.00     0.041 A 
HETATM   10  C6  UNL     1      23.731  -1.574  55.503  1.00  0.00     0.236 A 
HETATM   11  N3  UNL     1      24.885  -0.880  55.283  1.00  0.00    -0.224 NA
HETATM   12  C7  UNL     1      25.017  -0.030  54.270  1.00  0.00     0.141 A 
HETATM   13  C14 UNL     1      24.138   1.076  52.341  1.00  0.00     0.049 A 
BRANCH  12  14
HETATM   14  N4  UNL     1      26.274   0.624  54.162  1.00  0.00    -0.342 N 
HETATM   15  H4  UNL     1      26.529   1.629  54.262  1.00  0.00     0.167 HD
BRANCH  14  16
HETATM   16  C8  UNL     1      27.441  -0.138  53.872  1.00  0.00     0.029 A 
HETATM   17  C9  UNL     1      27.619  -1.172  53.043  1.00  0.00     0.026 A 
HETATM   18  C10 UNL     1      29.013  -1.630  53.082  1.00  0.00    -0.001 A 
HETATM   19  C11 UNL     1      29.684  -0.870  53.938  1.00  0.00    -0.005 A 
HETATM   20  C12 UNL     1      28.752   0.137  54.510  1.00  0.00     0.130 A 
HETATM   21 BR1  UNL     1      29.407   1.914  54.151  1.00  0.00    -0.080 Br
ENDBRANCH  14  16
ENDBRANCH  12  14
ENDBRANCH   3   4
TORSDOF 3
ENDMDL
MODEL 2
REMARK VINA RESULT:      -7.4      2.273      3.636
REMARK  3 active torsions:
REMARK  status: ('A' for Active; 'I' for Inactive)
REMARK    1  A    between atoms: N1_3  and  C2_4 
REMARK    2  A    between atoms: C7_11  and  N4_12 
REMARK    3  A    between atoms: N4_12  and  C8_13 
ROOT
HETATM    1  S1  UNL     1      18.164  -0.950  53.098  1.00  0.00    -0.055 SA
HETATM    2  C1  UNL     1      19.766  -0.948  53.380  1.00  0.00     0.163 C 
HETATM    3  N1  UNL     1      20.982  -0.835  53.733  1.00  0.00    -0.234 NA
ENDROOT
BRANCH   3   4
HETATM    4  C2  UNL     1      21.816   0.011  52.948  1.00  0.00     0.059 A 
HETATM    5  C3  UNL     1      21.284   0.611  51.825  1.00  0.00     0.034 A 
HETATM    6  C4  UNL     1      22.053   1.442  51.031  1.00  0.00     0.035 A 
HETATM    7  C5  UNL     1      23.356   1.651  51.390  1.00  0.00     0.072 A 
HETATM    8  N2  UNL     1      24.103   2.447  50.633  1.00  0.00    -0.241 NA
HETATM    9  C13 UNL     1      23.875   1.035  52.529  1.00  0.00     0.041 A 
HETATM   10  C6  UNL     1      25.412   2.705  50.925  1.00  0.00     0.236 A 
HETATM   11  N3  UNL     1      25.924   2.105  52.037  1.00  0.00    -0.224 NA
HETATM   12  C7  UNL     1      25.196   1.305  52.809  1.00  0.00     0.141 A 
HETATM   13  C14 UNL     1      23.135   0.210  53.329  1.00  0.00     0.049 A 
BRANCH  12  14
HETATM   14  N4  UNL     1      25.860   0.749  53.936  1.00  0.00    -0.342 N 
HETATM   15  H4  UNL     1      25.605   0.749  54.946  1.00  0.00     0.167 HD
BRANCH  14  16
HETATM   16  C8  UNL     1      27.090   0.054  53.755  1.00  0.00     0.029 A 
HETATM   17  C9  UNL     1      27.367  -1.054  53.059  1.00  0.00     0.026 A 
HETATM   18  C10 UNL     1      28.791  -1.391  53.171  1.00  0.00    -0.001 A 
HETATM   19  C11 UNL     1      29.381  -0.483  53.938  1.00  0.00    -0.005 A 
HETATM   20  C12 UNL     1      28.360   0.507  54.373  1.00  0.00     0.130 A 
HETATM   21 BR1  UNL     1      28.882   2.276  53.811  1.00  0.00    -0.080 Br
ENDBRANCH  14  16
ENDBRANCH  12  14
ENDBRANCH   3   4
TORSDOF 3
ENDMDL
MODEL 3
REMARK VINA RESULT:      -7.3      2.901      5.905
REMARK  3 active torsions:
REMARK  status: ('A' for Active; 'I' for Inactive)
REMARK    1  A    between atoms: N1_3  and  C2_4 
REMARK    2  A    between atoms: C7_11  and  N4_12 
REMARK    3  A    between atoms: N4_12  and  C8_13 
ROOT
HETATM    1  S1  UNL     1      29.753  -0.888  53.743  1.00  0.00    -0.055 SA
HETATM    2  C1  UNL     1      28.673   0.277  54.093  1.00  0.00     0.163 C 
HETATM    3  N1  UNL     1      27.817   1.111  54.525  1.00  0.00    -0.234 NA
ENDROOT
BRANCH   3   4
HETATM    4  C2  UNL     1      26.470   0.950  54.093  1.00  0.00     0.059 A 
HETATM    5  C3  UNL     1      25.877  -0.290  54.214  1.00  0.00     0.034 A 
HETATM    6  C4  UNL     1      24.571  -0.497  53.810  1.00  0.00     0.035 A 
HETATM    7  C5  UNL     1      23.884   0.563  53.286  1.00  0.00     0.072 A 
HETATM    8  N2  UNL     1      22.628   0.373  52.894  1.00  0.00    -0.241 NA
HETATM    9  C13 UNL     1      24.500   1.809  53.172  1.00  0.00     0.041 A 
HETATM   10  C6  UNL     1      21.877   1.381  52.361  1.00  0.00     0.236 A 
HETATM   11  N3  UNL     1      22.474   2.602  52.248  1.00  0.00    -0.224 NA
HETATM   12  C7  UNL     1      23.729   2.814  52.634  1.00  0.00     0.141 A 
HETATM   13  C14 UNL     1      25.789   2.037  53.565  1.00  0.00     0.049 A 
BRANCH  12  14
HETATM   14  N4  UNL     1      24.222   4.135  52.456  1.00  0.00    -0.342 N 
HETATM   15  H4  UNL     1      24.678   4.788  53.128  1.00  0.00     0.167 HD
BRANCH  14  16
HETATM   16  C8  UNL     1      24.121   4.758  51.180  1.00  0.00     0.029 A 
HETATM   17  C9  UNL     1      23.675   5.972  50.839  1.00  0.00     0.026 A 
HETATM   18  C10 UNL     1      23.767   6.166  49.387  1.00  0.00    -0.001 A 
HETATM   19  C11 UNL     1      24.271   5.065  48.844  1.00  0.00    -0.005 A 
HETATM   20  C12 UNL     1      24.538   4.082  49.927  1.00  0.00     0.130 A 
HETATM   21 BR1  UNL     1      26.403   3.592  49.921  1.00  0.00    -0.080 Br
ENDBRANCH  14  16
ENDBRANCH  12  14
ENDBRANCH   3   4
TORSDOF 3
ENDMDL
MODEL 4
REMARK VINA RESULT:      -7.2      2.287      5.202
REMARK  3 active torsions:
REMARK  status: ('A' for Active; 'I' for Inactive)
REMARK    1  A    between atoms: N1_3  and  C2_4 
REMARK    2  A    between atoms: C7_11  and  N4_12 
REMARK    3  A    between atoms: N4_12  and  C8_13 
ROOT
HETATM    1  S1  UNL     1      28.240   1.571  53.500  1.00  0.00    -0.055 SA
HETATM    2  C1  UNL     1      27.349   0.465  54.294  1.00  0.00     0.163 C 
HETATM    3  N1  UNL     1      26.704  -0.513  54.788  1.00  0.00    -0.234 NA
ENDROOT
BRANCH   3   4
HETATM    4  C2  UNL     1      25.298  -0.544  54.573  1.00  0.00     0.059 A 
HETATM    5  C3  UNL     1      24.504  -1.230  55.468  1.00  0.00     0.034 A 
HETATM    6  C4  UNL     1      23.132  -1.289  55.303  1.00  0.00     0.035 A 
HETATM    7  C5  UNL     1      22.586  -0.649  54.226  1.00  0.00     0.072 A 
HETATM    8  N2  UNL     1      21.268  -0.701  54.058  1.00  0.00    -0.241 NA
HETATM    9  C13 UNL     1      23.405   0.040  53.332  1.00  0.00     0.041 A 
HETATM   10  C6  UNL     1      20.648  -0.087  53.008  1.00  0.00     0.236 A 
HETATM   11  N3  UNL     1      21.444   0.589  52.131  1.00  0.00    -0.224 NA
HETATM   12  C7  UNL     1      22.764   0.653  52.279  1.00  0.00     0.141 A 
HETATM   13  C14 UNL     1      24.762   0.112  53.474  1.00  0.00     0.049 A 
BRANCH  12  14
HETATM   14  N4  UNL     1      23.468   1.390  51.288  1.00  0.00    -0.342 N 
HETATM   15  H4  UNL     1      23.980   1.072  50.439  1.00  0.00     0.167 HD
BRANCH  14  16
HETATM   16  C8  UNL     1      23.544   2.809  51.388  1.00  0.00     0.029 A 
HETATM   17  C9  UNL     1      23.102   3.637  52.340  1.00  0.00     0.026 A 
HETATM   18  C10 UNL     1      23.417   5.030  51.998  1.00  0.00    -0.001 A 
HETATM   19  C11 UNL     1      24.052   5.046  50.833  1.00  0.00    -0.005 A 
HETATM   20  C12 UNL     1      24.188   3.648  50.347  1.00  0.00     0.130 A 
HETATM   21 BR1  UNL     1      26.050   3.224  50.083  1.00  0.00    -0.080 Br
ENDBRANCH  14  16
ENDBRANCH  12  14
ENDBRANCH   3   4
TORSDOF 3
ENDMDL
MODEL 5
REMARK VINA RESULT:      -7.1      2.517      5.141
REMARK  3 active torsions:
REMARK  status: ('A' for Active; 'I' for Inactive)
REMARK    1  A    between atoms: N1_3  and  C2_4 
REMARK    2  A    between atoms: C7_11  and  N4_12 
REMARK    3  A    between atoms: N4_12  and  C8_13 
ROOT
HETATM    1  S1  UNL     1      19.249  -0.025  52.293  1.00  0.00    -0.055 SA
HETATM    2  C1  UNL     1      20.158  -0.549  53.537  1.00  0.00     0.163 C 
HETATM    3  N1  UNL     1      20.836  -0.801  54.582  1.00  0.00    -0.234 NA
ENDROOT
BRANCH   3   4
HETATM    4  C2  UNL     1      22.253  -0.715  54.480  1.00  0.00     0.059 A 
HETATM    5  C3  UNL     1      23.027  -1.361  55.422  1.00  0.00     0.034 A 
HETATM    6  C4  UNL     1      24.408  -1.308  55.365  1.00  0.00     0.035 A 
HETATM    7  C5  UNL     1      24.983  -0.595  54.350  1.00  0.00     0.072 A 
HETATM    8  N2  UNL     1      26.310  -0.538  54.288  1.00  0.00    -0.241 NA
HETATM    9  C13 UNL     1      24.184   0.052  53.408  1.00  0.00     0.041 A 
HETATM   10  C6  UNL     1      26.959   0.153  53.306  1.00  0.00     0.236 A 
HETATM   11  N3  UNL     1      26.181   0.787  52.381  1.00  0.00    -0.224 NA
HETATM   12  C7  UNL     1      24.854   0.743  52.424  1.00  0.00     0.141 A 
HETATM   13  C14 UNL     1      22.818   0.013  53.443  1.00  0.00     0.049 A 
BRANCH  12  14
HETATM   14  N4  UNL     1      24.172   1.451  51.397  1.00  0.00    -0.342 N 
HETATM   15  H4  UNL     1      23.705   1.110  50.530  1.00  0.00     0.167 HD
BRANCH  14  16
HETATM   16  C8  UNL     1      24.054   2.867  51.478  1.00  0.00     0.029 A 
HETATM   17  C9  UNL     1      23.611   3.647  52.470  1.00  0.00     0.026 A 
HETATM   18  C10 UNL     1      23.680   5.062  52.084  1.00  0.00    -0.001 A 
HETATM   19  C11 UNL     1      24.167   5.141  50.852  1.00  0.00    -0.005 A 
HETATM   20  C12 UNL     1      24.445   3.765  50.363  1.00  0.00     0.130 A 
HETATM   21 BR1  UNL     1      26.305   3.604  49.883  1.00  0.00    -0.080 Br
ENDBRANCH  14  16
ENDBRANCH  12  14
ENDBRANCH   3   4
TORSDOF 3
ENDMDL
MODEL 6
REMARK VINA RESULT:      -7.1      2.728      4.264
REMARK  3 active torsions:
REMARK  status: ('A' for Active; 'I' for Inactive)
REMARK    1  A    between atoms: N1_3  and  C2_4 
REMARK    2  A    between atoms: C7_11  and  N4_12 
REMARK    3  A    between atoms: N4_12  and  C8_13 
ROOT
HETATM    1  S1  UNL     1      21.915  -1.534  54.510  1.00  0.00    -0.055 SA
HETATM    2  C1  UNL     1      21.624  -0.040  53.935  1.00  0.00     0.163 C 
HETATM    3  N1  UNL     1      21.275   1.052  53.385  1.00  0.00    -0.234 NA
ENDROOT
BRANCH   3   4
HETATM    4  C2  UNL     1      22.126   1.575  52.371  1.00  0.00     0.059 A 
HETATM    5  C3  UNL     1      21.625   1.723  51.094  1.00  0.00     0.034 A 
HETATM    6  C4  UNL     1      22.411   2.228  50.075  1.00  0.00     0.035 A 
HETATM    7  C5  UNL     1      23.701   2.574  50.369  1.00  0.00     0.072 A 
HETATM    8  N2  UNL     1      24.465   3.059  49.396  1.00  0.00    -0.241 NA
HETATM    9  C13 UNL     1      24.190   2.417  51.666  1.00  0.00     0.041 A 
HETATM   10  C6  UNL     1      25.762   3.428  49.610  1.00  0.00     0.236 A 
HETATM   11  N3  UNL     1      26.245   3.276  50.877  1.00  0.00    -0.224 NA
HETATM   12  C7  UNL     1      25.499   2.793  51.865  1.00  0.00     0.141 A 
HETATM   13  C14 UNL     1      23.431   1.920  52.689  1.00  0.00     0.049 A 
BRANCH  12  14
HETATM   14  N4  UNL     1      26.133   2.689  53.133  1.00  0.00    -0.342 N 
HETATM   15  H4  UNL     1      25.949   3.187  54.029  1.00  0.00     0.167 HD
BRANCH  14  16
HETATM   16  C8  UNL     1      27.212   1.777  53.307  1.00  0.00     0.029 A 
HETATM   17  C9  UNL     1      28.506   2.000  53.559  1.00  0.00     0.026 A 
HETATM   18  C10 UNL     1      29.239   0.732  53.657  1.00  0.00    -0.001 A 
HETATM   19  C11 UNL     1      28.385  -0.266  53.464  1.00  0.00    -0.005 A 
HETATM   20  C12 UNL     1      27.034   0.306  53.227  1.00  0.00     0.130 A 
HETATM   21 BR1  UNL     1      25.795  -0.376  54.537  1.00  0.00    -0.080 Br
ENDBRANCH  14  16
ENDBRANCH  12  14
ENDBRANCH   3   4
TORSDOF 3
ENDMDL
MODEL 7
REMARK VINA RESULT:      -7.1      3.168      4.707
REMARK  3 active torsions:
REMARK  status: ('A' for Active; 'I' for Inactive)
REMARK    1  A    between atoms: N1_3  and  C2_4 
REMARK    2  A    between atoms: C7_11  and  N4_12 
REMARK    3  A    between atoms: N4_12  and  C8_13 
ROOT
HETATM    1  S1  UNL     1      28.519   7.508  47.766  1.00  0.00    -0.055 SA
HETATM    2  C1  UNL     1      28.241   5.982  48.257  1.00  0.00     0.163 C 
HETATM    3  N1  UNL     1      27.954   4.764  48.481  1.00  0.00    -0.234 NA
ENDROOT
BRANCH   3   4
HETATM    4  C2  UNL     1      26.805   4.499  49.279  1.00  0.00     0.059 A 
HETATM    5  C3  UNL     1      25.771   5.412  49.280  1.00  0.00     0.034 A 
HETATM    6  C4  UNL     1      24.634   5.199  50.037  1.00  0.00     0.035 A 
HETATM    7  C5  UNL     1      24.565   4.057  50.786  1.00  0.00     0.072 A 
HETATM    8  N2  UNL     1      23.476   3.844  51.519  1.00  0.00    -0.241 NA
HETATM    9  C13 UNL     1      25.620   3.146  50.773  1.00  0.00     0.041 A 
HETATM   10  C6  UNL     1      23.332   2.729  52.293  1.00  0.00     0.236 A 
HETATM   11  N3  UNL     1      24.361   1.834  52.282  1.00  0.00    -0.224 NA
HETATM   12  C7  UNL     1      25.459   2.026  51.558  1.00  0.00     0.141 A 
HETATM   13  C14 UNL     1      26.754   3.335  50.032  1.00  0.00     0.049 A 
BRANCH  12  14
HETATM   14  N4  UNL     1      26.450   1.012  51.644  1.00  0.00    -0.342 N 
HETATM   15  H4  UNL     1      26.659   0.209  51.014  1.00  0.00     0.167 HD
BRANCH  14  16
HETATM   16  C8  UNL     1      27.358   1.007  52.740  1.00  0.00     0.029 A 
HETATM   17  C9  UNL     1      28.272   1.908  53.116  1.00  0.00     0.026 A 
HETATM   18  C10 UNL     1      28.974   1.458  54.324  1.00  0.00    -0.001 A 
HETATM   19  C11 UNL     1      28.484   0.278  54.683  1.00  0.00    -0.005 A 
HETATM   20  C12 UNL     1      27.423  -0.109  53.717  1.00  0.00     0.130 A 
HETATM   21 BR1  UNL     1      25.760  -0.392  54.650  1.00  0.00    -0.080 Br
ENDBRANCH  14  16
ENDBRANCH  12  14
ENDBRANCH   3   4
TORSDOF 3
ENDMDL
MODEL 8
REMARK VINA RESULT:      -6.8      3.224      4.697
REMARK  3 active torsions:
REMARK  status: ('A' for Active; 'I' for Inactive)
REMARK    1  A    between atoms: N1_3  and  C2_4 
REMARK    2  A    between atoms: C7_11  and  N4_12 
REMARK    3  A    between atoms: N4_12  and  C8_13 
ROOT
HETATM    1  S1  UNL     1      17.931  -0.576  52.126  1.00  0.00    -0.055 SA
HETATM    2  C1  UNL     1      19.223   0.404  51.995  1.00  0.00     0.163 C 
HETATM    3  N1  UNL     1      20.255   1.098  51.733  1.00  0.00    -0.234 NA
ENDROOT
BRANCH   3   4
HETATM    4  C2  UNL     1      21.480   0.705  52.344  1.00  0.00     0.059 A 
HETATM    5  C3  UNL     1      21.579  -0.563  52.878  1.00  0.00     0.034 A 
HETATM    6  C4  UNL     1      22.747  -0.992  53.480  1.00  0.00     0.035 A 
HETATM    7  C5  UNL     1      23.801  -0.122  53.534  1.00  0.00     0.072 A 
HETATM    8  N2  UNL     1      24.928  -0.524  54.112  1.00  0.00    -0.241 NA
HETATM    9  C13 UNL     1      23.681   1.157  52.989  1.00  0.00     0.041 A 
HETATM   10  C6  UNL     1      26.023   0.286  54.205  1.00  0.00     0.236 A 
HETATM   11  N3  UNL     1      25.911   1.537  53.673  1.00  0.00    -0.224 NA
HETATM   12  C7  UNL     1      24.794   1.961  53.090  1.00  0.00     0.141 A 
HETATM   13  C14 UNL     1      22.537   1.602  52.388  1.00  0.00     0.049 A 
BRANCH  12  14
HETATM   14  N4  UNL     1      24.819   3.287  52.581  1.00  0.00    -0.342 N 
HETATM   15  H4  UNL     1      24.459   4.178  52.984  1.00  0.00     0.167 HD
BRANCH  14  16
HETATM   16  C8  UNL     1      25.416   3.544  51.314  1.00  0.00     0.029 A 
HETATM   17  C9  UNL     1      26.430   2.933  50.693  1.00  0.00     0.026 A 
HETATM   18  C10 UNL     1      26.688   3.559  49.390  1.00  0.00    -0.001 A 
HETATM   19  C11 UNL     1      25.825   4.553  49.220  1.00  0.00    -0.005 A 
HETATM   20  C12 UNL     1      24.948   4.630  50.418  1.00  0.00     0.130 A 
HETATM   21 BR1  UNL     1      23.104   4.433  49.893  1.00  0.00    -0.080 Br
ENDBRANCH  14  16
ENDBRANCH  12  14
ENDBRANCH   3   4
TORSDOF 3
ENDMDL
MODEL 9
REMARK VINA RESULT:      -6.7      2.348      2.853
REMARK  3 active torsions:
REMARK  status: ('A' for Active; 'I' for Inactive)
REMARK    1  A    between atoms: N1_3  and  C2_4 
REMARK    2  A    between atoms: C7_11  and  N4_12 
REMARK    3  A    between atoms: N4_12  and  C8_13 
ROOT
HETATM    1  S1  UNL     1      18.935   3.954  50.169  1.00  0.00    -0.055 SA
HETATM    2  C1  UNL     1      19.387   2.392  50.118  1.00  0.00     0.163 C 
HETATM    3  N1  UNL     1      19.568   1.134  50.090  1.00  0.00    -0.234 NA
ENDROOT
BRANCH   3   4
HETATM    4  C2  UNL     1      20.026   0.512  51.286  1.00  0.00     0.059 A 
HETATM    5  C3  UNL     1      19.115  -0.152  52.080  1.00  0.00     0.034 A 
HETATM    6  C4  UNL     1      19.510  -0.773  53.251  1.00  0.00     0.035 A 
HETATM    7  C5  UNL     1      20.831  -0.708  53.599  1.00  0.00     0.072 A 
HETATM    8  N2  UNL     1      21.221  -1.301  54.723  1.00  0.00    -0.241 NA
HETATM    9  C13 UNL     1      21.738  -0.032  52.782  1.00  0.00     0.041 A 
HETATM   10  C6  UNL     1      22.521  -1.282  55.138  1.00  0.00     0.236 A 
HETATM   11  N3  UNL     1      23.412  -0.622  54.342  1.00  0.00    -0.224 NA
HETATM   12  C7  UNL     1      23.045  -0.022  53.215  1.00  0.00     0.141 A 
HETATM   13  C14 UNL     1      21.370   0.588  51.621  1.00  0.00     0.049 A 
BRANCH  12  14
HETATM   14  N4  UNL     1      24.078   0.627  52.487  1.00  0.00    -0.342 N 
HETATM   15  H4  UNL     1      24.036   1.384  51.772  1.00  0.00     0.167 HD
BRANCH  14  16
HETATM   16  C8  UNL     1      25.434   0.250  52.701  1.00  0.00     0.029 A 
HETATM   17  C9  UNL     1      25.997  -0.961  52.775  1.00  0.00     0.026 A 
HETATM   18  C10 UNL     1      27.441  -0.844  53.010  1.00  0.00    -0.001 A 
HETATM   19  C11 UNL     1      27.756   0.443  53.080  1.00  0.00    -0.005 A 
HETATM   20  C12 UNL     1      26.519   1.245  52.891  1.00  0.00     0.130 A 
HETATM   21 BR1  UNL     1      26.728   2.427  51.383  1.00  0.00    -0.080 Br
ENDBRANCH  14  16
ENDBRANCH  12  14
ENDBRANCH   3   4
TORSDOF 3
ENDMDL
