MODEL 1
REMARK VINA RESULT:      -7.8      0.000      0.000
REMARK  8 active torsions:
REMARK  status: ('A' for Active; 'I' for Inactive)
REMARK    1  A    between atoms: N1_2  and  C2_3 
REMARK    2  A    between atoms: C2_3  and  O1_4 
REMARK    3  A    between atoms: C2_3  and  C3_5 
REMARK    4  A    between atoms: C2_3  and  C12_16 
REMARK    5  A    between atoms: C4_6  and  C5_7 
REMARK    6  A    between atoms: C5_7  and  N2_8 
REMARK    7  A    between atoms: N2_8  and  C6_9 
REMARK    8  A    between atoms: C12_16  and  C13_17 
ROOT
HETATM    1  C2  UNL     1      26.798  -0.354  53.394  1.00  0.00     0.277 C 
ENDROOT
BRANCH   1   2
HETATM    2  N1  UNL     1      27.384  -0.179  54.683  1.00  0.00     0.118 N 
HETATM    3  C1  UNL     1      28.680   0.456  54.640  1.00  0.00     0.311 C 
HETATM    4  H4  UNL     1      26.787   0.421  55.310  1.00  0.00     0.319 HD
ENDBRANCH   1   2
BRANCH   1   5
HETATM    5  O1  UNL     1      27.657  -1.241  52.685  1.00  0.00    -0.360 OA
HETATM    6  H5  UNL     1      27.709  -2.127  53.138  1.00  0.00     0.213 HD
ENDBRANCH   1   5
BRANCH   1   7
HETATM    7  C3  UNL     1      26.779   0.960  52.630  1.00  0.00     0.041 C 
HETATM    8  C4  UNL     1      26.494   1.418  51.404  1.00  0.00    -0.007 C 
BRANCH   8   9
HETATM    9  C5  UNL     1      26.594   2.842  50.992  1.00  0.00     0.147 C 
BRANCH   9  10
HETATM   10  N2  UNL     1      26.690   3.004  49.563  1.00  0.00    -0.386 N 
HETATM   11  H10 UNL     1      26.710   2.287  48.830  1.00  0.00     0.160 HD
BRANCH  10  12
HETATM   12  C6  UNL     1      26.768   4.378  49.132  1.00  0.00     0.029 A 
HETATM   13  C7  UNL     1      25.665   5.225  49.224  1.00  0.00     0.029 A 
HETATM   14  C8  UNL     1      25.724   6.548  48.813  1.00  0.00     0.004 A 
HETATM   15  C9  UNL     1      26.913   7.050  48.294  1.00  0.00     0.019 A 
HETATM   16  C10 UNL     1      28.016   6.229  48.193  1.00  0.00     0.013 A 
HETATM   17 BR1  UNL     1      29.596   6.990  47.474  1.00  0.00    -0.051 Br
HETATM   18  C11 UNL     1      27.928   4.918  48.609  1.00  0.00     0.048 A 
ENDBRANCH  10  12
ENDBRANCH   9  10
ENDBRANCH   8   9
ENDBRANCH   1   7
BRANCH   1  19
HETATM   19  C12 UNL     1      25.441  -0.901  53.318  1.00  0.00     0.112 C 
BRANCH  19  20
HETATM   20  C13 UNL     1      24.290  -0.186  53.933  1.00  0.00     0.161 A 
HETATM   21  O2  UNL     1      23.913  -1.022  55.035  1.00  0.00    -0.353 OA
HETATM   22  C14 UNL     1      22.710  -1.569  55.285  1.00  0.00     0.135 A 
HETATM   23  C15 UNL     1      21.662  -1.347  54.521  1.00  0.00     0.024 A 
HETATM   24  C16 UNL     1      21.907  -0.468  53.381  1.00  0.00     0.007 A 
HETATM   25  C17 UNL     1      23.112   0.069  53.113  1.00  0.00    -0.054 A 
HETATM   26  C18 UNL     1      22.892   0.951  51.910  1.00  0.00     0.046 C 
ENDBRANCH  19  20
ENDBRANCH   1  19
TORSDOF 8
ENDMDL
MODEL 2
REMARK VINA RESULT:      -7.7      2.582      2.954
REMARK  8 active torsions:
REMARK  status: ('A' for Active; 'I' for Inactive)
REMARK    1  A    between atoms: N1_2  and  C2_3 
REMARK    2  A    between atoms: C2_3  and  O1_4 
REMARK    3  A    between atoms: C2_3  and  C3_5 
REMARK    4  A    between atoms: C2_3  and  C12_16 
REMARK    5  A    between atoms: C4_6  and  C5_7 
REMARK    6  A    between atoms: C5_7  and  N2_8 
REMARK    7  A    between atoms: N2_8  and  C6_9 
REMARK    8  A    between atoms: C12_16  and  C13_17 
ROOT
HETATM    1  C2  UNL     1      26.730  -0.528  53.426  1.00  0.00     0.277 C 
ENDROOT
BRANCH   1   2
HETATM    2  N1  UNL     1      27.224  -0.003  54.658  1.00  0.00     0.118 N 
HETATM    3  C1  UNL     1      28.665   0.034  54.726  1.00  0.00     0.311 C 
HETATM    4  H4  UNL     1      26.899   0.985  54.824  1.00  0.00     0.319 HD
ENDBRANCH   1   2
BRANCH   1   5
HETATM    5  O1  UNL     1      27.609  -1.589  53.066  1.00  0.00    -0.360 OA
HETATM    6  H5  UNL     1      28.498  -1.237  52.785  1.00  0.00     0.213 HD
ENDBRANCH   1   5
BRANCH   1   7
HETATM    7  C3  UNL     1      26.814   0.517  52.325  1.00  0.00     0.041 C 
HETATM    8  C4  UNL     1      26.553   1.818  52.138  1.00  0.00    -0.007 C 
BRANCH   8   9
HETATM    9  C5  UNL     1      26.770   2.544  50.860  1.00  0.00     0.147 C 
BRANCH   9  10
HETATM   10  N2  UNL     1      26.204   3.870  50.870  1.00  0.00    -0.386 N 
HETATM   11  H10 UNL     1      26.662   4.769  51.057  1.00  0.00     0.160 HD
BRANCH  10  12
HETATM   12  C6  UNL     1      24.794   3.909  50.573  1.00  0.00     0.029 A 
HETATM   13  C7  UNL     1      23.893   4.533  51.434  1.00  0.00     0.029 A 
HETATM   14  C8  UNL     1      22.535   4.578  51.163  1.00  0.00     0.004 A 
HETATM   15  C9  UNL     1      22.050   3.986  50.000  1.00  0.00     0.019 A 
HETATM   16  C10 UNL     1      22.924   3.364  49.134  1.00  0.00     0.013 A 
HETATM   17 BR1  UNL     1      22.183   2.583  47.574  1.00  0.00    -0.051 Br
HETATM   18  C11 UNL     1      24.269   3.334  49.430  1.00  0.00     0.048 A 
ENDBRANCH  10  12
ENDBRANCH   9  10
ENDBRANCH   8   9
ENDBRANCH   1   7
BRANCH   1  19
HETATM   19  C12 UNL     1      25.365  -1.058  53.396  1.00  0.00     0.112 C 
BRANCH  19  20
HETATM   20  C13 UNL     1      24.233  -0.297  53.990  1.00  0.00     0.161 A 
HETATM   21  O2  UNL     1      23.799  -1.120  55.082  1.00  0.00    -0.353 OA
HETATM   22  C14 UNL     1      22.570  -1.616  55.305  1.00  0.00     0.135 A 
HETATM   23  C15 UNL     1      21.547  -1.347  54.521  1.00  0.00     0.024 A 
HETATM   24  C16 UNL     1      21.852  -0.477  53.389  1.00  0.00     0.007 A 
HETATM   25  C17 UNL     1      23.083   0.010  53.148  1.00  0.00    -0.054 A 
HETATM   26  C18 UNL     1      22.926   0.904  51.944  1.00  0.00     0.046 C 
ENDBRANCH  19  20
ENDBRANCH   1  19
TORSDOF 8
ENDMDL
MODEL 3
REMARK VINA RESULT:      -7.5      4.112      6.713
REMARK  8 active torsions:
REMARK  status: ('A' for Active; 'I' for Inactive)
REMARK    1  A    between atoms: N1_2  and  C2_3 
REMARK    2  A    between atoms: C2_3  and  O1_4 
REMARK    3  A    between atoms: C2_3  and  C3_5 
REMARK    4  A    between atoms: C2_3  and  C12_16 
REMARK    5  A    between atoms: C4_6  and  C5_7 
REMARK    6  A    between atoms: C5_7  and  N2_8 
REMARK    7  A    between atoms: N2_8  and  C6_9 
REMARK    8  A    between atoms: C12_16  and  C13_17 
ROOT
HETATM    1  C2  UNL     1      26.075   2.328  51.929  1.00  0.00     0.277 C 
ENDROOT
BRANCH   1   2
HETATM    2  N1  UNL     1      25.965   2.885  53.238  1.00  0.00     0.118 N 
HETATM    3  C1  UNL     1      24.600   3.103  53.653  1.00  0.00     0.311 C 
HETATM    4  H4  UNL     1      26.396   2.261  53.969  1.00  0.00     0.319 HD
ENDBRANCH   1   2
BRANCH   1   5
HETATM    5  O1  UNL     1      26.952   3.186  51.206  1.00  0.00    -0.360 OA
HETATM    6  H5  UNL     1      27.766   3.398  51.740  1.00  0.00     0.213 HD
ENDBRANCH   1   5
BRANCH   1   7
HETATM    7  C3  UNL     1      24.732   2.357  51.218  1.00  0.00     0.041 C 
HETATM    8  C4  UNL     1      24.188   2.840  50.093  1.00  0.00    -0.007 C 
BRANCH   8   9
HETATM    9  C5  UNL     1      22.765   2.666  49.704  1.00  0.00     0.147 C 
BRANCH   9  10
HETATM   10  N2  UNL     1      22.385   1.281  49.586  1.00  0.00    -0.386 N 
HETATM   11  H10 UNL     1      22.712   0.573  48.919  1.00  0.00     0.160 HD
BRANCH  10  12
HETATM   12  C6  UNL     1      21.404   0.857  50.555  1.00  0.00     0.029 A 
HETATM   13  C7  UNL     1      20.040   0.920  50.274  1.00  0.00     0.029 A 
HETATM   14  C8  UNL     1      19.086   0.517  51.195  1.00  0.00     0.004 A 
HETATM   15  C9  UNL     1      19.493   0.035  52.435  1.00  0.00     0.019 A 
HETATM   16  C10 UNL     1      20.837  -0.037  52.733  1.00  0.00     0.013 A 
HETATM   17 BR1  UNL     1      21.308  -0.705  54.443  1.00  0.00    -0.051 Br
HETATM   18  C11 UNL     1      21.764   0.372  51.799  1.00  0.00     0.048 A 
ENDBRANCH  10  12
ENDBRANCH   9  10
ENDBRANCH   8   9
ENDBRANCH   1   7
BRANCH   1  19
HETATM   19  C12 UNL     1      26.588   0.962  51.798  1.00  0.00     0.112 C 
BRANCH  19  20
HETATM   20  C13 UNL     1      27.002   0.181  52.993  1.00  0.00     0.161 A 
HETATM   21  O2  UNL     1      28.016   0.991  53.602  1.00  0.00    -0.353 OA
HETATM   22  C14 UNL     1      29.282   0.647  53.898  1.00  0.00     0.135 A 
HETATM   23  C15 UNL     1      29.751  -0.565  53.691  1.00  0.00     0.024 A 
HETATM   24  C16 UNL     1      28.795  -1.504  53.112  1.00  0.00     0.007 A 
HETATM   25  C17 UNL     1      27.531  -1.164  52.796  1.00  0.00    -0.054 A 
HETATM   26  C18 UNL     1      26.891  -2.438  52.304  1.00  0.00     0.046 C 
ENDBRANCH  19  20
ENDBRANCH   1  19
TORSDOF 8
ENDMDL
MODEL 4
REMARK VINA RESULT:      -7.5      4.898      7.949
REMARK  8 active torsions:
REMARK  status: ('A' for Active; 'I' for Inactive)
REMARK    1  A    between atoms: N1_2  and  C2_3 
REMARK    2  A    between atoms: C2_3  and  O1_4 
REMARK    3  A    between atoms: C2_3  and  C3_5 
REMARK    4  A    between atoms: C2_3  and  C12_16 
REMARK    5  A    between atoms: C4_6  and  C5_7 
REMARK    6  A    between atoms: C5_7  and  N2_8 
REMARK    7  A    between atoms: N2_8  and  C6_9 
REMARK    8  A    between atoms: C12_16  and  C13_17 
ROOT
HETATM    1  C2  UNL     1      24.822   0.936  53.103  1.00  0.00     0.277 C 
ENDROOT
BRANCH   1   2
HETATM    2  N1  UNL     1      24.763   2.277  53.587  1.00  0.00     0.118 N 
HETATM    3  C1  UNL     1      23.941   3.142  52.774  1.00  0.00     0.311 C 
HETATM    4  H4  UNL     1      24.364   2.327  54.561  1.00  0.00     0.319 HD
ENDBRANCH   1   2
BRANCH   1   5
HETATM    5  O1  UNL     1      24.861   1.029  51.682  1.00  0.00    -0.360 OA
HETATM    6  H5  UNL     1      24.011   1.407  51.325  1.00  0.00     0.213 HD
ENDBRANCH   1   5
BRANCH   1   7
HETATM    7  C3  UNL     1      23.558   0.176  53.469  1.00  0.00     0.041 C 
HETATM    8  C4  UNL     1      23.176  -0.848  54.244  1.00  0.00    -0.007 C 
BRANCH   8   9
HETATM    9  C5  UNL     1      21.780  -1.341  54.360  1.00  0.00     0.147 C 
BRANCH   9  10
HETATM   10  N2  UNL     1      20.815  -0.273  54.437  1.00  0.00    -0.386 N 
HETATM   11  H10 UNL     1      20.706   0.451  55.155  1.00  0.00     0.160 HD
BRANCH  10  12
HETATM   12  C6  UNL     1      19.885  -0.241  53.336  1.00  0.00     0.029 A 
HETATM   13  C7  UNL     1      20.172   0.465  52.170  1.00  0.00     0.029 A 
HETATM   14  C8  UNL     1      19.287   0.506  51.103  1.00  0.00     0.004 A 
HETATM   15  C9  UNL     1      18.078  -0.176  51.192  1.00  0.00     0.019 A 
HETATM   16  C10 UNL     1      17.774  -0.882  52.337  1.00  0.00     0.013 A 
HETATM   17 BR1  UNL     1      16.106  -1.783  52.378  1.00  0.00    -0.051 Br
HETATM   18  C11 UNL     1      18.672  -0.904  53.382  1.00  0.00     0.048 A 
ENDBRANCH  10  12
ENDBRANCH   9  10
ENDBRANCH   8   9
ENDBRANCH   1   7
BRANCH   1  19
HETATM   19  C12 UNL     1      25.949   0.098  53.520  1.00  0.00     0.112 C 
BRANCH  19  20
HETATM   20  C13 UNL     1      27.249   0.146  52.799  1.00  0.00     0.161 A 
HETATM   21  O2  UNL     1      27.675  -1.222  52.762  1.00  0.00    -0.353 OA
HETATM   22  C14 UNL     1      28.829  -1.741  53.217  1.00  0.00     0.135 A 
HETATM   23  C15 UNL     1      29.780  -0.997  53.741  1.00  0.00     0.024 A 
HETATM   24  C16 UNL     1      29.484   0.431  53.794  1.00  0.00     0.007 A 
HETATM   25  C17 UNL     1      28.325   0.958  53.357  1.00  0.00    -0.054 A 
HETATM   26  C18 UNL     1      28.477   2.448  53.534  1.00  0.00     0.046 C 
ENDBRANCH  19  20
ENDBRANCH   1  19
TORSDOF 8
ENDMDL
MODEL 5
REMARK VINA RESULT:      -7.4      2.562      4.360
REMARK  8 active torsions:
REMARK  status: ('A' for Active; 'I' for Inactive)
REMARK    1  A    between atoms: N1_2  and  C2_3 
REMARK    2  A    between atoms: C2_3  and  O1_4 
REMARK    3  A    between atoms: C2_3  and  C3_5 
REMARK    4  A    between atoms: C2_3  and  C12_16 
REMARK    5  A    between atoms: C4_6  and  C5_7 
REMARK    6  A    between atoms: C5_7  and  N2_8 
REMARK    7  A    between atoms: N2_8  and  C6_9 
REMARK    8  A    between atoms: C12_16  and  C13_17 
ROOT
HETATM    1  C2  UNL     1      25.659   2.202  51.861  1.00  0.00     0.277 C 
ENDROOT
BRANCH   1   2
HETATM    2  N1  UNL     1      24.312   1.794  51.622  1.00  0.00     0.118 N 
HETATM    3  C1  UNL     1      23.363   2.400  52.524  1.00  0.00     0.311 C 
HETATM    4  H4  UNL     1      23.992   2.045  50.650  1.00  0.00     0.319 HD
ENDBRANCH   1   2
BRANCH   1   5
HETATM    5  O1  UNL     1      25.672   2.782  53.161  1.00  0.00    -0.360 OA
HETATM    6  H5  UNL     1      24.762   3.092  53.424  1.00  0.00     0.213 HD
ENDBRANCH   1   5
BRANCH   1   7
HETATM    7  C3  UNL     1      26.074   3.287  50.881  1.00  0.00     0.041 C 
HETATM    8  C4  UNL     1      25.550   4.004  49.878  1.00  0.00    -0.007 C 
BRANCH   8   9
HETATM    9  C5  UNL     1      26.290   5.033  49.103  1.00  0.00     0.147 C 
BRANCH   9  10
HETATM   10  N2  UNL     1      27.657   4.658  48.842  1.00  0.00    -0.386 N 
HETATM   11  H10 UNL     1      28.130   3.766  49.022  1.00  0.00     0.160 HD
BRANCH  10  12
HETATM   12  C6  UNL     1      28.449   5.705  48.244  1.00  0.00     0.029 A 
HETATM   13  C7  UNL     1      27.865   6.899  47.823  1.00  0.00     0.029 A 
HETATM   14  C8  UNL     1      28.612   7.914  47.246  1.00  0.00     0.004 A 
HETATM   15  C9  UNL     1      29.983   7.744  47.080  1.00  0.00     0.019 A 
HETATM   16  C10 UNL     1      30.581   6.571  47.490  1.00  0.00     0.013 A 
HETATM   17 BR1  UNL     1      32.452   6.419  47.227  1.00  0.00    -0.051 Br
HETATM   18  C11 UNL     1      29.813   5.578  48.059  1.00  0.00     0.048 A 
ENDBRANCH  10  12
ENDBRANCH   9  10
ENDBRANCH   8   9
ENDBRANCH   1   7
BRANCH   1  19
HETATM   19  C12 UNL     1      26.709   1.181  51.825  1.00  0.00     0.112 C 
BRANCH  19  20
HETATM   20  C13 UNL     1      27.078   0.416  53.046  1.00  0.00     0.161 A 
HETATM   21  O2  UNL     1      28.096   1.217  53.661  1.00  0.00    -0.353 OA
HETATM   22  C14 UNL     1      29.346   0.852  53.994  1.00  0.00     0.135 A 
HETATM   23  C15 UNL     1      29.793  -0.374  53.824  1.00  0.00     0.024 A 
HETATM   24  C16 UNL     1      28.830  -1.304  53.241  1.00  0.00     0.007 A 
HETATM   25  C17 UNL     1      27.582  -0.944  52.889  1.00  0.00    -0.054 A 
HETATM   26  C18 UNL     1      26.925  -2.213  52.409  1.00  0.00     0.046 C 
ENDBRANCH  19  20
ENDBRANCH   1  19
TORSDOF 8
ENDMDL
MODEL 6
REMARK VINA RESULT:      -7.3      2.540      4.437
REMARK  8 active torsions:
REMARK  status: ('A' for Active; 'I' for Inactive)
REMARK    1  A    between atoms: N1_2  and  C2_3 
REMARK    2  A    between atoms: C2_3  and  O1_4 
REMARK    3  A    between atoms: C2_3  and  C3_5 
REMARK    4  A    between atoms: C2_3  and  C12_16 
REMARK    5  A    between atoms: C4_6  and  C5_7 
REMARK    6  A    between atoms: C5_7  and  N2_8 
REMARK    7  A    between atoms: N2_8  and  C6_9 
REMARK    8  A    between atoms: C12_16  and  C13_17 
ROOT
HETATM    1  C2  UNL     1      25.667   2.128  51.943  1.00  0.00     0.277 C 
ENDROOT
BRANCH   1   2
HETATM    2  N1  UNL     1      24.322   1.697  51.736  1.00  0.00     0.118 N 
HETATM    3  C1  UNL     1      23.379   2.320  52.634  1.00  0.00     0.311 C 
HETATM    4  H4  UNL     1      23.984   1.914  50.763  1.00  0.00     0.319 HD
ENDBRANCH   1   2
BRANCH   1   5
HETATM    5  O1  UNL     1      25.704   2.702  53.246  1.00  0.00    -0.360 OA
HETATM    6  H5  UNL     1      25.664   3.697  53.199  1.00  0.00     0.213 HD
ENDBRANCH   1   5
BRANCH   1   7
HETATM    7  C3  UNL     1      26.038   3.224  50.958  1.00  0.00     0.041 C 
HETATM    8  C4  UNL     1      25.579   3.766  49.822  1.00  0.00    -0.007 C 
BRANCH   8   9
HETATM    9  C5  UNL     1      26.235   4.886  49.098  1.00  0.00     0.147 C 
BRANCH   9  10
HETATM   10  N2  UNL     1      27.668   4.889  49.258  1.00  0.00    -0.386 N 
HETATM   11  H10 UNL     1      28.251   4.331  49.891  1.00  0.00     0.160 HD
BRANCH  10  12
HETATM   12  C6  UNL     1      28.352   5.820  48.395  1.00  0.00     0.029 A 
HETATM   13  C7  UNL     1      29.711   5.680  48.119  1.00  0.00     0.029 A 
HETATM   14  C8  UNL     1      30.384   6.567  47.292  1.00  0.00     0.004 A 
HETATM   15  C9  UNL     1      29.689   7.627  46.718  1.00  0.00     0.019 A 
HETATM   16  C10 UNL     1      28.344   7.783  46.978  1.00  0.00     0.013 A 
HETATM   17 BR1  UNL     1      27.472   9.253  46.157  1.00  0.00    -0.051 Br
HETATM   18  C11 UNL     1      27.702   6.888  47.804  1.00  0.00     0.048 A 
ENDBRANCH  10  12
ENDBRANCH   9  10
ENDBRANCH   8   9
ENDBRANCH   1   7
BRANCH   1  19
HETATM   19  C12 UNL     1      26.734   1.126  51.874  1.00  0.00     0.112 C 
BRANCH  19  20
HETATM   20  C13 UNL     1      27.126   0.339  53.074  1.00  0.00     0.161 A 
HETATM   21  O2  UNL     1      28.179   1.112  53.665  1.00  0.00    -0.353 OA
HETATM   22  C14 UNL     1      29.432   0.718  53.954  1.00  0.00     0.135 A 
HETATM   23  C15 UNL     1      29.847  -0.515  53.755  1.00  0.00     0.024 A 
HETATM   24  C16 UNL     1      28.847  -1.418  53.194  1.00  0.00     0.007 A 
HETATM   25  C17 UNL     1      27.596  -1.028  52.886  1.00  0.00    -0.054 A 
HETATM   26  C18 UNL     1      26.898  -2.279  52.413  1.00  0.00     0.046 C 
ENDBRANCH  19  20
ENDBRANCH   1  19
TORSDOF 8
ENDMDL
MODEL 7
REMARK VINA RESULT:      -7.1      4.531      9.408
REMARK  8 active torsions:
REMARK  status: ('A' for Active; 'I' for Inactive)
REMARK    1  A    between atoms: N1_2  and  C2_3 
REMARK    2  A    between atoms: C2_3  and  O1_4 
REMARK    3  A    between atoms: C2_3  and  C3_5 
REMARK    4  A    between atoms: C2_3  and  C12_16 
REMARK    5  A    between atoms: C4_6  and  C5_7 
REMARK    6  A    between atoms: C5_7  and  N2_8 
REMARK    7  A    between atoms: N2_8  and  C6_9 
REMARK    8  A    between atoms: C12_16  and  C13_17 
ROOT
HETATM    1  C2  UNL     1      28.251   6.903  48.258  1.00  0.00     0.277 C 
ENDROOT
BRANCH   1   2
HETATM    2  N1  UNL     1      28.347   7.875  49.299  1.00  0.00     0.118 N 
HETATM    3  C1  UNL     1      27.491   9.018  49.093  1.00  0.00     0.311 C 
HETATM    4  H4  UNL     1      28.079   7.476  50.237  1.00  0.00     0.319 HD
ENDBRANCH   1   2
BRANCH   1   5
HETATM    5  O1  UNL     1      27.473   7.502  47.227  1.00  0.00    -0.360 OA
HETATM    6  H5  UNL     1      27.401   6.900  46.437  1.00  0.00     0.213 HD
ENDBRANCH   1   5
BRANCH   1   7
HETATM    7  C3  UNL     1      27.493   5.676  48.737  1.00  0.00     0.041 C 
HETATM    8  C4  UNL     1      26.249   5.323  49.089  1.00  0.00    -0.007 C 
BRANCH   8   9
HETATM    9  C5  UNL     1      25.853   3.961  49.528  1.00  0.00     0.147 C 
BRANCH   9  10
HETATM   10  N2  UNL     1      26.586   3.511  50.685  1.00  0.00    -0.386 N 
HETATM   11  H10 UNL     1      27.484   3.844  51.052  1.00  0.00     0.160 HD
BRANCH  10  12
HETATM   12  C6  UNL     1      25.944   2.442  51.408  1.00  0.00     0.029 A 
HETATM   13  C7  UNL     1      24.630   2.564  51.857  1.00  0.00     0.029 A 
HETATM   14  C8  UNL     1      24.000   1.545  52.555  1.00  0.00     0.004 A 
HETATM   15  C9  UNL     1      24.691   0.366  52.817  1.00  0.00     0.019 A 
HETATM   16  C10 UNL     1      25.991   0.225  52.381  1.00  0.00     0.013 A 
HETATM   17 BR1  UNL     1      26.862  -1.411  52.779  1.00  0.00    -0.051 Br
HETATM   18  C11 UNL     1      26.593   1.254  51.691  1.00  0.00     0.048 A 
ENDBRANCH  10  12
ENDBRANCH   9  10
ENDBRANCH   8   9
ENDBRANCH   1   7
BRANCH   1  19
HETATM   19  C12 UNL     1      29.491   6.417  47.647  1.00  0.00     0.112 C 
BRANCH  19  20
HETATM   20  C13 UNL     1      30.627   5.949  48.486  1.00  0.00     0.161 A 
HETATM   21  O2  UNL     1      31.078   7.137  49.150  1.00  0.00    -0.353 OA
HETATM   22  C14 UNL     1      32.313   7.670  49.142  1.00  0.00     0.135 A 
HETATM   23  C15 UNL     1      33.324   7.100  48.521  1.00  0.00     0.024 A 
HETATM   24  C16 UNL     1      33.001   5.850  47.839  1.00  0.00     0.007 A 
HETATM   25  C17 UNL     1      31.764   5.319  47.826  1.00  0.00    -0.054 A 
HETATM   26  C18 UNL     1      31.903   4.015  47.081  1.00  0.00     0.046 C 
ENDBRANCH  19  20
ENDBRANCH   1  19
TORSDOF 8
ENDMDL
MODEL 8
REMARK VINA RESULT:      -6.9      4.618      9.417
REMARK  8 active torsions:
REMARK  status: ('A' for Active; 'I' for Inactive)
REMARK    1  A    between atoms: N1_2  and  C2_3 
REMARK    2  A    between atoms: C2_3  and  O1_4 
REMARK    3  A    between atoms: C2_3  and  C3_5 
REMARK    4  A    between atoms: C2_3  and  C12_16 
REMARK    5  A    between atoms: C4_6  and  C5_7 
REMARK    6  A    between atoms: C5_7  and  N2_8 
REMARK    7  A    between atoms: N2_8  and  C6_9 
REMARK    8  A    between atoms: C12_16  and  C13_17 
ROOT
HETATM    1  C2  UNL     1      26.880   6.476  48.832  1.00  0.00     0.277 C 
ENDROOT
BRANCH   1   2
HETATM    2  N1  UNL     1      26.909   7.538  49.786  1.00  0.00     0.118 N 
HETATM    3  C1  UNL     1      25.607   7.861  50.319  1.00  0.00     0.311 C 
HETATM    4  H4  UNL     1      27.514   7.305  50.616  1.00  0.00     0.319 HD
ENDBRANCH   1   2
BRANCH   1   5
HETATM    5  O1  UNL     1      25.967   6.881  47.817  1.00  0.00    -0.360 OA
HETATM    6  H5  UNL     1      25.027   6.686  48.083  1.00  0.00     0.213 HD
ENDBRANCH   1   5
BRANCH   1   7
HETATM    7  C3  UNL     1      26.323   5.208  49.456  1.00  0.00     0.041 C 
HETATM    8  C4  UNL     1      26.692   3.939  49.680  1.00  0.00    -0.007 C 
BRANCH   8   9
HETATM    9  C5  UNL     1      25.845   2.922  50.355  1.00  0.00     0.147 C 
BRANCH   9  10
HETATM   10  N2  UNL     1      25.964   2.962  51.791  1.00  0.00    -0.386 N 
HETATM   11  H10 UNL     1      25.528   3.606  52.460  1.00  0.00     0.160 HD
BRANCH  10  12
HETATM   12  C6  UNL     1      26.824   1.942  52.337  1.00  0.00     0.029 A 
HETATM   13  C7  UNL     1      27.964   2.275  53.067  1.00  0.00     0.029 A 
HETATM   14  C8  UNL     1      28.801   1.306  53.598  1.00  0.00     0.004 A 
HETATM   15  C9  UNL     1      28.501  -0.039  53.402  1.00  0.00     0.019 A 
HETATM   16  C10 UNL     1      27.378  -0.390  52.683  1.00  0.00     0.013 A 
HETATM   17 BR1  UNL     1      27.041  -2.243  52.461  1.00  0.00    -0.051 Br
HETATM   18  C11 UNL     1      26.564   0.594  52.166  1.00  0.00     0.048 A 
ENDBRANCH  10  12
ENDBRANCH   9  10
ENDBRANCH   8   9
ENDBRANCH   1   7
BRANCH   1  19
HETATM   19  C12 UNL     1      28.134   6.103  48.172  1.00  0.00     0.112 C 
BRANCH  19  20
HETATM   20  C13 UNL     1      29.284   7.045  48.123  1.00  0.00     0.161 A 
HETATM   21  O2  UNL     1      28.741   8.223  47.513  1.00  0.00    -0.353 OA
HETATM   22  C14 UNL     1      29.172   8.856  46.408  1.00  0.00     0.135 A 
HETATM   23  C15 UNL     1      30.240   8.467  45.743  1.00  0.00     0.024 A 
HETATM   24  C16 UNL     1      30.914   7.295  46.294  1.00  0.00     0.007 A 
HETATM   25  C17 UNL     1      30.479   6.645  47.389  1.00  0.00    -0.054 A 
HETATM   26  C18 UNL     1      31.500   5.562  47.636  1.00  0.00     0.046 C 
ENDBRANCH  19  20
ENDBRANCH   1  19
TORSDOF 8
ENDMDL
MODEL 9
REMARK VINA RESULT:      -6.9      4.931      9.605
REMARK  8 active torsions:
REMARK  status: ('A' for Active; 'I' for Inactive)
REMARK    1  A    between atoms: N1_2  and  C2_3 
REMARK    2  A    between atoms: C2_3  and  O1_4 
REMARK    3  A    between atoms: C2_3  and  C3_5 
REMARK    4  A    between atoms: C2_3  and  C12_16 
REMARK    5  A    between atoms: C4_6  and  C5_7 
REMARK    6  A    between atoms: C5_7  and  N2_8 
REMARK    7  A    between atoms: N2_8  and  C6_9 
REMARK    8  A    between atoms: C12_16  and  C13_17 
ROOT
HETATM    1  C2  UNL     1      29.698   6.274  48.050  1.00  0.00     0.277 C 
ENDROOT
BRANCH   1   2
HETATM    2  N1  UNL     1      30.356   7.034  49.064  1.00  0.00     0.118 N 
HETATM    3  C1  UNL     1      30.193   8.459  48.906  1.00  0.00     0.311 C 
HETATM    4  H4  UNL     1      29.994   6.804  50.026  1.00  0.00     0.319 HD
ENDBRANCH   1   2
BRANCH   1   5
HETATM    5  O1  UNL     1      29.587   7.134  46.920  1.00  0.00    -0.360 OA
HETATM    6  H5  UNL     1      29.622   8.091  47.195  1.00  0.00     0.213 HD
ENDBRANCH   1   5
BRANCH   1   7
HETATM    7  C3  UNL     1      28.285   5.914  48.481  1.00  0.00     0.041 C 
HETATM    8  C4  UNL     1      27.546   4.826  48.730  1.00  0.00    -0.007 C 
BRANCH   8   9
HETATM    9  C5  UNL     1      26.122   4.853  49.154  1.00  0.00     0.147 C 
BRANCH   9  10
HETATM   10  N2  UNL     1      25.938   4.417  50.516  1.00  0.00    -0.386 N 
HETATM   11  H10 UNL     1      26.446   4.699  51.361  1.00  0.00     0.160 HD
BRANCH  10  12
HETATM   12  C6  UNL     1      24.885   3.446  50.684  1.00  0.00     0.029 A 
HETATM   13  C7  UNL     1      24.706   2.780  51.895  1.00  0.00     0.029 A 
HETATM   14  C8  UNL     1      23.699   1.844  52.072  1.00  0.00     0.004 A 
HETATM   15  C9  UNL     1      22.839   1.557  51.016  1.00  0.00     0.019 A 
HETATM   16  C10 UNL     1      22.998   2.205  49.809  1.00  0.00     0.013 A 
HETATM   17 BR1  UNL     1      21.786   1.757  48.423  1.00  0.00    -0.051 Br
HETATM   18  C11 UNL     1      24.008   3.130  49.662  1.00  0.00     0.048 A 
ENDBRANCH  10  12
ENDBRANCH   9  10
ENDBRANCH   8   9
ENDBRANCH   1   7
BRANCH   1  19
HETATM   19  C12 UNL     1      30.327   5.031  47.597  1.00  0.00     0.112 C 
BRANCH  19  20
HETATM   20  C13 UNL     1      31.800   4.940  47.413  1.00  0.00     0.161 A 
HETATM   21  O2  UNL     1      32.153   6.198  46.824  1.00  0.00    -0.353 OA
HETATM   22  C14 UNL     1      32.800   6.417  45.666  1.00  0.00     0.135 A 
HETATM   23  C15 UNL     1      33.253   5.436  44.914  1.00  0.00     0.024 A 
HETATM   24  C16 UNL     1      32.993   4.095  45.431  1.00  0.00     0.007 A 
HETATM   25  C17 UNL     1      32.331   3.867  46.581  1.00  0.00    -0.054 A 
HETATM   26  C18 UNL     1      32.358   2.370  46.761  1.00  0.00     0.046 C 
ENDBRANCH  19  20
ENDBRANCH   1  19
TORSDOF 8
ENDMDL
