MODEL 1
REMARK VINA RESULT:      -9.0      0.000      0.000
REMARK  6 active torsions:
REMARK  status: ('A' for Active; 'I' for Inactive)
REMARK    1  A    between atoms: C1_2  and  C2_3 
REMARK       I    between atoms: C1_2  and  N2_13 
REMARK    2  A    between atoms: C3_4  and  C4_5 
REMARK    3  A    between atoms: C4_5  and  C5_6 
REMARK    4  A    between atoms: C5_6  and  N1_7 
REMARK    5  A    between atoms: N2_13  and  C10_14 
REMARK    6  A    between atoms: C13_17  and  C14_18 
ROOT
HETATM    1  C10 UNL     1      26.227   2.214  51.981  1.00  0.00     0.130 C 
HETATM    2  C11 UNL     1      25.040   2.257  52.568  1.00  0.00     0.062 C 
HETATM    3  C12 UNL     1      24.865   0.936  53.183  1.00  0.00     0.000 C 
HETATM    4  C13 UNL     1      23.938   0.017  53.509  1.00  0.00     0.048 C 
HETATM    5  N3  UNL     1      25.036  -0.857  53.820  1.00  0.00    -0.375 N 
HETATM    6  C20 UNL     1      25.962   0.179  53.829  1.00  0.00     0.158 C 
HETATM    7  C21 UNL     1      27.185   0.270  53.032  1.00  0.00     0.122 C 
HETATM    8  N4  UNL     1      27.282   1.254  52.175  1.00  0.00    -0.245 NA
HETATM    9  H18 UNL     1      25.210  -1.888  53.996  1.00  0.00     0.160 HD
ENDROOT
BRANCH   1  10
HETATM   10  N2  UNL     1      26.832   3.268  51.224  1.00  0.00    -0.301 N 
HETATM   11  C1  UNL     1      26.472   3.618  49.895  1.00  0.00     0.302 C 
HETATM   12  O1  UNL     1      25.540   2.949  49.330  1.00  0.00    -0.258 OA
HETATM   13  H13 UNL     1      27.606   3.872  51.615  1.00  0.00     0.171 HD
BRANCH  11  14
HETATM   14  C2  UNL     1      27.091   4.678  49.150  1.00  0.00    -0.005 C 
HETATM   15  C3  UNL     1      27.626   5.568  48.536  1.00  0.00    -0.095 C 
BRANCH  15  16
HETATM   16  C4  UNL     1      28.304   6.663  47.796  1.00  0.00     0.114 C 
BRANCH  16  17
HETATM   17  C5  UNL     1      29.775   6.414  47.949  1.00  0.00     0.129 C 
BRANCH  17  18
HETATM   18  N1  UNL     1      30.313   7.313  48.913  1.00  0.00    -0.408 N 
HETATM   19  C6  UNL     1      29.806   8.631  48.930  1.00  0.00     0.143 C 
HETATM   20  C7  UNL     1      30.911   9.637  48.919  1.00  0.00     0.187 C 
HETATM   21  O2  UNL     1      31.966   9.149  48.127  1.00  0.00    -0.388 OA
HETATM   22  C8  UNL     1      32.583   8.067  48.714  1.00  0.00     0.187 C 
HETATM   23  C9  UNL     1      31.635   7.085  49.358  1.00  0.00     0.143 C 
ENDBRANCH  17  18
ENDBRANCH  16  17
ENDBRANCH  15  16
ENDBRANCH  11  14
ENDBRANCH   1  10
BRANCH   4  24
HETATM   24  C14 UNL     1      22.507  -0.237  53.467  1.00  0.00    -0.008 A 
HETATM   25  C15 UNL     1      21.870  -1.148  54.277  1.00  0.00     0.017 A 
HETATM   26  C16 UNL     1      20.529  -1.422  54.277  1.00  0.00     0.044 A 
HETATM   27  C17 UNL     1      19.714  -0.729  53.386  1.00  0.00     0.133 A 
HETATM   28  F1  UNL     1      18.380  -0.951  53.331  1.00  0.00    -0.205 F 
HETATM   29  C18 UNL     1      20.315   0.195  52.554  1.00  0.00     0.050 A 
HETATM   30 BR1  UNL     1      19.197   1.152  51.328  1.00  0.00    -0.048 Br
HETATM   31  C19 UNL     1      21.676   0.430  52.600  1.00  0.00     0.036 A 
ENDBRANCH   4  24
TORSDOF 6
ENDMDL
MODEL 2
REMARK VINA RESULT:      -8.1      2.817      4.260
REMARK  6 active torsions:
REMARK  status: ('A' for Active; 'I' for Inactive)
REMARK    1  A    between atoms: C1_2  and  C2_3 
REMARK       I    between atoms: C1_2  and  N2_13 
REMARK    2  A    between atoms: C3_4  and  C4_5 
REMARK    3  A    between atoms: C4_5  and  C5_6 
REMARK    4  A    between atoms: C5_6  and  N1_7 
REMARK    5  A    between atoms: N2_13  and  C10_14 
REMARK    6  A    between atoms: C13_17  and  C14_18 
ROOT
HETATM    1  C10 UNL     1      26.057   4.942  49.529  1.00  0.00     0.130 C 
HETATM    2  C11 UNL     1      26.274   3.707  49.956  1.00  0.00     0.062 C 
HETATM    3  C12 UNL     1      24.940   3.126  50.151  1.00  0.00     0.000 C 
HETATM    4  C13 UNL     1      24.249   2.252  50.905  1.00  0.00     0.048 C 
HETATM    5  N3  UNL     1      23.068   2.760  50.262  1.00  0.00    -0.375 N 
HETATM    6  C20 UNL     1      23.790   3.389  49.255  1.00  0.00     0.158 C 
HETATM    7  C21 UNL     1      23.739   4.804  48.890  1.00  0.00     0.122 C 
HETATM    8  N4  UNL     1      24.835   5.507  49.021  1.00  0.00    -0.245 NA
HETATM    9  H18 UNL     1      22.017   2.742  50.395  1.00  0.00     0.160 HD
ENDROOT
BRANCH   1  10
HETATM   10  N2  UNL     1      27.061   5.917  49.223  1.00  0.00    -0.301 N 
HETATM   11  C1  UNL     1      28.283   5.636  48.555  1.00  0.00     0.302 C 
HETATM   12  O1  UNL     1      28.508   4.429  48.197  1.00  0.00    -0.258 OA
HETATM   13  H13 UNL     1      26.955   6.936  49.479  1.00  0.00     0.171 HD
BRANCH  11  14
HETATM   14  C2  UNL     1      29.279   6.626  48.258  1.00  0.00    -0.005 C 
HETATM   15  C3  UNL     1      30.119   7.450  47.991  1.00  0.00    -0.095 C 
BRANCH  15  16
HETATM   16  C4  UNL     1      31.157   8.453  47.640  1.00  0.00     0.114 C 
BRANCH  16  17
HETATM   17  C5  UNL     1      32.262   8.266  48.636  1.00  0.00     0.129 C 
BRANCH  17  18
HETATM   18  N1  UNL     1      33.281   7.448  48.071  1.00  0.00    -0.408 N 
HETATM   19  C6  UNL     1      33.504   7.551  46.680  1.00  0.00     0.143 C 
HETATM   20  C7  UNL     1      33.525   6.205  46.032  1.00  0.00     0.187 C 
HETATM   21  O2  UNL     1      32.592   5.372  46.679  1.00  0.00    -0.388 OA
HETATM   22  C8  UNL     1      32.987   5.069  47.962  1.00  0.00     0.187 C 
HETATM   23  C9  UNL     1      33.582   6.230  48.721  1.00  0.00     0.143 C 
ENDBRANCH  17  18
ENDBRANCH  16  17
ENDBRANCH  15  16
ENDBRANCH  11  14
ENDBRANCH   1  10
BRANCH   4  24
HETATM   24  C14 UNL     1      24.400   1.312  52.004  1.00  0.00    -0.008 A 
HETATM   25  C15 UNL     1      25.616   0.929  52.519  1.00  0.00     0.017 A 
HETATM   26  C16 UNL     1      25.809   0.050  53.550  1.00  0.00     0.044 A 
HETATM   27  C17 UNL     1      24.690  -0.522  54.150  1.00  0.00     0.133 A 
HETATM   28  F1  UNL     1      24.809  -1.399  55.173  1.00  0.00    -0.205 F 
HETATM   29  C18 UNL     1      23.449  -0.164  53.661  1.00  0.00     0.050 A 
HETATM   30 BR1  UNL     1      21.906  -0.946  54.483  1.00  0.00    -0.048 Br
HETATM   31  C19 UNL     1      23.316   0.730  52.616  1.00  0.00     0.036 A 
ENDBRANCH   4  24
TORSDOF 6
ENDMDL
MODEL 3
REMARK VINA RESULT:      -8.1      6.470     10.846
REMARK  6 active torsions:
REMARK  status: ('A' for Active; 'I' for Inactive)
REMARK    1  A    between atoms: C1_2  and  C2_3 
REMARK       I    between atoms: C1_2  and  N2_13 
REMARK    2  A    between atoms: C3_4  and  C4_5 
REMARK    3  A    between atoms: C4_5  and  C5_6 
REMARK    4  A    between atoms: C5_6  and  N1_7 
REMARK    5  A    between atoms: N2_13  and  C10_14 
REMARK    6  A    between atoms: C13_17  and  C14_18 
ROOT
HETATM    1  C10 UNL     1      20.749   0.527  52.483  1.00  0.00     0.130 C 
HETATM    2  C11 UNL     1      21.986   0.438  52.018  1.00  0.00     0.062 C 
HETATM    3  C12 UNL     1      22.751  -0.222  53.083  1.00  0.00     0.000 C 
HETATM    4  C13 UNL     1      23.971  -0.285  53.648  1.00  0.00     0.048 C 
HETATM    5  N3  UNL     1      23.361  -1.088  54.672  1.00  0.00    -0.375 N 
HETATM    6  C20 UNL     1      22.215  -1.318  53.922  1.00  0.00     0.158 C 
HETATM    7  C21 UNL     1      20.836  -1.033  54.316  1.00  0.00     0.122 C 
HETATM    8  N4  UNL     1      20.166  -0.162  53.604  1.00  0.00    -0.245 NA
HETATM    9  H18 UNL     1      23.582  -1.440  55.648  1.00  0.00     0.160 HD
ENDROOT
BRANCH   1  10
HETATM   10  N2  UNL     1      19.636   1.124  51.807  1.00  0.00    -0.301 N 
HETATM   11  C1  UNL     1      19.221   2.474  51.970  1.00  0.00     0.302 C 
HETATM   12  O1  UNL     1      19.886   3.213  52.774  1.00  0.00    -0.258 OA
HETATM   13  H13 UNL     1      19.035   0.586  51.125  1.00  0.00     0.171 HD
BRANCH  11  14
HETATM   14  C2  UNL     1      18.101   3.055  51.285  1.00  0.00    -0.005 C 
HETATM   15  C3  UNL     1      17.157   3.555  50.725  1.00  0.00    -0.095 C 
BRANCH  15  16
HETATM   16  C4  UNL     1      15.988   4.183  50.056  1.00  0.00     0.114 C 
BRANCH  16  17
HETATM   17  C5  UNL     1      15.077   3.055  49.676  1.00  0.00     0.129 C 
BRANCH  17  18
HETATM   18  N1  UNL     1      14.046   2.925  50.649  1.00  0.00    -0.408 N 
HETATM   19  C6  UNL     1      13.598   4.102  51.286  1.00  0.00     0.143 C 
HETATM   20  C7  UNL     1      13.577   3.942  52.772  1.00  0.00     0.187 C 
HETATM   21  O2  UNL     1      14.661   3.132  53.159  1.00  0.00    -0.388 OA
HETATM   22  C8  UNL     1      14.499   1.832  52.737  1.00  0.00     0.187 C 
HETATM   23  C9  UNL     1      13.945   1.696  51.339  1.00  0.00     0.143 C 
ENDBRANCH  17  18
ENDBRANCH  16  17
ENDBRANCH  15  16
ENDBRANCH  11  14
ENDBRANCH   1  10
BRANCH   4  24
HETATM   24  C14 UNL     1      25.315   0.259  53.545  1.00  0.00    -0.008 A 
HETATM   25  C15 UNL     1      25.589   1.604  53.459  1.00  0.00     0.017 A 
HETATM   26  C16 UNL     1      26.835   2.164  53.361  1.00  0.00     0.044 A 
HETATM   27  C17 UNL     1      27.940   1.318  53.347  1.00  0.00     0.133 A 
HETATM   28  F1  UNL     1      29.200   1.804  53.251  1.00  0.00    -0.205 F 
HETATM   29  C18 UNL     1      27.708  -0.041  53.431  1.00  0.00     0.050 A 
HETATM   30 BR1  UNL     1      29.225  -1.210  53.414  1.00  0.00    -0.048 Br
HETATM   31  C19 UNL     1      26.426  -0.549  53.528  1.00  0.00     0.036 A 
ENDBRANCH   4  24
TORSDOF 6
ENDMDL
MODEL 4
REMARK VINA RESULT:      -8.0      2.718      4.089
REMARK  6 active torsions:
REMARK  status: ('A' for Active; 'I' for Inactive)
REMARK    1  A    between atoms: C1_2  and  C2_3 
REMARK       I    between atoms: C1_2  and  N2_13 
REMARK    2  A    between atoms: C3_4  and  C4_5 
REMARK    3  A    between atoms: C4_5  and  C5_6 
REMARK    4  A    between atoms: C5_6  and  N1_7 
REMARK    5  A    between atoms: N2_13  and  C10_14 
REMARK    6  A    between atoms: C13_17  and  C14_18 
ROOT
HETATM    1  C10 UNL     1      22.727   0.675  52.167  1.00  0.00     0.130 C 
HETATM    2  C11 UNL     1      21.413   0.847  52.204  1.00  0.00     0.062 C 
HETATM    3  C12 UNL     1      20.934  -0.074  53.242  1.00  0.00     0.000 C 
HETATM    4  C13 UNL     1      19.889  -0.846  53.593  1.00  0.00     0.048 C 
HETATM    5  N3  UNL     1      20.733  -1.368  54.633  1.00  0.00    -0.375 N 
HETATM    6  C20 UNL     1      21.663  -0.343  54.503  1.00  0.00     0.158 C 
HETATM    7  C21 UNL     1      23.095  -0.485  54.245  1.00  0.00     0.122 C 
HETATM    8  N4  UNL     1      23.567   0.020  53.134  1.00  0.00    -0.245 NA
HETATM    9  H18 UNL     1      20.759  -2.188  55.304  1.00  0.00     0.160 HD
ENDROOT
BRANCH   1  10
HETATM   10  N2  UNL     1      23.639   1.342  51.286  1.00  0.00    -0.301 N 
HETATM   11  C1  UNL     1      24.241   2.602  51.549  1.00  0.00     0.302 C 
HETATM   12  O1  UNL     1      23.954   3.186  52.650  1.00  0.00    -0.258 OA
HETATM   13  H13 UNL     1      23.932   0.928  50.359  1.00  0.00     0.171 HD
BRANCH  11  14
HETATM   14  C2  UNL     1      25.152   3.256  50.653  1.00  0.00    -0.005 C 
HETATM   15  C3  UNL     1      25.925   3.816  49.915  1.00  0.00    -0.095 C 
BRANCH  15  16
HETATM   16  C4  UNL     1      26.882   4.521  49.025  1.00  0.00     0.114 C 
BRANCH  16  17
HETATM   17  C5  UNL     1      26.387   5.933  48.923  1.00  0.00     0.129 C 
BRANCH  17  18
HETATM   18  N1  UNL     1      27.254   6.683  48.079  1.00  0.00    -0.408 N 
HETATM   19  C6  UNL     1      28.635   6.396  48.141  1.00  0.00     0.143 C 
HETATM   20  C7  UNL     1      29.441   7.642  48.313  1.00  0.00     0.187 C 
HETATM   21  O2  UNL     1      28.727   8.540  49.129  1.00  0.00    -0.388 OA
HETATM   22  C8  UNL     1      27.605   9.020  48.493  1.00  0.00     0.187 C 
HETATM   23  C9  UNL     1      26.844   7.982  47.704  1.00  0.00     0.143 C 
ENDBRANCH  17  18
ENDBRANCH  16  17
ENDBRANCH  15  16
ENDBRANCH  11  14
ENDBRANCH   1  10
BRANCH   4  24
HETATM   24  C14 UNL     1      18.559  -1.245  53.164  1.00  0.00    -0.008 A 
HETATM   25  C15 UNL     1      17.744  -0.462  52.379  1.00  0.00     0.017 A 
HETATM   26  C16 UNL     1      16.487  -0.791  51.950  1.00  0.00     0.044 A 
HETATM   27  C17 UNL     1      15.962  -2.025  52.326  1.00  0.00     0.133 A 
HETATM   28  F1  UNL     1      14.726  -2.414  51.937  1.00  0.00    -0.205 F 
HETATM   29  C18 UNL     1      16.749  -2.842  53.114  1.00  0.00     0.050 A 
HETATM   30 BR1  UNL     1      16.033  -4.541  53.633  1.00  0.00    -0.048 Br
HETATM   31  C19 UNL     1      18.013  -2.455  53.518  1.00  0.00     0.036 A 
ENDBRANCH   4  24
TORSDOF 6
ENDMDL
MODEL 5
REMARK VINA RESULT:      -8.0      2.536      3.415
REMARK  6 active torsions:
REMARK  status: ('A' for Active; 'I' for Inactive)
REMARK    1  A    between atoms: C1_2  and  C2_3 
REMARK       I    between atoms: C1_2  and  N2_13 
REMARK    2  A    between atoms: C3_4  and  C4_5 
REMARK    3  A    between atoms: C4_5  and  C5_6 
REMARK    4  A    between atoms: C5_6  and  N1_7 
REMARK    5  A    between atoms: N2_13  and  C10_14 
REMARK    6  A    between atoms: C13_17  and  C14_18 
ROOT
HETATM    1  C10 UNL     1      24.543   4.467  50.788  1.00  0.00     0.130 C 
HETATM    2  C11 UNL     1      23.996   3.262  50.736  1.00  0.00     0.062 C 
HETATM    3  C12 UNL     1      22.686   3.405  51.384  1.00  0.00     0.000 C 
HETATM    4  C13 UNL     1      21.777   2.747  52.127  1.00  0.00     0.048 C 
HETATM    5  N3  UNL     1      21.103   4.009  52.267  1.00  0.00    -0.375 N 
HETATM    6  C20 UNL     1      21.821   4.598  51.233  1.00  0.00     0.158 C 
HETATM    7  C21 UNL     1      22.620   5.821  51.305  1.00  0.00     0.122 C 
HETATM    8  N4  UNL     1      23.905   5.724  51.077  1.00  0.00    -0.245 NA
HETATM    9  H18 UNL     1      20.350   4.448  52.870  1.00  0.00     0.160 HD
ENDROOT
BRANCH   1  10
HETATM   10  N2  UNL     1      25.842   4.824  50.302  1.00  0.00    -0.301 N 
HETATM   11  C1  UNL     1      26.090   5.492  49.072  1.00  0.00     0.302 C 
HETATM   12  O1  UNL     1      25.084   5.801  48.345  1.00  0.00    -0.258 OA
HETATM   13  H13 UNL     1      26.725   4.609  50.841  1.00  0.00     0.171 HD
BRANCH  11  14
HETATM   14  C2  UNL     1      27.400   5.841  48.600  1.00  0.00    -0.005 C 
HETATM   15  C3  UNL     1      28.493   6.147  48.192  1.00  0.00    -0.095 C 
BRANCH  15  16
HETATM   16  C4  UNL     1      29.828   6.540  47.672  1.00  0.00     0.114 C 
BRANCH  16  17
HETATM   17  C5  UNL     1      29.576   7.623  46.667  1.00  0.00     0.129 C 
BRANCH  17  18
HETATM   18  N1  UNL     1      29.848   8.892  47.254  1.00  0.00    -0.408 N 
HETATM   19  C6  UNL     1      30.887   8.960  48.207  1.00  0.00     0.143 C 
HETATM   20  C7  UNL     1      30.437   9.655  49.451  1.00  0.00     0.187 C 
HETATM   21  O2  UNL     1      29.088   9.333  49.693  1.00  0.00    -0.388 OA
HETATM   22  C8  UNL     1      28.257   9.889  48.747  1.00  0.00     0.187 C 
HETATM   23  C9  UNL     1      28.786   9.820  47.335  1.00  0.00     0.143 C 
ENDBRANCH  17  18
ENDBRANCH  16  17
ENDBRANCH  15  16
ENDBRANCH  11  14
ENDBRANCH   1  10
BRANCH   4  24
HETATM   24  C14 UNL     1      21.516   1.459  52.748  1.00  0.00    -0.008 A 
HETATM   25  C15 UNL     1      22.466   0.733  53.429  1.00  0.00     0.017 A 
HETATM   26  C16 UNL     1      22.270  -0.480  54.030  1.00  0.00     0.044 A 
HETATM   27  C17 UNL     1      21.003  -1.054  53.962  1.00  0.00     0.133 A 
HETATM   28  F1  UNL     1      20.739  -2.252  54.534  1.00  0.00    -0.205 F 
HETATM   29  C18 UNL     1      20.020  -0.357  53.287  1.00  0.00     0.050 A 
HETATM   30 BR1  UNL     1      18.275  -1.140  53.193  1.00  0.00    -0.048 Br
HETATM   31  C19 UNL     1      20.277   0.866  52.699  1.00  0.00     0.036 A 
ENDBRANCH   4  24
TORSDOF 6
ENDMDL
MODEL 6
REMARK VINA RESULT:      -8.0      3.024      4.334
REMARK  6 active torsions:
REMARK  status: ('A' for Active; 'I' for Inactive)
REMARK    1  A    between atoms: C1_2  and  C2_3 
REMARK       I    between atoms: C1_2  and  N2_13 
REMARK    2  A    between atoms: C3_4  and  C4_5 
REMARK    3  A    between atoms: C4_5  and  C5_6 
REMARK    4  A    between atoms: C5_6  and  N1_7 
REMARK    5  A    between atoms: N2_13  and  C10_14 
REMARK    6  A    between atoms: C13_17  and  C14_18 
ROOT
HETATM    1  C10 UNL     1      25.675   5.841  50.081  1.00  0.00     0.130 C 
HETATM    2  C11 UNL     1      25.051   4.674  50.002  1.00  0.00     0.062 C 
HETATM    3  C12 UNL     1      23.905   4.787  50.913  1.00  0.00     0.000 C 
HETATM    4  C13 UNL     1      23.119   4.077  51.743  1.00  0.00     0.048 C 
HETATM    5  N3  UNL     1      22.568   5.337  52.162  1.00  0.00    -0.375 N 
HETATM    6  C20 UNL     1      23.106   6.023  51.080  1.00  0.00     0.158 C 
HETATM    7  C21 UNL     1      23.981   7.194  51.130  1.00  0.00     0.122 C 
HETATM    8  N4  UNL     1      25.187   7.075  50.636  1.00  0.00    -0.245 NA
HETATM    9  H18 UNL     1      21.978   5.727  52.951  1.00  0.00     0.160 HD
ENDROOT
BRANCH   1  10
HETATM   10  N2  UNL     1      26.873   6.204  49.387  1.00  0.00    -0.301 N 
HETATM   11  C1  UNL     1      26.911   6.895  48.146  1.00  0.00     0.302 C 
HETATM   12  O1  UNL     1      25.798   7.221  47.607  1.00  0.00    -0.258 OA
HETATM   13  H13 UNL     1      27.834   5.976  49.763  1.00  0.00     0.171 HD
BRANCH  11  14
HETATM   14  C2  UNL     1      28.123   7.249  47.464  1.00  0.00    -0.005 C 
HETATM   15  C3  UNL     1      29.143   7.530  46.883  1.00  0.00    -0.095 C 
BRANCH  15  16
HETATM   16  C4  UNL     1      30.400   7.851  46.160  1.00  0.00     0.114 C 
BRANCH  16  17
HETATM   17  C5  UNL     1      31.361   8.340  47.202  1.00  0.00     0.129 C 
BRANCH  17  18
HETATM   18  N1  UNL     1      32.216   7.273  47.600  1.00  0.00    -0.408 N 
HETATM   19  C6  UNL     1      32.252   6.124  46.780  1.00  0.00     0.143 C 
HETATM   20  C7  UNL     1      32.065   4.878  47.583  1.00  0.00     0.187 C 
HETATM   21  O2  UNL     1      31.162   5.141  48.631  1.00  0.00    -0.388 OA
HETATM   22  C8  UNL     1      31.704   5.995  49.565  1.00  0.00     0.187 C 
HETATM   23  C9  UNL     1      32.498   7.137  48.978  1.00  0.00     0.143 C 
ENDBRANCH  17  18
ENDBRANCH  16  17
ENDBRANCH  15  16
ENDBRANCH  11  14
ENDBRANCH   1  10
BRANCH   4  24
HETATM   24  C14 UNL     1      22.902   2.733  52.251  1.00  0.00    -0.008 A 
HETATM   25  C15 UNL     1      21.658   2.164  52.397  1.00  0.00     0.017 A 
HETATM   26  C16 UNL     1      21.402   0.905  52.869  1.00  0.00     0.044 A 
HETATM   27  C17 UNL     1      22.481   0.107  53.241  1.00  0.00     0.133 A 
HETATM   28  F1  UNL     1      22.299  -1.148  53.716  1.00  0.00    -0.205 F 
HETATM   29  C18 UNL     1      23.747   0.641  53.110  1.00  0.00     0.050 A 
HETATM   30 BR1  UNL     1      25.235  -0.453  53.618  1.00  0.00    -0.048 Br
HETATM   31  C19 UNL     1      23.944   1.920  52.626  1.00  0.00     0.036 A 
ENDBRANCH   4  24
TORSDOF 6
ENDMDL
MODEL 7
REMARK VINA RESULT:      -8.0      2.906      4.329
REMARK  6 active torsions:
REMARK  status: ('A' for Active; 'I' for Inactive)
REMARK    1  A    between atoms: C1_2  and  C2_3 
REMARK       I    between atoms: C1_2  and  N2_13 
REMARK    2  A    between atoms: C3_4  and  C4_5 
REMARK    3  A    between atoms: C4_5  and  C5_6 
REMARK    4  A    between atoms: C5_6  and  N1_7 
REMARK    5  A    between atoms: N2_13  and  C10_14 
REMARK    6  A    between atoms: C13_17  and  C14_18 
ROOT
HETATM    1  C10 UNL     1      25.991   4.975  49.506  1.00  0.00     0.130 C 
HETATM    2  C11 UNL     1      26.235   3.746  49.935  1.00  0.00     0.062 C 
HETATM    3  C12 UNL     1      24.914   3.141  50.141  1.00  0.00     0.000 C 
HETATM    4  C13 UNL     1      24.244   2.256  50.903  1.00  0.00     0.048 C 
HETATM    5  N3  UNL     1      23.050   2.740  50.266  1.00  0.00    -0.375 N 
HETATM    6  C20 UNL     1      23.753   3.378  49.252  1.00  0.00     0.158 C 
HETATM    7  C21 UNL     1      23.672   4.791  48.883  1.00  0.00     0.122 C 
HETATM    8  N4  UNL     1      24.755   5.515  49.004  1.00  0.00    -0.245 NA
HETATM    9  H18 UNL     1      22.000   2.702  50.406  1.00  0.00     0.160 HD
ENDROOT
BRANCH   1  10
HETATM   10  N2  UNL     1      26.975   5.968  49.190  1.00  0.00    -0.301 N 
HETATM   11  C1  UNL     1      28.207   5.704  48.534  1.00  0.00     0.302 C 
HETATM   12  O1  UNL     1      28.462   4.497  48.197  1.00  0.00    -0.258 OA
HETATM   13  H13 UNL     1      26.843   6.989  49.430  1.00  0.00     0.171 HD
BRANCH  11  14
HETATM   14  C2  UNL     1      29.182   6.712  48.227  1.00  0.00    -0.005 C 
HETATM   15  C3  UNL     1      29.991   7.573  47.978  1.00  0.00    -0.095 C 
BRANCH  15  16
HETATM   16  C4  UNL     1      30.970   8.649  47.681  1.00  0.00     0.114 C 
BRANCH  16  17
HETATM   17  C5  UNL     1      30.160   9.836  47.253  1.00  0.00     0.129 C 
BRANCH  17  18
HETATM   18  N1  UNL     1      29.659  10.511  48.402  1.00  0.00    -0.408 N 
HETATM   19  C6  UNL     1      28.366  11.073  48.317  1.00  0.00     0.143 C 
HETATM   20  C7  UNL     1      28.361  12.495  48.775  1.00  0.00     0.187 C 
HETATM   21  O2  UNL     1      29.572  13.102  48.395  1.00  0.00    -0.388 OA
HETATM   22  C8  UNL     1      30.640  12.588  49.096  1.00  0.00     0.187 C 
HETATM   23  C9  UNL     1      30.597  11.091  49.285  1.00  0.00     0.143 C 
ENDBRANCH  17  18
ENDBRANCH  16  17
ENDBRANCH  15  16
ENDBRANCH  11  14
ENDBRANCH   1  10
BRANCH   4  24
HETATM   24  C14 UNL     1      24.419   1.322  52.003  1.00  0.00    -0.008 A 
HETATM   25  C15 UNL     1      25.647   0.943  52.494  1.00  0.00     0.017 A 
HETATM   26  C16 UNL     1      25.864   0.070  53.526  1.00  0.00     0.044 A 
HETATM   27  C17 UNL     1      24.759  -0.499  54.153  1.00  0.00     0.133 A 
HETATM   28  F1  UNL     1      24.901  -1.370  55.179  1.00  0.00    -0.205 F 
HETATM   29  C18 UNL     1      23.507  -0.144  53.690  1.00  0.00     0.050 A 
HETATM   30 BR1  UNL     1      21.983  -0.922  54.551  1.00  0.00    -0.048 Br
HETATM   31  C19 UNL     1      23.350   0.744  52.643  1.00  0.00     0.036 A 
ENDBRANCH   4  24
TORSDOF 6
ENDMDL
MODEL 8
REMARK VINA RESULT:      -8.0      2.857      3.722
REMARK  6 active torsions:
REMARK  status: ('A' for Active; 'I' for Inactive)
REMARK    1  A    between atoms: C1_2  and  C2_3 
REMARK       I    between atoms: C1_2  and  N2_13 
REMARK    2  A    between atoms: C3_4  and  C4_5 
REMARK    3  A    between atoms: C4_5  and  C5_6 
REMARK    4  A    between atoms: C5_6  and  N1_7 
REMARK    5  A    between atoms: N2_13  and  C10_14 
REMARK    6  A    between atoms: C13_17  and  C14_18 
ROOT
HETATM    1  C10 UNL     1      24.746   4.575  50.696  1.00  0.00     0.130 C 
HETATM    2  C11 UNL     1      24.194   3.373  50.617  1.00  0.00     0.062 C 
HETATM    3  C12 UNL     1      22.913   3.489  51.323  1.00  0.00     0.000 C 
HETATM    4  C13 UNL     1      22.035   2.801  52.076  1.00  0.00     0.048 C 
HETATM    5  N3  UNL     1      21.369   4.056  52.296  1.00  0.00    -0.375 N 
HETATM    6  C20 UNL     1      22.044   4.688  51.259  1.00  0.00     0.158 C 
HETATM    7  C21 UNL     1      22.847   5.906  51.348  1.00  0.00     0.122 C 
HETATM    8  N4  UNL     1      24.121   5.819  51.062  1.00  0.00    -0.245 NA
HETATM    9  H18 UNL     1      20.643   4.470  52.947  1.00  0.00     0.160 HD
ENDROOT
BRANCH   1  10
HETATM   10  N2  UNL     1      26.024   4.952  50.171  1.00  0.00    -0.301 N 
HETATM   11  C1  UNL     1      26.221   5.665  48.958  1.00  0.00     0.302 C 
HETATM   12  O1  UNL     1      25.188   6.000  48.283  1.00  0.00    -0.258 OA
HETATM   13  H13 UNL     1      26.928   4.719  50.666  1.00  0.00     0.171 HD
BRANCH  11  14
HETATM   14  C2  UNL     1      27.511   6.033  48.446  1.00  0.00    -0.005 C 
HETATM   15  C3  UNL     1      28.604   6.335  48.032  1.00  0.00    -0.095 C 
BRANCH  15  16
HETATM   16  C4  UNL     1      29.958   6.699  47.545  1.00  0.00     0.114 C 
BRANCH  16  17
HETATM   17  C5  UNL     1      30.921   6.141  48.549  1.00  0.00     0.129 C 
BRANCH  17  18
HETATM   18  N1  UNL     1      32.138   5.788  47.899  1.00  0.00    -0.408 N 
HETATM   19  C6  UNL     1      32.275   6.138  46.537  1.00  0.00     0.143 C 
HETATM   20  C7  UNL     1      32.724   4.970  45.720  1.00  0.00     0.187 C 
HETATM   21  O2  UNL     1      32.140   3.799  46.237  1.00  0.00    -0.388 OA
HETATM   22  C8  UNL     1      32.648   3.482  47.476  1.00  0.00     0.187 C 
HETATM   23  C9  UNL     1      32.845   4.668  48.390  1.00  0.00     0.143 C 
ENDBRANCH  17  18
ENDBRANCH  16  17
ENDBRANCH  15  16
ENDBRANCH  11  14
ENDBRANCH   1  10
BRANCH   4  24
HETATM   24  C14 UNL     1      21.798   1.489  52.654  1.00  0.00    -0.008 A 
HETATM   25  C15 UNL     1      22.788   0.703  53.195  1.00  0.00     0.017 A 
HETATM   26  C16 UNL     1      22.616  -0.537  53.750  1.00  0.00     0.044 A 
HETATM   27  C17 UNL     1      21.332  -1.072  53.785  1.00  0.00     0.133 A 
HETATM   28  F1  UNL     1      21.090  -2.292  54.318  1.00  0.00    -0.205 F 
HETATM   29  C18 UNL     1      20.307  -0.314  53.252  1.00  0.00     0.050 A 
HETATM   30 BR1  UNL     1      18.538  -1.045  53.299  1.00  0.00    -0.048 Br
HETATM   31  C19 UNL     1      20.542   0.932  52.704  1.00  0.00     0.036 A 
ENDBRANCH   4  24
TORSDOF 6
ENDMDL
MODEL 9
REMARK VINA RESULT:      -7.9      2.891      3.745
REMARK  6 active torsions:
REMARK  status: ('A' for Active; 'I' for Inactive)
REMARK    1  A    between atoms: C1_2  and  C2_3 
REMARK       I    between atoms: C1_2  and  N2_13 
REMARK    2  A    between atoms: C3_4  and  C4_5 
REMARK    3  A    between atoms: C4_5  and  C5_6 
REMARK    4  A    between atoms: C5_6  and  N1_7 
REMARK    5  A    between atoms: N2_13  and  C10_14 
REMARK    6  A    between atoms: C13_17  and  C14_18 
ROOT
HETATM    1  C10 UNL     1      24.854   4.384  50.618  1.00  0.00     0.130 C 
HETATM    2  C11 UNL     1      24.188   3.242  50.536  1.00  0.00     0.062 C 
HETATM    3  C12 UNL     1      22.887   3.509  51.162  1.00  0.00     0.000 C 
HETATM    4  C13 UNL     1      21.901   2.936  51.877  1.00  0.00     0.048 C 
HETATM    5  N3  UNL     1      21.357   4.258  52.026  1.00  0.00    -0.375 N 
HETATM    6  C20 UNL     1      22.151   4.786  51.015  1.00  0.00     0.158 C 
HETATM    7  C21 UNL     1      23.069   5.920  51.122  1.00  0.00     0.122 C 
HETATM    8  N4  UNL     1      24.342   5.695  50.915  1.00  0.00    -0.245 NA
HETATM    9  H18 UNL     1      20.641   4.764  52.622  1.00  0.00     0.160 HD
ENDROOT
BRANCH   1  10
HETATM   10  N2  UNL     1      26.192   4.613  50.161  1.00  0.00    -0.301 N 
HETATM   11  C1  UNL     1      26.534   5.364  49.004  1.00  0.00     0.302 C 
HETATM   12  O1  UNL     1      25.584   5.876  48.319  1.00  0.00    -0.258 OA
HETATM   13  H13 UNL     1      27.036   4.229  50.669  1.00  0.00     0.171 HD
BRANCH  11  14
HETATM   14  C2  UNL     1      27.882   5.582  48.561  1.00  0.00    -0.005 C 
HETATM   15  C3  UNL     1      29.008   5.775  48.173  1.00  0.00    -0.095 C 
BRANCH  15  16
HETATM   16  C4  UNL     1      30.385   6.024  47.675  1.00  0.00     0.114 C 
BRANCH  16  17
HETATM   17  C5  UNL     1      31.034   4.676  47.569  1.00  0.00     0.129 C 
BRANCH  17  18
HETATM   18  N1  UNL     1      32.310   4.711  48.200  1.00  0.00    -0.408 N 
HETATM   19  C6  UNL     1      32.644   5.870  48.935  1.00  0.00     0.143 C 
HETATM   20  C7  UNL     1      33.989   6.390  48.546  1.00  0.00     0.187 C 
HETATM   21  O2  UNL     1      34.179   6.181  47.167  1.00  0.00    -0.388 OA
HETATM   22  C8  UNL     1      34.303   4.842  46.870  1.00  0.00     0.187 C 
HETATM   23  C9  UNL     1      33.349   3.947  47.623  1.00  0.00     0.143 C 
ENDBRANCH  17  18
ENDBRANCH  16  17
ENDBRANCH  15  16
ENDBRANCH  11  14
ENDBRANCH   1  10
BRANCH   4  24
HETATM   24  C14 UNL     1      21.498   1.673  52.472  1.00  0.00    -0.008 A 
HETATM   25  C15 UNL     1      20.276   1.082  52.251  1.00  0.00     0.017 A 
HETATM   26  C16 UNL     1      19.850  -0.104  52.786  1.00  0.00     0.044 A 
HETATM   27  C17 UNL     1      20.713  -0.795  53.633  1.00  0.00     0.133 A 
HETATM   28  F1  UNL     1      20.356  -1.972  54.196  1.00  0.00    -0.205 F 
HETATM   29  C18 UNL     1      21.951  -0.235  53.880  1.00  0.00     0.050 A 
HETATM   30 BR1  UNL     1      23.143  -1.182  55.042  1.00  0.00    -0.048 Br
HETATM   31  C19 UNL     1      22.326   0.967  53.311  1.00  0.00     0.036 A 
ENDBRANCH   4  24
TORSDOF 6
ENDMDL
