MODEL 1
REMARK VINA RESULT:      -7.8      0.000      0.000
REMARK  6 active torsions:
REMARK  status: ('A' for Active; 'I' for Inactive)
REMARK    1  A    between atoms: C2_2  and  N1_3 
REMARK       I    between atoms: N2_6  and  C5_7 
REMARK    2  A    between atoms: C5_7  and  C6_9 
REMARK    3  A    between atoms: C7_11  and  C8_12 
REMARK    4  A    between atoms: C12_18  and  N5_19 
REMARK    5  A    between atoms: N5_19  and  C13_20 
REMARK    6  A    between atoms: C13_20  and  C14_21 
ROOT
HETATM    1  C8  UNL     1      20.507   0.253  52.161  1.00  0.00     0.037 A 
HETATM    2  C9  UNL     1      19.257  -0.255  52.279  1.00  0.00     0.046 A 
HETATM    3  C10 UNL     1      18.905  -0.977  53.512  1.00  0.00     0.071 C 
HETATM    4  N3  UNL     1      18.373  -0.078  51.284  1.00  0.00    -0.246 NA
HETATM    5  C11 UNL     1      18.647   0.581  50.155  1.00  0.00     0.235 A 
HETATM    6  N4  UNL     1      19.884   1.106  50.002  1.00  0.00    -0.224 NA
HETATM    7  C12 UNL     1      20.807   0.946  50.991  1.00  0.00     0.137 A 
ENDROOT
BRANCH   1   8
HETATM    8  C7  UNL     1      21.618   0.162  53.067  1.00  0.00     0.065 C 
HETATM    9  C6  UNL     1      22.440  -0.862  53.221  1.00  0.00     0.184 C 
HETATM   10  F1  UNL     1      22.326  -2.003  52.499  1.00  0.00    -0.200 F 
BRANCH   9  11
HETATM   11  C5  UNL     1      23.523  -0.783  54.192  1.00  0.00     0.283 C 
HETATM   12  N2  UNL     1      24.879  -0.490  53.891  1.00  0.00    -0.328 N 
HETATM   13  C4  UNL     1      25.681  -0.187  52.736  1.00  0.00     0.144 C 
HETATM   14  C16 UNL     1      25.683  -0.490  55.093  1.00  0.00     0.261 C 
HETATM   15  C3  UNL     1      26.837  -1.153  52.685  1.00  0.00     0.133 C 
HETATM   16  N1  UNL     1      27.639  -0.969  53.858  1.00  0.00    -0.233 NA
HETATM   17  N6  UNL     1      27.062  -0.243  54.867  1.00  0.00    -0.337 N 
HETATM   18  H21 UNL     1      27.365   0.736  54.844  1.00  0.00     0.176 HD
HETATM   19  O1  UNL     1      22.975  -1.027  55.299  1.00  0.00    -0.265 OA
BRANCH  16  20
HETATM   20  C2  UNL     1      28.973  -0.516  53.591  1.00  0.00     0.109 C 
HETATM   21  C1  UNL     1      29.149   0.956  53.928  1.00  0.00     0.022 C 
ENDBRANCH  16  20
ENDBRANCH   9  11
ENDBRANCH   1   8
BRANCH   7  22
HETATM   22  N5  UNL     1      22.080   1.549  50.674  1.00  0.00    -0.370 N 
HETATM   23  H15 UNL     1      22.837   0.861  50.505  1.00  0.00     0.161 HD
BRANCH  22  24
HETATM   24  C13 UNL     1      22.403   2.938  50.572  1.00  0.00     0.150 C 
BRANCH  24  25
HETATM   25  C14 UNL     1      23.820   3.127  50.122  1.00  0.00     0.024 C 
HETATM   26  C15 UNL     1      24.882   3.269  50.914  1.00  0.00     0.078 C 
HETATM   27 CL1  UNL     1      24.436   3.210  52.620  1.00  0.00    -0.076 Cl
HETATM   28 BR1  UNL     1      26.517   3.486  49.913  1.00  0.00    -0.038 Br
ENDBRANCH  24  25
ENDBRANCH  22  24
ENDBRANCH   7  22
TORSDOF 6
ENDMDL
MODEL 2
REMARK VINA RESULT:      -7.7      2.205      2.499
REMARK  6 active torsions:
REMARK  status: ('A' for Active; 'I' for Inactive)
REMARK    1  A    between atoms: C2_2  and  N1_3 
REMARK       I    between atoms: N2_6  and  C5_7 
REMARK    2  A    between atoms: C5_7  and  C6_9 
REMARK    3  A    between atoms: C7_11  and  C8_12 
REMARK    4  A    between atoms: C12_18  and  N5_19 
REMARK    5  A    between atoms: N5_19  and  C13_20 
REMARK    6  A    between atoms: C13_20  and  C14_21 
ROOT
HETATM    1  C8  UNL     1      20.097   0.769  52.788  1.00  0.00     0.037 A 
HETATM    2  C9  UNL     1      19.643  -0.442  53.189  1.00  0.00     0.046 A 
HETATM    3  C10 UNL     1      20.501  -1.262  54.060  1.00  0.00     0.071 C 
HETATM    4  N3  UNL     1      18.427  -0.857  52.798  1.00  0.00    -0.246 NA
HETATM    5  C11 UNL     1      17.612  -0.140  52.020  1.00  0.00     0.235 A 
HETATM    6  N4  UNL     1      18.029   1.076  51.601  1.00  0.00    -0.224 NA
HETATM    7  C12 UNL     1      19.258   1.530  51.978  1.00  0.00     0.137 A 
ENDROOT
BRANCH   1   8
HETATM    8  C7  UNL     1      21.361   1.401  53.047  1.00  0.00     0.065 C 
HETATM    9  C6  UNL     1      22.539   1.060  52.555  1.00  0.00     0.184 C 
HETATM   10  F1  UNL     1      22.700   0.022  51.700  1.00  0.00    -0.200 F 
BRANCH   9  11
HETATM   11  C5  UNL     1      23.727   1.818  52.926  1.00  0.00     0.283 C 
HETATM   12  N2  UNL     1      24.995   1.261  53.238  1.00  0.00    -0.328 N 
HETATM   13  C4  UNL     1      25.606  -0.039  53.320  1.00  0.00     0.144 C 
HETATM   14  C16 UNL     1      25.948   2.301  53.559  1.00  0.00     0.261 C 
HETATM   15  C3  UNL     1      26.228  -0.193  54.685  1.00  0.00     0.133 C 
HETATM   16  N1  UNL     1      27.248   0.800  54.839  1.00  0.00    -0.233 NA
HETATM   17  N6  UNL     1      27.231   1.818  53.921  1.00  0.00    -0.337 N 
HETATM   18  H21 UNL     1      27.900   1.649  53.162  1.00  0.00     0.176 HD
HETATM   19  O1  UNL     1      23.357   3.021  52.899  1.00  0.00    -0.265 OA
BRANCH  16  20
HETATM   20  C2  UNL     1      28.569   0.265  54.995  1.00  0.00     0.109 C 
HETATM   21  C1  UNL     1      29.359   0.319  53.698  1.00  0.00     0.022 C 
ENDBRANCH  16  20
ENDBRANCH   9  11
ENDBRANCH   1   8
BRANCH   7  22
HETATM   22  N5  UNL     1      19.564   2.835  51.441  1.00  0.00    -0.370 N 
HETATM   23  H15 UNL     1      19.571   3.587  52.154  1.00  0.00     0.161 HD
BRANCH  22  24
HETATM   24  C13 UNL     1      19.847   3.193  50.086  1.00  0.00     0.150 C 
BRANCH  24  25
HETATM   25  C14 UNL     1      21.312   3.440  49.893  1.00  0.00     0.024 C 
HETATM   26  C15 UNL     1      22.188   2.589  49.359  1.00  0.00     0.078 C 
HETATM   27 CL1  UNL     1      21.417   1.076  48.881  1.00  0.00    -0.076 Cl
HETATM   28 BR1  UNL     1      23.973   3.317  49.302  1.00  0.00    -0.038 Br
ENDBRANCH  24  25
ENDBRANCH  22  24
ENDBRANCH   7  22
TORSDOF 6
ENDMDL
MODEL 3
REMARK VINA RESULT:      -7.7      2.898      6.842
REMARK  6 active torsions:
REMARK  status: ('A' for Active; 'I' for Inactive)
REMARK    1  A    between atoms: C2_2  and  N1_3 
REMARK       I    between atoms: N2_6  and  C5_7 
REMARK    2  A    between atoms: C5_7  and  C6_9 
REMARK    3  A    between atoms: C7_11  and  C8_12 
REMARK    4  A    between atoms: C12_18  and  N5_19 
REMARK    5  A    between atoms: N5_19  and  C13_20 
REMARK    6  A    between atoms: C13_20  and  C14_21 
ROOT
HETATM    1  C8  UNL     1      25.949   1.300  52.840  1.00  0.00     0.037 A 
HETATM    2  C9  UNL     1      26.303   0.329  53.715  1.00  0.00     0.046 A 
HETATM    3  C10 UNL     1      25.253  -0.555  54.247  1.00  0.00     0.071 C 
HETATM    4  N3  UNL     1      27.592   0.188  54.063  1.00  0.00    -0.246 NA
HETATM    5  C11 UNL     1      28.577   0.959  53.595  1.00  0.00     0.235 A 
HETATM    6  N4  UNL     1      28.264   1.938  52.716  1.00  0.00    -0.224 NA
HETATM    7  C12 UNL     1      26.965   2.111  52.340  1.00  0.00     0.137 A 
ENDROOT
BRANCH   1   8
HETATM    8  C7  UNL     1      24.646   1.659  52.353  1.00  0.00     0.065 C 
HETATM    9  C6  UNL     1      23.889   2.661  52.765  1.00  0.00     0.184 C 
HETATM   10  F1  UNL     1      24.278   3.515  53.742  1.00  0.00    -0.200 F 
BRANCH   9  11
HETATM   11  C5  UNL     1      22.584   2.882  52.155  1.00  0.00     0.283 C 
HETATM   12  N2  UNL     1      21.411   2.131  52.426  1.00  0.00    -0.328 N 
HETATM   13  C4  UNL     1      21.011   1.027  53.258  1.00  0.00     0.144 C 
HETATM   14  C16 UNL     1      20.295   2.623  51.647  1.00  0.00     0.261 C 
HETATM   15  C3  UNL     1      20.376  -0.026  52.385  1.00  0.00     0.133 C 
HETATM   16  N1  UNL     1      19.207   0.530  51.773  1.00  0.00    -0.233 NA
HETATM   17  N6  UNL     1      19.093   1.894  51.836  1.00  0.00    -0.337 N 
HETATM   18  H21 UNL     1      18.485   2.184  52.610  1.00  0.00     0.176 HD
HETATM   19  O1  UNL     1      22.760   3.853  51.374  1.00  0.00    -0.265 OA
BRANCH  16  20
HETATM   20  C2  UNL     1      17.982  -0.110  52.157  1.00  0.00     0.109 C 
HETATM   21  C1  UNL     1      18.220  -1.248  53.135  1.00  0.00     0.022 C 
ENDBRANCH  16  20
ENDBRANCH   9  11
ENDBRANCH   1   8
BRANCH   7  22
HETATM   22  N5  UNL     1      26.790   3.201  51.411  1.00  0.00    -0.370 N 
HETATM   23  H15 UNL     1      26.874   4.138  51.847  1.00  0.00     0.161 HD
BRANCH  22  24
HETATM   24  C13 UNL     1      26.523   3.138  50.008  1.00  0.00     0.150 C 
BRANCH  24  25
HETATM   25  C14 UNL     1      25.845   4.388  49.534  1.00  0.00     0.024 C 
HETATM   26  C15 UNL     1      26.411   5.370  48.835  1.00  0.00     0.078 C 
HETATM   27 CL1  UNL     1      28.113   5.039  48.506  1.00  0.00    -0.076 Cl
HETATM   28 BR1  UNL     1      25.171   6.792  48.435  1.00  0.00    -0.038 Br
ENDBRANCH  24  25
ENDBRANCH  22  24
ENDBRANCH   7  22
TORSDOF 6
ENDMDL
MODEL 4
REMARK VINA RESULT:      -7.4      2.270      2.735
REMARK  6 active torsions:
REMARK  status: ('A' for Active; 'I' for Inactive)
REMARK    1  A    between atoms: C2_2  and  N1_3 
REMARK       I    between atoms: N2_6  and  C5_7 
REMARK    2  A    between atoms: C5_7  and  C6_9 
REMARK    3  A    between atoms: C7_11  and  C8_12 
REMARK    4  A    between atoms: C12_18  and  N5_19 
REMARK    5  A    between atoms: N5_19  and  C13_20 
REMARK    6  A    between atoms: C13_20  and  C14_21 
ROOT
HETATM    1  C8  UNL     1      20.900  -0.034  52.291  1.00  0.00     0.037 A 
HETATM    2  C9  UNL     1      20.324  -0.625  53.364  1.00  0.00     0.046 A 
HETATM    3  C10 UNL     1      21.182  -1.028  54.490  1.00  0.00     0.071 C 
HETATM    4  N3  UNL     1      18.995  -0.815  53.383  1.00  0.00    -0.246 NA
HETATM    5  C11 UNL     1      18.179  -0.453  52.389  1.00  0.00     0.235 A 
HETATM    6  N4  UNL     1      18.717   0.143  51.301  1.00  0.00    -0.224 NA
HETATM    7  C12 UNL     1      20.062   0.352  51.248  1.00  0.00     0.137 A 
ENDROOT
BRANCH   1   8
HETATM    8  C7  UNL     1      22.287   0.240  52.035  1.00  0.00     0.065 C 
HETATM    9  C6  UNL     1      22.930   1.374  52.254  1.00  0.00     0.184 C 
HETATM   10  F1  UNL     1      22.325   2.466  52.778  1.00  0.00    -0.200 F 
BRANCH   9  11
HETATM   11  C5  UNL     1      24.348   1.476  51.934  1.00  0.00     0.283 C 
HETATM   12  N2  UNL     1      25.396   0.809  52.621  1.00  0.00    -0.328 N 
HETATM   13  C4  UNL     1      25.549  -0.103  53.723  1.00  0.00     0.144 C 
HETATM   14  C16 UNL     1      26.680   1.135  52.038  1.00  0.00     0.261 C 
HETATM   15  C3  UNL     1      26.523   0.492  54.709  1.00  0.00     0.133 C 
HETATM   16  N1  UNL     1      27.793   0.643  54.063  1.00  0.00    -0.233 NA
HETATM   17  N6  UNL     1      27.783   0.534  52.697  1.00  0.00    -0.337 N 
HETATM   18  H21 UNL     1      28.055  -0.408  52.395  1.00  0.00     0.176 HD
HETATM   19  O1  UNL     1      24.396   2.262  50.953  1.00  0.00    -0.265 OA
BRANCH  16  20
HETATM   20  C2  UNL     1      28.841  -0.148  54.639  1.00  0.00     0.109 C 
HETATM   21  C1  UNL     1      29.543  -1.003  53.596  1.00  0.00     0.022 C 
ENDBRANCH  16  20
ENDBRANCH   9  11
ENDBRANCH   1   8
BRANCH   7  22
HETATM   22  N5  UNL     1      20.484   0.985  50.020  1.00  0.00    -0.370 N 
HETATM   23  H15 UNL     1      21.137   0.408  49.457  1.00  0.00     0.161 HD
BRANCH  22  24
HETATM   24  C13 UNL     1      20.118   2.269  49.512  1.00  0.00     0.150 C 
BRANCH  24  25
HETATM   25  C14 UNL     1      21.329   3.042  49.085  1.00  0.00     0.024 C 
HETATM   26  C15 UNL     1      21.785   4.160  49.648  1.00  0.00     0.078 C 
HETATM   27 CL1  UNL     1      20.778   4.664  51.006  1.00  0.00    -0.076 Cl
HETATM   28 BR1  UNL     1      23.375   4.821  48.778  1.00  0.00    -0.038 Br
ENDBRANCH  24  25
ENDBRANCH  22  24
ENDBRANCH   7  22
TORSDOF 6
ENDMDL
MODEL 5
REMARK VINA RESULT:      -7.3      2.927      5.582
REMARK  6 active torsions:
REMARK  status: ('A' for Active; 'I' for Inactive)
REMARK    1  A    between atoms: C2_2  and  N1_3 
REMARK       I    between atoms: N2_6  and  C5_7 
REMARK    2  A    between atoms: C5_7  and  C6_9 
REMARK    3  A    between atoms: C7_11  and  C8_12 
REMARK    4  A    between atoms: C12_18  and  N5_19 
REMARK    5  A    between atoms: N5_19  and  C13_20 
REMARK    6  A    between atoms: C13_20  and  C14_21 
ROOT
HETATM    1  C8  UNL     1      22.464   0.351  53.442  1.00  0.00     0.037 A 
HETATM    2  C9  UNL     1      21.434  -0.329  54.000  1.00  0.00     0.046 A 
HETATM    3  C10 UNL     1      20.065  -0.021  53.556  1.00  0.00     0.071 C 
HETATM    4  N3  UNL     1      21.685  -1.269  54.926  1.00  0.00    -0.246 NA
HETATM    5  C11 UNL     1      22.912  -1.589  55.347  1.00  0.00     0.235 A 
HETATM    6  N4  UNL     1      23.966  -0.933  54.811  1.00  0.00    -0.224 NA
HETATM    7  C12 UNL     1      23.749   0.028  53.868  1.00  0.00     0.137 A 
ENDROOT
BRANCH   1   8
HETATM    8  C7  UNL     1      22.439   1.409  52.471  1.00  0.00     0.065 C 
HETATM    9  C6  UNL     1      22.184   1.300  51.178  1.00  0.00     0.184 C 
HETATM   10  F1  UNL     1      21.897   0.115  50.589  1.00  0.00    -0.200 F 
BRANCH   9  11
HETATM   11  C5  UNL     1      22.199   2.487  50.333  1.00  0.00     0.283 C 
HETATM   12  N2  UNL     1      23.360   3.204  49.943  1.00  0.00    -0.328 N 
HETATM   13  C4  UNL     1      24.784   3.131  50.137  1.00  0.00     0.144 C 
HETATM   14  C16 UNL     1      23.011   4.328  49.101  1.00  0.00     0.261 C 
HETATM   15  C3  UNL     1      25.266   4.456  50.672  1.00  0.00     0.133 C 
HETATM   16  N1  UNL     1      24.990   5.470  49.700  1.00  0.00    -0.233 NA
HETATM   17  N6  UNL     1      24.119   5.118  48.702  1.00  0.00    -0.337 N 
HETATM   18  H21 UNL     1      24.618   4.831  47.853  1.00  0.00     0.176 HD
HETATM   19  O1  UNL     1      20.990   2.696  50.058  1.00  0.00    -0.265 OA
BRANCH  16  20
HETATM   20  C2  UNL     1      26.161   6.104  49.165  1.00  0.00     0.109 C 
HETATM   21  C1  UNL     1      27.187   5.090  48.689  1.00  0.00     0.022 C 
ENDBRANCH  16  20
ENDBRANCH   9  11
ENDBRANCH   1   8
BRANCH   7  22
HETATM   22  N5  UNL     1      24.970   0.644  53.404  1.00  0.00    -0.370 N 
HETATM   23  H15 UNL     1      25.246   1.483  53.947  1.00  0.00     0.161 HD
BRANCH  22  24
HETATM   24  C13 UNL     1      25.809   0.242  52.319  1.00  0.00     0.150 C 
BRANCH  24  25
HETATM   25  C14 UNL     1      27.094  -0.343  52.824  1.00  0.00     0.024 C 
HETATM   26  C15 UNL     1      28.184   0.340  53.169  1.00  0.00     0.078 C 
HETATM   27 CL1  UNL     1      27.958   2.077  52.964  1.00  0.00    -0.076 Cl
HETATM   28 BR1  UNL     1      29.611  -0.813  53.766  1.00  0.00    -0.038 Br
ENDBRANCH  24  25
ENDBRANCH  22  24
ENDBRANCH   7  22
TORSDOF 6
ENDMDL
MODEL 6
REMARK VINA RESULT:      -7.3      3.570      6.208
REMARK  6 active torsions:
REMARK  status: ('A' for Active; 'I' for Inactive)
REMARK    1  A    between atoms: C2_2  and  N1_3 
REMARK       I    between atoms: N2_6  and  C5_7 
REMARK    2  A    between atoms: C5_7  and  C6_9 
REMARK    3  A    between atoms: C7_11  and  C8_12 
REMARK    4  A    between atoms: C12_18  and  N5_19 
REMARK    5  A    between atoms: N5_19  and  C13_20 
REMARK    6  A    between atoms: C13_20  and  C14_21 
ROOT
HETATM    1  C8  UNL     1      23.001   0.612  52.895  1.00  0.00     0.037 A 
HETATM    2  C9  UNL     1      21.655   0.689  53.021  1.00  0.00     0.046 A 
HETATM    3  C10 UNL     1      20.910   1.560  52.098  1.00  0.00     0.071 C 
HETATM    4  N3  UNL     1      21.036  -0.034  53.968  1.00  0.00    -0.246 NA
HETATM    5  C11 UNL     1      21.672  -0.846  54.818  1.00  0.00     0.235 A 
HETATM    6  N4  UNL     1      23.016  -0.951  54.721  1.00  0.00    -0.224 NA
HETATM    7  C12 UNL     1      23.678  -0.231  53.772  1.00  0.00     0.137 A 
ENDROOT
BRANCH   1   8
HETATM    8  C7  UNL     1      23.874   1.309  51.991  1.00  0.00     0.065 C 
HETATM    9  C6  UNL     1      24.430   2.494  52.174  1.00  0.00     0.184 C 
HETATM   10  F1  UNL     1      24.236   3.225  53.298  1.00  0.00    -0.200 F 
BRANCH   9  11
HETATM   11  C5  UNL     1      25.297   3.055  51.146  1.00  0.00     0.283 C 
HETATM   12  N2  UNL     1      25.149   4.337  50.555  1.00  0.00    -0.328 N 
HETATM   13  C4  UNL     1      24.271   5.473  50.658  1.00  0.00     0.144 C 
HETATM   14  C16 UNL     1      26.185   4.572  49.573  1.00  0.00     0.261 C 
HETATM   15  C3  UNL     1      23.735   5.792  49.285  1.00  0.00     0.133 C 
HETATM   16  N1  UNL     1      24.834   6.141  48.435  1.00  0.00    -0.233 NA
HETATM   17  N6  UNL     1      26.079   5.822  48.909  1.00  0.00    -0.337 N 
HETATM   18  H21 UNL     1      26.529   6.629  49.355  1.00  0.00     0.176 HD
HETATM   19  O1  UNL     1      26.156   2.162  50.933  1.00  0.00    -0.265 OA
BRANCH  16  20
HETATM   20  C2  UNL     1      24.795   7.491  47.950  1.00  0.00     0.109 C 
HETATM   21  C1  UNL     1      25.723   8.402  48.737  1.00  0.00     0.022 C 
ENDBRANCH  16  20
ENDBRANCH   9  11
ENDBRANCH   1   8
BRANCH   7  22
HETATM   22  N5  UNL     1      25.107  -0.441  53.803  1.00  0.00    -0.370 N 
HETATM   23  H15 UNL     1      25.416  -1.286  53.288  1.00  0.00     0.161 HD
BRANCH  22  24
HETATM   24  C13 UNL     1      26.106   0.357  54.441  1.00  0.00     0.150 C 
BRANCH  24  25
HETATM   25  C14 UNL     1      27.479  -0.170  54.149  1.00  0.00     0.024 C 
HETATM   26  C15 UNL     1      28.537   0.555  53.789  1.00  0.00     0.078 C 
HETATM   27 CL1  UNL     1      28.146   2.272  53.684  1.00  0.00    -0.076 Cl
HETATM   28 BR1  UNL     1      30.107  -0.531  53.513  1.00  0.00    -0.038 Br
ENDBRANCH  24  25
ENDBRANCH  22  24
ENDBRANCH   7  22
TORSDOF 6
ENDMDL
MODEL 7
REMARK VINA RESULT:      -7.3      3.384      4.698
REMARK  6 active torsions:
REMARK  status: ('A' for Active; 'I' for Inactive)
REMARK    1  A    between atoms: C2_2  and  N1_3 
REMARK       I    between atoms: N2_6  and  C5_7 
REMARK    2  A    between atoms: C5_7  and  C6_9 
REMARK    3  A    between atoms: C7_11  and  C8_12 
REMARK    4  A    between atoms: C12_18  and  N5_19 
REMARK    5  A    between atoms: N5_19  and  C13_20 
REMARK    6  A    between atoms: C13_20  and  C14_21 
ROOT
HETATM    1  C8  UNL     1      21.946   3.713  51.734  1.00  0.00     0.037 A 
HETATM    2  C9  UNL     1      22.494   4.838  51.217  1.00  0.00     0.046 A 
HETATM    3  C10 UNL     1      23.936   5.069  51.404  1.00  0.00     0.071 C 
HETATM    4  N3  UNL     1      21.721   5.702  50.539  1.00  0.00    -0.246 NA
HETATM    5  C11 UNL     1      20.413   5.525  50.334  1.00  0.00     0.235 A 
HETATM    6  N4  UNL     1      19.830   4.412  50.834  1.00  0.00    -0.224 NA
HETATM    7  C12 UNL     1      20.584   3.513  51.528  1.00  0.00     0.137 A 
ENDROOT
BRANCH   1   8
HETATM    8  C7  UNL     1      22.559   2.676  52.515  1.00  0.00     0.065 C 
HETATM    9  C6  UNL     1      23.111   1.560  52.068  1.00  0.00     0.184 C 
HETATM   10  F1  UNL     1      23.169   1.254  50.750  1.00  0.00    -0.200 F 
BRANCH   9  11
HETATM   11  C5  UNL     1      23.692   0.611  53.008  1.00  0.00     0.283 C 
HETATM   12  N2  UNL     1      25.029   0.638  53.483  1.00  0.00    -0.328 N 
HETATM   13  C4  UNL     1      26.212   1.440  53.318  1.00  0.00     0.144 C 
HETATM   14  C16 UNL     1      25.268  -0.451  54.406  1.00  0.00     0.261 C 
HETATM   15  C3  UNL     1      27.350   0.541  52.905  1.00  0.00     0.133 C 
HETATM   16  N1  UNL     1      27.586  -0.409  53.951  1.00  0.00    -0.233 NA
HETATM   17  N6  UNL     1      26.598  -0.513  54.895  1.00  0.00    -0.337 N 
HETATM   18  H21 UNL     1      26.817   0.042  55.729  1.00  0.00     0.176 HD
HETATM   19  O1  UNL     1      22.757  -0.189  53.270  1.00  0.00    -0.265 OA
BRANCH  16  20
HETATM   20  C2  UNL     1      28.878  -0.298  54.563  1.00  0.00     0.109 C 
HETATM   21  C1  UNL     1      29.999  -0.581  53.576  1.00  0.00     0.022 C 
ENDBRANCH  16  20
ENDBRANCH   9  11
ENDBRANCH   1   8
BRANCH   7  22
HETATM   22  N5  UNL     1      19.817   2.388  52.007  1.00  0.00    -0.370 N 
HETATM   23  H15 UNL     1      19.631   2.414  53.027  1.00  0.00     0.161 HD
BRANCH  22  24
HETATM   24  C13 UNL     1      19.303   1.282  51.261  1.00  0.00     0.150 C 
BRANCH  24  25
HETATM   25  C14 UNL     1      18.927   0.151  52.170  1.00  0.00     0.024 C 
HETATM   26  C15 UNL     1      17.915  -0.697  51.991  1.00  0.00     0.078 C 
HETATM   27 CL1  UNL     1      17.021  -0.340  50.513  1.00  0.00    -0.076 Cl
HETATM   28 BR1  UNL     1      17.795  -2.001  53.406  1.00  0.00    -0.038 Br
ENDBRANCH  24  25
ENDBRANCH  22  24
ENDBRANCH   7  22
TORSDOF 6
ENDMDL
MODEL 8
REMARK VINA RESULT:      -7.3      4.056      7.194
REMARK  6 active torsions:
REMARK  status: ('A' for Active; 'I' for Inactive)
REMARK    1  A    between atoms: C2_2  and  N1_3 
REMARK       I    between atoms: N2_6  and  C5_7 
REMARK    2  A    between atoms: C5_7  and  C6_9 
REMARK    3  A    between atoms: C7_11  and  C8_12 
REMARK    4  A    between atoms: C12_18  and  N5_19 
REMARK    5  A    between atoms: N5_19  and  C13_20 
REMARK    6  A    between atoms: C13_20  and  C14_21 
ROOT
HETATM    1  C8  UNL     1      25.531   5.108  49.283  1.00  0.00     0.037 A 
HETATM    2  C9  UNL     1      25.832   6.254  48.629  1.00  0.00     0.046 A 
HETATM    3  C10 UNL     1      24.768   7.253  48.434  1.00  0.00     0.071 C 
HETATM    4  N3  UNL     1      27.085   6.459  48.191  1.00  0.00    -0.246 NA
HETATM    5  C11 UNL     1      28.082   5.586  48.359  1.00  0.00     0.235 A 
HETATM    6  N4  UNL     1      27.821   4.430  49.009  1.00  0.00    -0.224 NA
HETATM    7  C12 UNL     1      26.561   4.188  49.468  1.00  0.00     0.137 A 
ENDROOT
BRANCH   1   8
HETATM    8  C7  UNL     1      24.271   4.659  49.806  1.00  0.00     0.065 C 
HETATM    9  C6  UNL     1      23.639   5.121  50.871  1.00  0.00     0.184 C 
HETATM   10  F1  UNL     1      24.132   6.129  51.631  1.00  0.00    -0.200 F 
BRANCH   9  11
HETATM   11  C5  UNL     1      22.358   4.547  51.261  1.00  0.00     0.283 C 
HETATM   12  N2  UNL     1      22.186   3.361  52.022  1.00  0.00    -0.328 N 
HETATM   13  C4  UNL     1      23.005   2.361  52.654  1.00  0.00     0.144 C 
HETATM   14  C16 UNL     1      20.780   3.083  52.228  1.00  0.00     0.261 C 
HETATM   15  C3  UNL     1      22.581   1.004  52.152  1.00  0.00     0.133 C 
HETATM   16  N1  UNL     1      21.217   0.781  52.530  1.00  0.00    -0.233 NA
HETATM   17  N6  UNL     1      20.527   1.889  52.949  1.00  0.00    -0.337 N 
HETATM   18  H21 UNL     1      20.509   1.953  53.973  1.00  0.00     0.176 HD
HETATM   19  O1  UNL     1      21.499   5.328  50.777  1.00  0.00    -0.265 OA
BRANCH  16  20
HETATM   20  C2  UNL     1      21.031  -0.318  53.433  1.00  0.00     0.109 C 
HETATM   21  C1  UNL     1      22.264  -1.203  53.510  1.00  0.00     0.022 C 
ENDBRANCH  16  20
ENDBRANCH   9  11
ENDBRANCH   1   8
BRANCH   7  22
HETATM   22  N5  UNL     1      26.438   2.910  50.128  1.00  0.00    -0.370 N 
HETATM   23  H15 UNL     1      26.137   2.143  49.498  1.00  0.00     0.161 HD
BRANCH  22  24
HETATM   24  C13 UNL     1      26.676   2.594  51.501  1.00  0.00     0.150 C 
BRANCH  24  25
HETATM   25  C14 UNL     1      26.526   1.123  51.746  1.00  0.00     0.024 C 
HETATM   26  C15 UNL     1      27.264   0.386  52.575  1.00  0.00     0.078 C 
HETATM   27 CL1  UNL     1      28.491   1.355  53.391  1.00  0.00    -0.076 Cl
HETATM   28 BR1  UNL     1      26.726  -1.467  52.582  1.00  0.00    -0.038 Br
ENDBRANCH  24  25
ENDBRANCH  22  24
ENDBRANCH   7  22
TORSDOF 6
ENDMDL
MODEL 9
REMARK VINA RESULT:      -7.1      3.254      3.911
REMARK  6 active torsions:
REMARK  status: ('A' for Active; 'I' for Inactive)
REMARK    1  A    between atoms: C2_2  and  N1_3 
REMARK       I    between atoms: N2_6  and  C5_7 
REMARK    2  A    between atoms: C5_7  and  C6_9 
REMARK    3  A    between atoms: C7_11  and  C8_12 
REMARK    4  A    between atoms: C12_18  and  N5_19 
REMARK    5  A    between atoms: N5_19  and  C13_20 
REMARK    6  A    between atoms: C13_20  and  C14_21 
ROOT
HETATM    1  C8  UNL     1      22.515   3.629  50.283  1.00  0.00     0.037 A 
HETATM    2  C9  UNL     1      21.289   4.203  50.247  1.00  0.00     0.046 A 
HETATM    3  C10 UNL     1      20.265   3.735  51.195  1.00  0.00     0.071 C 
HETATM    4  N3  UNL     1      21.043   5.186  49.366  1.00  0.00    -0.246 NA
HETATM    5  C11 UNL     1      21.946   5.649  48.498  1.00  0.00     0.235 A 
HETATM    6  N4  UNL     1      23.182   5.103  48.505  1.00  0.00    -0.224 NA
HETATM    7  C12 UNL     1      23.469   4.102  49.386  1.00  0.00     0.137 A 
ENDROOT
BRANCH   1   8
HETATM    8  C7  UNL     1      22.994   2.552  51.104  1.00  0.00     0.065 C 
HETATM    9  C6  UNL     1      23.486   2.640  52.328  1.00  0.00     0.184 C 
HETATM   10  F1  UNL     1      23.596   3.819  52.987  1.00  0.00    -0.200 F 
BRANCH   9  11
HETATM   11  C5  UNL     1      23.928   1.437  53.020  1.00  0.00     0.283 C 
HETATM   12  N2  UNL     1      25.239   1.206  53.513  1.00  0.00    -0.328 N 
HETATM   13  C4  UNL     1      26.503   1.892  53.569  1.00  0.00     0.144 C 
HETATM   14  C16 UNL     1      25.328  -0.091  54.148  1.00  0.00     0.261 C 
HETATM   15  C3  UNL     1      27.562   1.001  52.971  1.00  0.00     0.133 C 
HETATM   16  N1  UNL     1      27.656  -0.191  53.760  1.00  0.00    -0.233 NA
HETATM   17  N6  UNL     1      26.622  -0.411  54.633  1.00  0.00    -0.337 N 
HETATM   18  H21 UNL     1      26.859  -0.098  55.580  1.00  0.00     0.176 HD
HETATM   19  O1  UNL     1      22.908   0.703  53.064  1.00  0.00    -0.265 OA
BRANCH  16  20
HETATM   20  C2  UNL     1      28.925  -0.369  54.405  1.00  0.00     0.109 C 
HETATM   21  C1  UNL     1      30.081  -0.218  53.430  1.00  0.00     0.022 C 
ENDBRANCH  16  20
ENDBRANCH   9  11
ENDBRANCH   1   8
BRANCH   7  22
HETATM   22  N5  UNL     1      24.822   3.615  49.262  1.00  0.00    -0.370 N 
HETATM   23  H15 UNL     1      24.913   2.794  48.635  1.00  0.00     0.161 HD
BRANCH  22  24
HETATM   24  C13 UNL     1      26.007   4.118  49.883  1.00  0.00     0.150 C 
BRANCH  24  25
HETATM   25  C14 UNL     1      26.703   5.101  48.991  1.00  0.00     0.024 C 
HETATM   26  C15 UNL     1      26.615   6.428  49.066  1.00  0.00     0.078 C 
HETATM   27 CL1  UNL     1      25.549   6.937  50.377  1.00  0.00    -0.076 Cl
HETATM   28 BR1  UNL     1      27.680   7.309  47.720  1.00  0.00    -0.038 Br
ENDBRANCH  24  25
ENDBRANCH  22  24
ENDBRANCH   7  22
TORSDOF 6
ENDMDL
