MODEL 1
REMARK VINA RESULT:      -8.1      0.000      0.000
REMARK  5 active torsions:
REMARK  status: ('A' for Active; 'I' for Inactive)
REMARK    1  A    between atoms: C2_2  and  O1_3 
REMARK    2  A    between atoms: O1_3  and  C3_4 
REMARK    3  A    between atoms: C5_6  and  N1_7 
REMARK    4  A    between atoms: N1_7  and  C6_8 
REMARK    5  A    between atoms: C15_21  and  C16_22 
ROOT
HETATM    1  C3  UNL     1      23.494   2.204  51.395  1.00  0.00     0.184 C 
HETATM    2  C4  UNL     1      22.938   3.288  50.535  1.00  0.00     0.002 C 
HETATM    3  C5  UNL     1      23.464   4.144  49.678  1.00  0.00     0.133 C 
HETATM    4  N2  UNL     1      22.997   4.300  48.299  1.00  0.00    -0.242 NA
HETATM    5  C12 UNL     1      21.980   3.450  48.023  1.00  0.00     0.128 C 
HETATM    6  C13 UNL     1      21.513   2.567  49.151  1.00  0.00    -0.015 C 
HETATM    7  C14 UNL     1      21.383   1.249  49.141  1.00  0.00     0.144 C 
HETATM    8  O2  UNL     1      21.886   0.572  50.283  1.00  0.00    -0.354 OA
HETATM    9  C15 UNL     1      22.694   0.958  51.357  1.00  0.00     0.165 C 
HETATM   10  C21 UNL     1      21.373   3.374  50.483  1.00  0.00     0.082 C 
ENDROOT
BRANCH   3  11
HETATM   11  N1  UNL     1      24.548   4.705  50.375  1.00  0.00    -0.338 N 
HETATM   12  H7  UNL     1      24.766   5.026  51.318  1.00  0.00     0.167 HD
BRANCH  11  13
HETATM   13  C6  UNL     1      25.769   4.994  49.677  1.00  0.00     0.072 A 
HETATM   14  C7  UNL     1      25.793   6.392  49.546  1.00  0.00     0.034 A 
HETATM   15  C8  UNL     1      26.856   7.046  48.909  1.00  0.00     0.021 A 
HETATM   16  C9  UNL     1      27.899   6.304  48.401  1.00  0.00     0.014 A 
HETATM   17 BR1  UNL     1      29.438   6.969  47.503  1.00  0.00    -0.051 Br
HETATM   18  C10 UNL     1      27.855   4.938  48.540  1.00  0.00     0.063 A 
HETATM   19  C11 UNL     1      26.816   4.284  49.163  1.00  0.00     0.144 A 
HETATM   20  F1  UNL     1      26.650   2.973  49.368  1.00  0.00    -0.204 F 
ENDBRANCH  11  13
ENDBRANCH   3  11
BRANCH   1  21
HETATM   21  O1  UNL     1      23.461   2.721  52.684  1.00  0.00    -0.379 OA
BRANCH  21  22
HETATM   22  C2  UNL     1      24.686   2.937  53.261  1.00  0.00     0.164 C 
HETATM   23  C1  UNL     1      25.782   2.066  52.657  1.00  0.00     0.033 C 
ENDBRANCH  21  22
ENDBRANCH   1  21
BRANCH   9  24
HETATM   24  C16 UNL     1      21.982   0.623  52.656  1.00  0.00     0.021 C 
HETATM   25  C17 UNL     1      22.728  -0.360  53.512  1.00  0.00     0.037 C 
HETATM   26  C18 UNL     1      21.802  -1.539  53.849  1.00  0.00     0.270 C 
HETATM   27  N3  UNL     1      20.596  -1.114  54.476  1.00  0.00     0.083 N 
HETATM   28  C19 UNL     1      19.886  -0.151  53.687  1.00  0.00     0.270 C 
HETATM   29  H19 UNL     1      19.986  -1.980  54.578  1.00  0.00     0.315 HD
HETATM   30  C20 UNL     1      20.609   0.067  52.385  1.00  0.00     0.037 C 
ENDBRANCH   9  24
TORSDOF 5
ENDMDL
MODEL 2
REMARK VINA RESULT:      -8.1      3.517      5.054
REMARK  5 active torsions:
REMARK  status: ('A' for Active; 'I' for Inactive)
REMARK    1  A    between atoms: C2_2  and  O1_3 
REMARK    2  A    between atoms: O1_3  and  C3_4 
REMARK    3  A    between atoms: C5_6  and  N1_7 
REMARK    4  A    between atoms: N1_7  and  C6_8 
REMARK    5  A    between atoms: C15_21  and  C16_22 
ROOT
HETATM    1  C3  UNL     1      21.351   0.393  52.335  1.00  0.00     0.184 C 
HETATM    2  C4  UNL     1      22.245   1.557  52.067  1.00  0.00     0.002 C 
HETATM    3  C5  UNL     1      23.555   1.723  52.034  1.00  0.00     0.133 C 
HETATM    4  N2  UNL     1      24.268   2.299  50.893  1.00  0.00    -0.242 NA
HETATM    5  C12 UNL     1      23.418   2.619  49.888  1.00  0.00     0.128 C 
HETATM    6  C13 UNL     1      21.954   2.369  50.138  1.00  0.00    -0.015 C 
HETATM    7  C14 UNL     1      21.114   1.681  49.380  1.00  0.00     0.144 C 
HETATM    8  O2  UNL     1      20.258   0.782  50.068  1.00  0.00    -0.354 OA
HETATM    9  C15 UNL     1      20.230   0.284  51.375  1.00  0.00     0.165 C 
HETATM   10  C21 UNL     1      21.529   2.857  51.561  1.00  0.00     0.082 C 
ENDROOT
BRANCH   3  11
HETATM   11  N1  UNL     1      24.005   1.142  53.231  1.00  0.00    -0.338 N 
HETATM   12  H7  UNL     1      23.625   0.862  54.135  1.00  0.00     0.167 HD
BRANCH  11  13
HETATM   13  C6  UNL     1      25.396   0.817  53.385  1.00  0.00     0.072 A 
HETATM   14  C7  UNL     1      25.511  -0.512  52.945  1.00  0.00     0.034 A 
HETATM   15  C8  UNL     1      26.746  -1.175  52.946  1.00  0.00     0.021 A 
HETATM   16  C9  UNL     1      27.869  -0.511  53.387  1.00  0.00     0.014 A 
HETATM   17 BR1  UNL     1      29.638  -1.203  53.478  1.00  0.00    -0.051 Br
HETATM   18  C10 UNL     1      27.733   0.788  53.813  1.00  0.00     0.063 A 
HETATM   19  C11 UNL     1      26.526   1.450  53.816  1.00  0.00     0.144 A 
HETATM   20  F1  UNL     1      26.255   2.703  54.197  1.00  0.00    -0.204 F 
ENDBRANCH  11  13
ENDBRANCH   3  11
BRANCH   1  21
HETATM   21  O1  UNL     1      20.836   0.626  53.604  1.00  0.00    -0.379 OA
BRANCH  21  22
HETATM   22  C2  UNL     1      21.335  -0.178  54.597  1.00  0.00     0.164 C 
HETATM   23  C1  UNL     1      21.494  -1.628  54.153  1.00  0.00     0.033 C 
ENDBRANCH  21  22
ENDBRANCH   1  21
BRANCH   9  24
HETATM   24  C16 UNL     1      18.857   0.543  51.972  1.00  0.00     0.021 C 
HETATM   25  C17 UNL     1      18.127  -0.709  52.363  1.00  0.00     0.037 C 
HETATM   26  C18 UNL     1      16.745  -0.718  51.690  1.00  0.00     0.270 C 
HETATM   27  N3  UNL     1      15.987   0.446  52.005  1.00  0.00     0.083 N 
HETATM   28  C19 UNL     1      16.682   1.653  51.667  1.00  0.00     0.270 C 
HETATM   29  H19 UNL     1      15.099   0.395  51.420  1.00  0.00     0.315 HD
HETATM   30  C20 UNL     1      17.992   1.314  51.009  1.00  0.00     0.037 C 
ENDBRANCH   9  24
TORSDOF 5
ENDMDL
MODEL 3
REMARK VINA RESULT:      -7.6      1.258      1.548
REMARK  5 active torsions:
REMARK  status: ('A' for Active; 'I' for Inactive)
REMARK    1  A    between atoms: C2_2  and  O1_3 
REMARK    2  A    between atoms: O1_3  and  C3_4 
REMARK    3  A    between atoms: C5_6  and  N1_7 
REMARK    4  A    between atoms: N1_7  and  C6_8 
REMARK    5  A    between atoms: C15_21  and  C16_22 
ROOT
HETATM    1  C3  UNL     1      22.927   2.653  50.999  1.00  0.00     0.184 C 
HETATM    2  C4  UNL     1      22.337   3.520  49.938  1.00  0.00     0.002 C 
HETATM    3  C5  UNL     1      22.838   4.366  49.057  1.00  0.00     0.133 C 
HETATM    4  N2  UNL     1      22.572   4.289  47.619  1.00  0.00    -0.242 NA
HETATM    5  C12 UNL     1      21.768   3.241  47.321  1.00  0.00     0.128 C 
HETATM    6  C13 UNL     1      21.287   2.408  48.481  1.00  0.00    -0.015 C 
HETATM    7  C14 UNL     1      21.384   1.095  48.624  1.00  0.00     0.144 C 
HETATM    8  O2  UNL     1      21.809   0.645  49.901  1.00  0.00    -0.354 OA
HETATM    9  C15 UNL     1      22.365   1.283  51.015  1.00  0.00     0.165 C 
HETATM   10  C21 UNL     1      20.807   3.308  49.665  1.00  0.00     0.082 C 
ENDROOT
BRANCH   3  11
HETATM   11  N1  UNL     1      23.690   5.187  49.815  1.00  0.00    -0.338 N 
HETATM   12  H7  UNL     1      23.674   5.695  50.699  1.00  0.00     0.167 HD
BRANCH  11  13
HETATM   13  C6  UNL     1      24.992   5.521  49.308  1.00  0.00     0.072 A 
HETATM   14  C7  UNL     1      25.779   4.382  49.547  1.00  0.00     0.034 A 
HETATM   15  C8  UNL     1      27.129   4.339  49.174  1.00  0.00     0.021 A 
HETATM   16  C9  UNL     1      27.697   5.434  48.562  1.00  0.00     0.014 A 
HETATM   17 BR1  UNL     1      29.497   5.603  47.973  1.00  0.00    -0.051 Br
HETATM   18  C10 UNL     1      26.909   6.537  48.339  1.00  0.00     0.063 A 
HETATM   19  C11 UNL     1      25.581   6.592  48.700  1.00  0.00     0.144 A 
HETATM   20  F1  UNL     1      24.706   7.590  48.540  1.00  0.00    -0.204 F 
ENDBRANCH  11  13
ENDBRANCH   3  11
BRANCH   1  21
HETATM   21  O1  UNL     1      22.608   3.285  52.193  1.00  0.00    -0.379 OA
BRANCH  21  22
HETATM   22  C2  UNL     1      23.661   3.868  52.850  1.00  0.00     0.164 C 
HETATM   23  C1  UNL     1      24.768   2.874  53.180  1.00  0.00     0.033 C 
ENDBRANCH  21  22
ENDBRANCH   1  21
BRANCH   9  24
HETATM   24  C16 UNL     1      21.526   0.958  52.239  1.00  0.00     0.021 C 
HETATM   25  C17 UNL     1      22.272   0.187  53.289  1.00  0.00     0.037 C 
HETATM   26  C18 UNL     1      21.487  -1.089  53.631  1.00  0.00     0.270 C 
HETATM   27  N3  UNL     1      20.153  -0.806  54.044  1.00  0.00     0.083 N 
HETATM   28  C19 UNL     1      19.435  -0.042  53.066  1.00  0.00     0.270 C 
HETATM   29  H19 UNL     1      19.667  -1.744  54.160  1.00  0.00     0.315 HD
HETATM   30  C20 UNL     1      20.302   0.170  51.854  1.00  0.00     0.037 C 
ENDBRANCH   9  24
TORSDOF 5
ENDMDL
MODEL 4
REMARK VINA RESULT:      -7.6      4.279      6.783
REMARK  5 active torsions:
REMARK  status: ('A' for Active; 'I' for Inactive)
REMARK    1  A    between atoms: C2_2  and  O1_3 
REMARK    2  A    between atoms: O1_3  and  C3_4 
REMARK    3  A    between atoms: C5_6  and  N1_7 
REMARK    4  A    between atoms: N1_7  and  C6_8 
REMARK    5  A    between atoms: C15_21  and  C16_22 
ROOT
HETATM    1  C3  UNL     1      22.931   1.798  53.045  1.00  0.00     0.184 C 
HETATM    2  C4  UNL     1      22.328   2.228  51.751  1.00  0.00     0.002 C 
HETATM    3  C5  UNL     1      21.308   2.999  51.423  1.00  0.00     0.133 C 
HETATM    4  N2  UNL     1      21.413   4.134  50.504  1.00  0.00    -0.242 NA
HETATM    5  C12 UNL     1      22.682   4.291  50.056  1.00  0.00     0.128 C 
HETATM    6  C13 UNL     1      23.696   3.286  50.537  1.00  0.00    -0.015 C 
HETATM    7  C14 UNL     1      24.860   3.533  51.118  1.00  0.00     0.144 C 
HETATM    8  O2  UNL     1      25.162   2.739  52.255  1.00  0.00    -0.354 OA
HETATM    9  C15 UNL     1      24.410   1.872  53.055  1.00  0.00     0.165 C 
HETATM   10  C21 UNL     1      23.132   1.830  50.465  1.00  0.00     0.082 C 
ENDROOT
BRANCH   3  11
HETATM   11  N1  UNL     1      20.250   2.526  52.218  1.00  0.00    -0.338 N 
HETATM   12  H7  UNL     1      19.964   2.540  53.197  1.00  0.00     0.167 HD
BRANCH  11  13
HETATM   13  C6  UNL     1      19.200   1.752  51.616  1.00  0.00     0.072 A 
HETATM   14  C7  UNL     1      18.105   2.628  51.528  1.00  0.00     0.034 A 
HETATM   15  C8  UNL     1      16.884   2.214  50.979  1.00  0.00     0.021 A 
HETATM   16  C9  UNL     1      16.754   0.923  50.517  1.00  0.00     0.014 A 
HETATM   17 BR1  UNL     1      15.203   0.144  49.738  1.00  0.00    -0.051 Br
HETATM   18  C10 UNL     1      17.837   0.084  50.613  1.00  0.00     0.063 A 
HETATM   19  C11 UNL     1      19.042   0.478  51.150  1.00  0.00     0.144 A 
HETATM   20  F1  UNL     1      20.167  -0.228  51.300  1.00  0.00    -0.204 F 
ENDBRANCH  11  13
ENDBRANCH   3  11
BRANCH   1  21
HETATM   21  O1  UNL     1      22.546   0.471  53.193  1.00  0.00    -0.379 OA
BRANCH  21  22
HETATM   22  C2  UNL     1      21.675   0.224  54.223  1.00  0.00     0.164 C 
HETATM   23  C1  UNL     1      21.640  -1.248  54.619  1.00  0.00     0.033 C 
ENDBRANCH  21  22
ENDBRANCH   1  21
BRANCH   9  24
HETATM   24  C16 UNL     1      25.112   0.526  53.118  1.00  0.00     0.021 C 
HETATM   25  C17 UNL     1      25.709   0.224  54.462  1.00  0.00     0.037 C 
HETATM   26  C18 UNL     1      27.197  -0.118  54.287  1.00  0.00     0.270 C 
HETATM   27  N3  UNL     1      27.398  -1.193  53.376  1.00  0.00     0.083 N 
HETATM   28  C19 UNL     1      26.807  -0.936  52.096  1.00  0.00     0.270 C 
HETATM   29  H19 UNL     1      28.450  -1.287  53.246  1.00  0.00     0.315 HD
HETATM   30  C20 UNL     1      26.205   0.444  52.085  1.00  0.00     0.037 C 
ENDBRANCH   9  24
TORSDOF 5
ENDMDL
MODEL 5
REMARK VINA RESULT:      -7.3      3.121      4.732
REMARK  5 active torsions:
REMARK  status: ('A' for Active; 'I' for Inactive)
REMARK    1  A    between atoms: C2_2  and  O1_3 
REMARK    2  A    between atoms: O1_3  and  C3_4 
REMARK    3  A    between atoms: C5_6  and  N1_7 
REMARK    4  A    between atoms: N1_7  and  C6_8 
REMARK    5  A    between atoms: C15_21  and  C16_22 
ROOT
HETATM    1  C3  UNL     1      24.636   2.433  50.794  1.00  0.00     0.184 C 
HETATM    2  C4  UNL     1      23.726   3.523  51.252  1.00  0.00     0.002 C 
HETATM    3  C5  UNL     1      22.868   4.322  50.645  1.00  0.00     0.133 C 
HETATM    4  N2  UNL     1      21.468   4.464  51.050  1.00  0.00    -0.242 NA
HETATM    5  C12 UNL     1      21.175   3.666  52.104  1.00  0.00     0.128 C 
HETATM    6  C13 UNL     1      22.307   2.844  52.664  1.00  0.00    -0.015 C 
HETATM    7  C14 UNL     1      22.327   1.537  52.870  1.00  0.00     0.144 C 
HETATM    8  O2  UNL     1      23.505   0.865  52.452  1.00  0.00    -0.354 OA
HETATM    9  C15 UNL     1      24.599   1.235  51.663  1.00  0.00     0.165 C 
HETATM   10  C21 UNL     1      23.610   3.696  52.807  1.00  0.00     0.082 C 
ENDROOT
BRANCH   3  11
HETATM   11  N1  UNL     1      23.592   4.839  49.558  1.00  0.00    -0.338 N 
HETATM   12  H7  UNL     1      24.510   5.244  49.374  1.00  0.00     0.167 HD
BRANCH  11  13
HETATM   13  C6  UNL     1      22.976   4.910  48.262  1.00  0.00     0.072 A 
HETATM   14  C7  UNL     1      22.581   3.593  47.974  1.00  0.00     0.034 A 
HETATM   15  C8  UNL     1      21.931   3.274  46.774  1.00  0.00     0.021 A 
HETATM   16  C9  UNL     1      21.674   4.270  45.859  1.00  0.00     0.014 A 
HETATM   17 BR1  UNL     1      20.810   4.075  44.176  1.00  0.00    -0.051 Br
HETATM   18  C10 UNL     1      22.068   5.551  46.162  1.00  0.00     0.063 A 
HETATM   19  C11 UNL     1      22.708   5.877  47.337  1.00  0.00     0.144 A 
HETATM   20  F1  UNL     1      23.139   7.071  47.756  1.00  0.00    -0.204 F 
ENDBRANCH  11  13
ENDBRANCH   3  11
BRANCH   1  21
HETATM   21  O1  UNL     1      25.908   2.988  50.845  1.00  0.00    -0.379 OA
BRANCH  21  22
HETATM   22  C2  UNL     1      26.597   2.990  49.659  1.00  0.00     0.164 C 
HETATM   23  C1  UNL     1      26.924   4.397  49.173  1.00  0.00     0.033 C 
ENDBRANCH  21  22
ENDBRANCH   1  21
BRANCH   9  24
HETATM   24  C16 UNL     1      25.878   0.979  52.442  1.00  0.00     0.021 C 
HETATM   25  C17 UNL     1      26.705  -0.143  51.885  1.00  0.00     0.037 C 
HETATM   26  C18 UNL     1      26.989  -1.162  53.000  1.00  0.00     0.270 C 
HETATM   27  N3  UNL     1      27.619  -0.563  54.128  1.00  0.00     0.083 N 
HETATM   28  C19 UNL     1      26.859   0.532  54.654  1.00  0.00     0.270 C 
HETATM   29  H19 UNL     1      27.682  -1.318  54.875  1.00  0.00     0.315 HD
HETATM   30  C20 UNL     1      25.573   0.671  53.884  1.00  0.00     0.037 C 
ENDBRANCH   9  24
TORSDOF 5
ENDMDL
MODEL 6
REMARK VINA RESULT:      -7.3      3.375      5.769
REMARK  5 active torsions:
REMARK  status: ('A' for Active; 'I' for Inactive)
REMARK    1  A    between atoms: C2_2  and  O1_3 
REMARK    2  A    between atoms: O1_3  and  C3_4 
REMARK    3  A    between atoms: C5_6  and  N1_7 
REMARK    4  A    between atoms: N1_7  and  C6_8 
REMARK    5  A    between atoms: C15_21  and  C16_22 
ROOT
HETATM    1  C3  UNL     1      22.275   2.429  52.048  1.00  0.00     0.184 C 
HETATM    2  C4  UNL     1      22.693   1.033  52.365  1.00  0.00     0.002 C 
HETATM    3  C5  UNL     1      23.707   0.503  53.023  1.00  0.00     0.133 C 
HETATM    4  N2  UNL     1      23.549  -0.451  54.123  1.00  0.00    -0.242 NA
HETATM    5  C12 UNL     1      22.242  -0.700  54.377  1.00  0.00     0.128 C 
HETATM    6  C13 UNL     1      21.238  -0.006  53.492  1.00  0.00    -0.015 C 
HETATM    7  C14 UNL     1      20.210   0.737  53.871  1.00  0.00     0.144 C 
HETATM    8  O2  UNL     1      20.033   1.951  53.157  1.00  0.00    -0.354 OA
HETATM    9  C15 UNL     1      20.829   2.670  52.260  1.00  0.00     0.165 C 
HETATM   10  C21 UNL     1      21.658  -0.084  51.989  1.00  0.00     0.082 C 
ENDROOT
BRANCH   3  11
HETATM   11  N1  UNL     1      24.837   1.145  52.488  1.00  0.00    -0.338 N 
HETATM   12  H7  UNL     1      25.051   1.873  51.806  1.00  0.00     0.167 HD
BRANCH  11  13
HETATM   13  C6  UNL     1      26.149   0.743  52.911  1.00  0.00     0.072 A 
HETATM   14  C7  UNL     1      26.283  -0.585  52.473  1.00  0.00     0.034 A 
HETATM   15  C8  UNL     1      27.457  -1.314  52.707  1.00  0.00     0.021 A 
HETATM   16  C9  UNL     1      28.500  -0.718  53.380  1.00  0.00     0.014 A 
HETATM   17 BR1  UNL     1      30.176  -1.506  53.809  1.00  0.00    -0.051 Br
HETATM   18  C10 UNL     1      28.347   0.582  53.799  1.00  0.00     0.063 A 
HETATM   19  C11 UNL     1      27.200   1.308  53.575  1.00  0.00     0.144 A 
HETATM   20  F1  UNL     1      26.922   2.570  53.921  1.00  0.00    -0.204 F 
ENDBRANCH  11  13
ENDBRANCH   3  11
BRANCH   1  21
HETATM   21  O1  UNL     1      22.565   2.589  50.699  1.00  0.00    -0.379 OA
BRANCH  21  22
HETATM   22  C2  UNL     1      23.362   3.662  50.393  1.00  0.00     0.164 C 
HETATM   23  C1  UNL     1      24.606   3.264  49.608  1.00  0.00     0.033 C 
ENDBRANCH  21  22
ENDBRANCH   1  21
BRANCH   9  24
HETATM   24  C16 UNL     1      20.036   2.921  50.989  1.00  0.00     0.021 C 
HETATM   25  C17 UNL     1      19.546   4.334  50.857  1.00  0.00     0.037 C 
HETATM   26  C18 UNL     1      18.027   4.322  50.629  1.00  0.00     0.270 C 
HETATM   27  N3  UNL     1      17.659   3.537  49.498  1.00  0.00     0.083 N 
HETATM   28  C19 UNL     1      18.146   2.192  49.591  1.00  0.00     0.270 C 
HETATM   29  H19 UNL     1      16.596   3.508  49.482  1.00  0.00     0.315 HD
HETATM   30  C20 UNL     1      18.848   1.999  50.909  1.00  0.00     0.037 C 
ENDBRANCH   9  24
TORSDOF 5
ENDMDL
MODEL 7
REMARK VINA RESULT:      -7.3      2.762      3.953
REMARK  5 active torsions:
REMARK  status: ('A' for Active; 'I' for Inactive)
REMARK    1  A    between atoms: C2_2  and  O1_3 
REMARK    2  A    between atoms: O1_3  and  C3_4 
REMARK    3  A    between atoms: C5_6  and  N1_7 
REMARK    4  A    between atoms: N1_7  and  C6_8 
REMARK    5  A    between atoms: C15_21  and  C16_22 
ROOT
HETATM    1  C3  UNL     1      24.637   2.559  50.665  1.00  0.00     0.184 C 
HETATM    2  C4  UNL     1      23.773   3.712  51.052  1.00  0.00     0.002 C 
HETATM    3  C5  UNL     1      22.980   4.531  50.386  1.00  0.00     0.133 C 
HETATM    4  N2  UNL     1      21.578   4.763  50.736  1.00  0.00    -0.242 NA
HETATM    5  C12 UNL     1      21.207   4.023  51.808  1.00  0.00     0.128 C 
HETATM    6  C13 UNL     1      22.275   3.166  52.438  1.00  0.00    -0.015 C 
HETATM    7  C14 UNL     1      22.217   1.867  52.693  1.00  0.00     0.144 C 
HETATM    8  O2  UNL     1      23.370   1.119  52.340  1.00  0.00    -0.354 OA
HETATM    9  C15 UNL     1      24.508   1.399  51.577  1.00  0.00     0.165 C 
HETATM   10  C21 UNL     1      23.616   3.952  52.593  1.00  0.00     0.082 C 
ENDROOT
BRANCH   3  11
HETATM   11  N1  UNL     1      23.766   4.967  49.306  1.00  0.00    -0.338 N 
HETATM   12  H7  UNL     1      24.248   4.567  48.501  1.00  0.00     0.167 HD
BRANCH  11  13
HETATM   13  C6  UNL     1      24.094   6.360  49.182  1.00  0.00     0.072 A 
HETATM   14  C7  UNL     1      23.789   6.690  47.851  1.00  0.00     0.034 A 
HETATM   15  C8  UNL     1      23.980   7.989  47.360  1.00  0.00     0.021 A 
HETATM   16  C9  UNL     1      24.476   8.962  48.199  1.00  0.00     0.014 A 
HETATM   17 BR1  UNL     1      24.815  10.780  47.757  1.00  0.00    -0.051 Br
HETATM   18  C10 UNL     1      24.768   8.617  49.496  1.00  0.00     0.063 A 
HETATM   19  C11 UNL     1      24.585   7.345  49.990  1.00  0.00     0.144 A 
HETATM   20  F1  UNL     1      24.821   6.878  51.221  1.00  0.00    -0.204 F 
ENDBRANCH  11  13
ENDBRANCH   3  11
BRANCH   1  21
HETATM   21  O1  UNL     1      25.935   3.048  50.740  1.00  0.00    -0.379 OA
BRANCH  21  22
HETATM   22  C2  UNL     1      26.640   3.024  49.564  1.00  0.00     0.164 C 
HETATM   23  C1  UNL     1      27.118   4.407  49.138  1.00  0.00     0.033 C 
ENDBRANCH  21  22
ENDBRANCH   1  21
BRANCH   9  24
HETATM   24  C16 UNL     1      25.745   1.107  52.408  1.00  0.00     0.021 C 
HETATM   25  C17 UNL     1      26.571  -0.028  51.875  1.00  0.00     0.037 C 
HETATM   26  C18 UNL     1      26.783  -1.065  52.989  1.00  0.00     0.270 C 
HETATM   27  N3  UNL     1      27.375  -0.492  54.151  1.00  0.00     0.083 N 
HETATM   28  C19 UNL     1      26.616   0.613  54.656  1.00  0.00     0.270 C 
HETATM   29  H19 UNL     1      27.388  -1.256  54.892  1.00  0.00     0.315 HD
HETATM   30  C20 UNL     1      25.369   0.790  53.832  1.00  0.00     0.037 C 
ENDBRANCH   9  24
TORSDOF 5
ENDMDL
MODEL 8
REMARK VINA RESULT:      -7.2      3.083      5.785
REMARK  5 active torsions:
REMARK  status: ('A' for Active; 'I' for Inactive)
REMARK    1  A    between atoms: C2_2  and  O1_3 
REMARK    2  A    between atoms: O1_3  and  C3_4 
REMARK    3  A    between atoms: C5_6  and  N1_7 
REMARK    4  A    between atoms: N1_7  and  C6_8 
REMARK    5  A    between atoms: C15_21  and  C16_22 
ROOT
HETATM    1  C3  UNL     1      22.359   3.115  51.540  1.00  0.00     0.184 C 
HETATM    2  C4  UNL     1      22.502   1.714  52.032  1.00  0.00     0.002 C 
HETATM    3  C5  UNL     1      23.024   1.168  53.114  1.00  0.00     0.133 C 
HETATM    4  N2  UNL     1      22.295   0.249  53.989  1.00  0.00    -0.242 NA
HETATM    5  C12 UNL     1      21.029   0.050  53.552  1.00  0.00     0.128 C 
HETATM    6  C13 UNL     1      20.637   0.753  52.278  1.00  0.00    -0.015 C 
HETATM    7  C14 UNL     1      19.589   1.539  52.083  1.00  0.00     0.144 C 
HETATM    8  O2  UNL     1      19.845   2.740  51.371  1.00  0.00    -0.354 OA
HETATM    9  C15 UNL     1      21.014   3.409  50.993  1.00  0.00     0.165 C 
HETATM   10  C21 UNL     1      21.752   0.623  51.192  1.00  0.00     0.082 C 
ENDROOT
BRANCH   3  11
HETATM   11  N1  UNL     1      24.295   1.759  53.218  1.00  0.00    -0.338 N 
HETATM   12  H7  UNL     1      24.702   2.693  53.267  1.00  0.00     0.167 HD
BRANCH  11  13
HETATM   13  C6  UNL     1      25.466   0.926  53.245  1.00  0.00     0.072 A 
HETATM   14  C7  UNL     1      26.521   1.792  53.576  1.00  0.00     0.034 A 
HETATM   15  C8  UNL     1      27.836   1.322  53.699  1.00  0.00     0.021 A 
HETATM   16  C9  UNL     1      28.099  -0.013  53.492  1.00  0.00     0.014 A 
HETATM   17 BR1  UNL     1      29.793  -0.870  53.604  1.00  0.00    -0.051 Br
HETATM   18  C10 UNL     1      27.052  -0.841  53.169  1.00  0.00     0.063 A 
HETATM   19  C11 UNL     1      25.756  -0.393  53.045  1.00  0.00     0.144 A 
HETATM   20  F1  UNL     1      24.652  -1.084  52.742  1.00  0.00    -0.204 F 
ENDBRANCH  11  13
ENDBRANCH   3  11
BRANCH   1  21
HETATM   21  O1  UNL     1      23.295   3.231  50.520  1.00  0.00    -0.379 OA
BRANCH  21  22
HETATM   22  C2  UNL     1      24.301   4.134  50.746  1.00  0.00     0.164 C 
HETATM   23  C1  UNL     1      25.675   3.587  50.378  1.00  0.00     0.033 C 
ENDBRANCH  21  22
ENDBRANCH   1  21
BRANCH   9  24
HETATM   24  C16 UNL     1      20.980   3.653  49.494  1.00  0.00     0.021 C 
HETATM   25  C17 UNL     1      20.737   5.088  49.126  1.00  0.00     0.037 C 
HETATM   26  C18 UNL     1      19.536   5.168  48.171  1.00  0.00     0.270 C 
HETATM   27  N3  UNL     1      19.715   4.358  47.013  1.00  0.00     0.083 N 
HETATM   28  C19 UNL     1      19.980   2.989  47.346  1.00  0.00     0.270 C 
HETATM   29  H19 UNL     1      18.802   4.401  46.469  1.00  0.00     0.315 HD
HETATM   30  C20 UNL     1      19.917   2.811  48.839  1.00  0.00     0.037 C 
ENDBRANCH   9  24
TORSDOF 5
ENDMDL
MODEL 9
REMARK VINA RESULT:      -6.9      2.418      3.742
REMARK  5 active torsions:
REMARK  status: ('A' for Active; 'I' for Inactive)
REMARK    1  A    between atoms: C2_2  and  O1_3 
REMARK    2  A    between atoms: O1_3  and  C3_4 
REMARK    3  A    between atoms: C5_6  and  N1_7 
REMARK    4  A    between atoms: N1_7  and  C6_8 
REMARK    5  A    between atoms: C15_21  and  C16_22 
ROOT
HETATM    1  C3  UNL     1      21.346   3.532  51.976  1.00  0.00     0.184 C 
HETATM    2  C4  UNL     1      22.714   2.962  51.810  1.00  0.00     0.002 C 
HETATM    3  C5  UNL     1      23.922   3.347  52.181  1.00  0.00     0.133 C 
HETATM    4  N2  UNL     1      24.841   2.500  52.944  1.00  0.00    -0.242 NA
HETATM    5  C12 UNL     1      24.288   1.297  53.225  1.00  0.00     0.128 C 
HETATM    6  C13 UNL     1      22.902   1.050  52.689  1.00  0.00    -0.015 C 
HETATM    7  C14 UNL     1      21.835   0.656  53.367  1.00  0.00     0.144 C 
HETATM    8  O2  UNL     1      20.631   1.351  53.080  1.00  0.00    -0.354 OA
HETATM    9  C15 UNL     1      20.337   2.525  52.379  1.00  0.00     0.165 C 
HETATM   10  C21 UNL     1      22.776   1.518  51.203  1.00  0.00     0.082 C 
ENDROOT
BRANCH   3  11
HETATM   11  N1  UNL     1      23.996   4.688  51.770  1.00  0.00    -0.338 N 
HETATM   12  H7  UNL     1      23.543   5.578  51.979  1.00  0.00     0.167 HD
BRANCH  11  13
HETATM   13  C6  UNL     1      24.920   5.065  50.737  1.00  0.00     0.072 A 
HETATM   14  C7  UNL     1      24.948   6.469  50.766  1.00  0.00     0.034 A 
HETATM   15  C8  UNL     1      25.757   7.200  49.886  1.00  0.00     0.021 A 
HETATM   16  C9  UNL     1      26.540   6.529  48.973  1.00  0.00     0.014 A 
HETATM   17 BR1  UNL     1      27.708   7.305  47.688  1.00  0.00    -0.051 Br
HETATM   18  C10 UNL     1      26.497   5.156  48.961  1.00  0.00     0.063 A 
HETATM   19  C11 UNL     1      25.706   4.427  49.821  1.00  0.00     0.144 A 
HETATM   20  F1  UNL     1      25.572   3.100  49.919  1.00  0.00    -0.204 F 
ENDBRANCH  11  13
ENDBRANCH   3  11
BRANCH   1  21
HETATM   21  O1  UNL     1      21.012   4.025  50.721  1.00  0.00    -0.379 OA
BRANCH  21  22
HETATM   22  C2  UNL     1      20.930   5.391  50.630  1.00  0.00     0.164 C 
HETATM   23  C1  UNL     1      21.452   5.922  49.300  1.00  0.00     0.033 C 
ENDBRANCH  21  22
ENDBRANCH   1  21
BRANCH   9  24
HETATM   24  C16 UNL     1      19.290   2.220  51.322  1.00  0.00     0.021 C 
HETATM   25  C17 UNL     1      18.009   2.980  51.511  1.00  0.00     0.037 C 
HETATM   26  C18 UNL     1      16.835   1.988  51.549  1.00  0.00     0.270 C 
HETATM   27  N3  UNL     1      16.786   1.168  50.385  1.00  0.00     0.083 N 
HETATM   28  C19 UNL     1      18.013   0.459  50.171  1.00  0.00     0.270 C 
HETATM   29  H19 UNL     1      16.012   0.457  50.548  1.00  0.00     0.315 HD
HETATM   30  C20 UNL     1      18.968   0.749  51.298  1.00  0.00     0.037 C 
ENDBRANCH   9  24
TORSDOF 5
ENDMDL
