MODEL 1
REMARK VINA RESULT:      -6.8      0.000      0.000
REMARK  9 active torsions:
REMARK  status: ('A' for Active; 'I' for Inactive)
REMARK    1  A    between atoms: C3_3  and  C4_4 
REMARK    2  A    between atoms: C3_3  and  N2_9 
REMARK    3  A    between atoms: C4_4  and  C5_5 
REMARK    4  A    between atoms: C5_5  and  N1_6 
REMARK    5  A    between atoms: C8_10  and  C9_11 
REMARK    6  A    between atoms: C9_11  and  N3_12 
REMARK    7  A    between atoms: C11_14  and  C13_17 
REMARK    8  A    between atoms: C13_17  and  N5_18 
REMARK    9  A    between atoms: N5_18  and  C14_19 
ROOT
HETATM    1  N3  UNL     1      23.555   4.186  52.139  1.00  0.00     0.031 N 
HETATM    2  C10 UNL     1      24.094   3.063  52.807  1.00  0.00     0.287 A 
HETATM    3  C11 UNL     1      24.839   3.264  51.732  1.00  0.00     0.259 A 
HETATM    4  C12 UNL     1      24.447   4.375  50.914  1.00  0.00     0.276 A 
HETATM    5  N4  UNL     1      24.116   5.293  50.254  1.00  0.00    -0.123 N 
ENDROOT
BRANCH   1   6
HETATM    6  C9  UNL     1      22.275   4.407  52.292  1.00  0.00     0.232 C 
BRANCH   6   7
HETATM    7  C8  UNL     1      21.031   4.034  51.586  1.00  0.00     0.142 C 
HETATM    8  N2  UNL     1      20.473   2.948  51.157  1.00  0.00    -0.264 NA
BRANCH   8   9
HETATM    9  C3  UNL     1      21.067   1.664  51.310  1.00  0.00     0.032 C 
HETATM   10  C2  UNL     1      21.836   1.173  50.349  1.00  0.00    -0.004 C 
HETATM   11  C1  UNL     1      22.091   1.946  49.108  1.00  0.00     0.038 C 
BRANCH   9  12
HETATM   12  C4  UNL     1      20.805   0.893  52.560  1.00  0.00     0.089 C 
BRANCH  12  13
HETATM   13  C5  UNL     1      21.869  -0.179  52.648  1.00  0.00     0.277 C 
BRANCH  13  14
HETATM   14  N1  UNL     1      22.312  -0.410  53.990  1.00  0.00     0.080 N 
HETATM   15  C6  UNL     1      21.648  -1.600  54.491  1.00  0.00     0.309 C 
HETATM   16  C7  UNL     1      23.738  -0.632  53.975  1.00  0.00     0.309 C 
ENDBRANCH  13  14
ENDBRANCH  12  13
ENDBRANCH   9  12
ENDBRANCH   8   9
ENDBRANCH   6   7
ENDBRANCH   1   6
BRANCH   3  17
HETATM   17  C13 UNL     1      26.032   2.514  51.235  1.00  0.00     0.171 C 
BRANCH  17  18
HETATM   18  N5  UNL     1      27.002   2.538  52.319  1.00  0.00    -0.387 N 
HETATM   19  H20 UNL     1      27.302   3.405  52.832  1.00  0.00     0.159 HD
BRANCH  18  20
HETATM   20  C14 UNL     1      27.584   1.298  52.712  1.00  0.00     0.030 A 
HETATM   21  C15 UNL     1      28.792   1.319  53.397  1.00  0.00     0.029 A 
HETATM   22  C16 UNL     1      29.436   0.163  53.822  1.00  0.00     0.005 A 
HETATM   23  C17 UNL     1      28.817  -1.056  53.534  1.00  0.00     0.042 A 
HETATM   24  C18 UNL     1      27.623  -1.051  52.857  1.00  0.00     0.118 A 
HETATM   25  F1  UNL     1      27.006  -2.244  52.568  1.00  0.00    -0.206 F 
HETATM   26  C19 UNL     1      26.975   0.091  52.430  1.00  0.00     0.071 A 
ENDBRANCH  18  20
ENDBRANCH  17  18
ENDBRANCH   3  17
TORSDOF 9
ENDMDL
MODEL 2
REMARK VINA RESULT:      -6.7      2.225      4.963
REMARK  9 active torsions:
REMARK  status: ('A' for Active; 'I' for Inactive)
REMARK    1  A    between atoms: C3_3  and  C4_4 
REMARK    2  A    between atoms: C3_3  and  N2_9 
REMARK    3  A    between atoms: C4_4  and  C5_5 
REMARK    4  A    between atoms: C5_5  and  N1_6 
REMARK    5  A    between atoms: C8_10  and  C9_11 
REMARK    6  A    between atoms: C9_11  and  N3_12 
REMARK    7  A    between atoms: C11_14  and  C13_17 
REMARK    8  A    between atoms: C13_17  and  N5_18 
REMARK    9  A    between atoms: N5_18  and  C14_19 
ROOT
HETATM    1  N3  UNL     1      22.885   1.814  52.135  1.00  0.00     0.031 N 
HETATM    2  C10 UNL     1      22.791   0.405  52.193  1.00  0.00     0.287 A 
HETATM    3  C11 UNL     1      23.803   0.754  52.971  1.00  0.00     0.259 A 
HETATM    4  C12 UNL     1      24.060   2.164  53.045  1.00  0.00     0.276 A 
HETATM    5  N4  UNL     1      24.257   3.324  53.099  1.00  0.00    -0.123 N 
ENDROOT
BRANCH   1   6
HETATM    6  C9  UNL     1      22.469   2.389  51.036  1.00  0.00     0.232 C 
BRANCH   6   7
HETATM    7  C8  UNL     1      22.933   2.490  49.636  1.00  0.00     0.142 C 
HETATM    8  N2  UNL     1      23.679   3.287  48.940  1.00  0.00    -0.264 NA
BRANCH   8   9
HETATM    9  C3  UNL     1      24.309   4.435  49.495  1.00  0.00     0.032 C 
HETATM   10  C2  UNL     1      25.568   4.365  49.902  1.00  0.00    -0.004 C 
HETATM   11  C1  UNL     1      26.336   3.100  49.788  1.00  0.00     0.038 C 
BRANCH   9  12
HETATM   12  C4  UNL     1      23.531   5.702  49.607  1.00  0.00     0.089 C 
BRANCH  12  13
HETATM   13  C5  UNL     1      23.955   6.369  50.896  1.00  0.00     0.277 C 
BRANCH  13  14
HETATM   14  N1  UNL     1      24.059   7.792  50.776  1.00  0.00     0.080 N 
HETATM   15  C6  UNL     1      25.314   8.104  50.117  1.00  0.00     0.309 C 
HETATM   16  C7  UNL     1      22.965   8.269  49.966  1.00  0.00     0.309 C 
ENDBRANCH  13  14
ENDBRANCH  12  13
ENDBRANCH   9  12
ENDBRANCH   8   9
ENDBRANCH   6   7
ENDBRANCH   1   6
BRANCH   3  17
HETATM   17  C13 UNL     1      24.724  -0.091  53.789  1.00  0.00     0.171 C 
BRANCH  17  18
HETATM   18  N5  UNL     1      25.755  -0.561  52.875  1.00  0.00    -0.387 N 
HETATM   19  H20 UNL     1      25.574  -1.159  52.030  1.00  0.00     0.159 HD
BRANCH  18  20
HETATM   20  C14 UNL     1      27.101  -0.182  53.146  1.00  0.00     0.030 A 
HETATM   21  C15 UNL     1      28.071  -1.175  53.208  1.00  0.00     0.029 A 
HETATM   22  C16 UNL     1      29.409  -0.904  53.466  1.00  0.00     0.005 A 
HETATM   23  C17 UNL     1      29.763   0.432  53.668  1.00  0.00     0.042 A 
HETATM   24  C18 UNL     1      28.788   1.396  53.602  1.00  0.00     0.118 A 
HETATM   25  F1  UNL     1      29.125   2.712  53.799  1.00  0.00    -0.206 F 
HETATM   26  C19 UNL     1      27.455   1.137  53.346  1.00  0.00     0.071 A 
ENDBRANCH  18  20
ENDBRANCH  17  18
ENDBRANCH   3  17
TORSDOF 9
ENDMDL
MODEL 3
REMARK VINA RESULT:      -6.6      1.889      4.408
REMARK  9 active torsions:
REMARK  status: ('A' for Active; 'I' for Inactive)
REMARK    1  A    between atoms: C3_3  and  C4_4 
REMARK    2  A    between atoms: C3_3  and  N2_9 
REMARK    3  A    between atoms: C4_4  and  C5_5 
REMARK    4  A    between atoms: C5_5  and  N1_6 
REMARK    5  A    between atoms: C8_10  and  C9_11 
REMARK    6  A    between atoms: C9_11  and  N3_12 
REMARK    7  A    between atoms: C11_14  and  C13_17 
REMARK    8  A    between atoms: C13_17  and  N5_18 
REMARK    9  A    between atoms: N5_18  and  C14_19 
ROOT
HETATM    1  N3  UNL     1      22.501   0.082  52.558  1.00  0.00     0.031 N 
HETATM    2  C10 UNL     1      23.762   0.716  52.490  1.00  0.00     0.287 A 
HETATM    3  C11 UNL     1      23.836  -0.184  53.459  1.00  0.00     0.259 A 
HETATM    4  C12 UNL     1      22.639  -0.942  53.683  1.00  0.00     0.276 A 
HETATM    5  N4  UNL     1      21.650  -1.559  53.853  1.00  0.00    -0.123 N 
ENDROOT
BRANCH   1   6
HETATM    6  C9  UNL     1      21.464   0.785  52.180  1.00  0.00     0.232 C 
BRANCH   6   7
HETATM    7  C8  UNL     1      20.524   1.733  52.813  1.00  0.00     0.142 C 
HETATM    8  N2  UNL     1      20.297   3.008  52.782  1.00  0.00    -0.264 NA
BRANCH   8   9
HETATM    9  C3  UNL     1      21.056   3.907  51.982  1.00  0.00     0.032 C 
HETATM   10  C2  UNL     1      20.510   4.454  50.905  1.00  0.00    -0.004 C 
HETATM   11  C1  UNL     1      19.112   4.143  50.519  1.00  0.00     0.038 C 
BRANCH   9  12
HETATM   12  C4  UNL     1      22.461   4.213  52.377  1.00  0.00     0.089 C 
BRANCH  12  13
HETATM   13  C5  UNL     1      23.060   5.046  51.265  1.00  0.00     0.277 C 
BRANCH  13  14
HETATM   14  N1  UNL     1      24.335   4.557  50.833  1.00  0.00     0.080 N 
HETATM   15  C6  UNL     1      24.114   3.472  49.895  1.00  0.00     0.309 C 
HETATM   16  C7  UNL     1      25.039   5.626  50.166  1.00  0.00     0.309 C 
ENDBRANCH  13  14
ENDBRANCH  12  13
ENDBRANCH   9  12
ENDBRANCH   8   9
ENDBRANCH   6   7
ENDBRANCH   1   6
BRANCH   3  17
HETATM   17  C13 UNL     1      24.975  -0.536  54.359  1.00  0.00     0.171 C 
BRANCH  17  18
HETATM   18  N5  UNL     1      26.010  -1.091  53.498  1.00  0.00    -0.387 N 
HETATM   19  H20 UNL     1      25.871  -1.907  52.850  1.00  0.00     0.159 HD
BRANCH  18  20
HETATM   20  C14 UNL     1      27.297  -0.483  53.538  1.00  0.00     0.030 A 
HETATM   21  C15 UNL     1      28.418  -1.293  53.405  1.00  0.00     0.029 A 
HETATM   22  C16 UNL     1      29.715  -0.793  53.431  1.00  0.00     0.005 A 
HETATM   23  C17 UNL     1      29.864   0.586  53.598  1.00  0.00     0.042 A 
HETATM   24  C18 UNL     1      28.742   1.366  53.727  1.00  0.00     0.118 A 
HETATM   25  F1  UNL     1      28.878   2.722  53.893  1.00  0.00    -0.206 F 
HETATM   26  C19 UNL     1      27.450   0.879  53.704  1.00  0.00     0.071 A 
ENDBRANCH  18  20
ENDBRANCH  17  18
ENDBRANCH   3  17
TORSDOF 9
ENDMDL
MODEL 4
REMARK VINA RESULT:      -6.6      5.071      8.107
REMARK  9 active torsions:
REMARK  status: ('A' for Active; 'I' for Inactive)
REMARK    1  A    between atoms: C3_3  and  C4_4 
REMARK    2  A    between atoms: C3_3  and  N2_9 
REMARK    3  A    between atoms: C4_4  and  C5_5 
REMARK    4  A    between atoms: C5_5  and  N1_6 
REMARK    5  A    between atoms: C8_10  and  C9_11 
REMARK    6  A    between atoms: C9_11  and  N3_12 
REMARK    7  A    between atoms: C11_14  and  C13_17 
REMARK    8  A    between atoms: C13_17  and  N5_18 
REMARK    9  A    between atoms: N5_18  and  C14_19 
ROOT
HETATM    1  N3  UNL     1      26.802   5.849  48.769  1.00  0.00     0.031 N 
HETATM    2  C10 UNL     1      27.605   4.691  48.662  1.00  0.00     0.287 A 
HETATM    3  C11 UNL     1      26.588   4.382  49.451  1.00  0.00     0.259 A 
HETATM    4  C12 UNL     1      25.649   5.441  49.684  1.00  0.00     0.276 A 
HETATM    5  N4  UNL     1      24.885   6.319  49.862  1.00  0.00    -0.123 N 
ENDROOT
BRANCH   1   6
HETATM    6  C9  UNL     1      27.406   7.002  48.637  1.00  0.00     0.232 C 
BRANCH   6   7
HETATM    7  C8  UNL     1      28.307   7.634  47.651  1.00  0.00     0.142 C 
HETATM    8  N2  UNL     1      29.578   7.850  47.529  1.00  0.00    -0.264 NA
BRANCH   8   9
HETATM    9  C3  UNL     1      30.527   7.445  48.509  1.00  0.00     0.032 C 
HETATM   10  C2  UNL     1      31.066   8.346  49.318  1.00  0.00    -0.004 C 
HETATM   11  C1  UNL     1      30.693   9.779  49.219  1.00  0.00     0.038 C 
BRANCH   9  12
HETATM   12  C4  UNL     1      30.896   6.004  48.601  1.00  0.00     0.089 C 
BRANCH  12  13
HETATM   13  C5  UNL     1      32.357   5.946  48.986  1.00  0.00     0.277 C 
BRANCH  13  14
HETATM   14  N1  UNL     1      33.098   4.999  48.209  1.00  0.00     0.080 N 
HETATM   15  C6  UNL     1      32.162   4.234  47.406  1.00  0.00     0.309 C 
HETATM   16  C7  UNL     1      33.996   5.717  47.336  1.00  0.00     0.309 C 
ENDBRANCH  13  14
ENDBRANCH  12  13
ENDBRANCH   9  12
ENDBRANCH   8   9
ENDBRANCH   6   7
ENDBRANCH   1   6
BRANCH   3  17
HETATM   17  C13 UNL     1      26.263   3.097  50.141  1.00  0.00     0.171 C 
BRANCH  17  18
HETATM   18  N5  UNL     1      26.882   3.179  51.456  1.00  0.00    -0.387 N 
HETATM   19  H20 UNL     1      27.168   4.076  51.924  1.00  0.00     0.159 HD
BRANCH  18  20
HETATM   20  C14 UNL     1      27.113   1.960  52.154  1.00  0.00     0.030 A 
HETATM   21  C15 UNL     1      26.544   0.793  51.659  1.00  0.00     0.029 A 
HETATM   22  C16 UNL     1      26.713  -0.444  52.270  1.00  0.00     0.005 A 
HETATM   23  C17 UNL     1      27.494  -0.483  53.428  1.00  0.00     0.042 A 
HETATM   24  C18 UNL     1      28.046   0.682  53.897  1.00  0.00     0.118 A 
HETATM   25  F1  UNL     1      28.815   0.654  55.035  1.00  0.00    -0.206 F 
HETATM   26  C19 UNL     1      27.884   1.916  53.299  1.00  0.00     0.071 A 
ENDBRANCH  18  20
ENDBRANCH  17  18
ENDBRANCH   3  17
TORSDOF 9
ENDMDL
MODEL 5
REMARK VINA RESULT:      -6.5      1.588      2.139
REMARK  9 active torsions:
REMARK  status: ('A' for Active; 'I' for Inactive)
REMARK    1  A    between atoms: C3_3  and  C4_4 
REMARK    2  A    between atoms: C3_3  and  N2_9 
REMARK    3  A    between atoms: C4_4  and  C5_5 
REMARK    4  A    between atoms: C5_5  and  N1_6 
REMARK    5  A    between atoms: C8_10  and  C9_11 
REMARK    6  A    between atoms: C9_11  and  N3_12 
REMARK    7  A    between atoms: C11_14  and  C13_17 
REMARK    8  A    between atoms: C13_17  and  N5_18 
REMARK    9  A    between atoms: N5_18  and  C14_19 
ROOT
HETATM    1  N3  UNL     1      22.995   4.040  50.686  1.00  0.00     0.031 N 
HETATM    2  C10 UNL     1      23.766   3.355  51.652  1.00  0.00     0.287 A 
HETATM    3  C11 UNL     1      24.504   3.430  50.556  1.00  0.00     0.259 A 
HETATM    4  C12 UNL     1      23.887   4.101  49.447  1.00  0.00     0.276 A 
HETATM    5  N4  UNL     1      23.370   4.658  48.548  1.00  0.00    -0.123 N 
ENDROOT
BRANCH   1   6
HETATM    6  C9  UNL     1      21.695   3.935  50.783  1.00  0.00     0.232 C 
BRANCH   6   7
HETATM    7  C8  UNL     1      20.696   3.952  51.873  1.00  0.00     0.142 C 
HETATM    8  N2  UNL     1      20.092   3.084  52.619  1.00  0.00    -0.264 NA
BRANCH   8   9
HETATM    9  C3  UNL     1      20.315   1.684  52.508  1.00  0.00     0.032 C 
HETATM   10  C2  UNL     1      19.459   0.930  51.833  1.00  0.00    -0.004 C 
HETATM   11  C1  UNL     1      18.265   1.527  51.186  1.00  0.00     0.038 C 
BRANCH   9  12
HETATM   12  C4  UNL     1      21.517   1.091  53.162  1.00  0.00     0.089 C 
BRANCH  12  13
HETATM   13  C5  UNL     1      21.814  -0.207  52.447  1.00  0.00     0.277 C 
BRANCH  13  14
HETATM   14  N1  UNL     1      22.376  -1.201  53.312  1.00  0.00     0.080 N 
HETATM   15  C6  UNL     1      23.593  -0.664  53.894  1.00  0.00     0.309 C 
HETATM   16  C7  UNL     1      21.431  -1.486  54.365  1.00  0.00     0.309 C 
ENDBRANCH  13  14
ENDBRANCH  12  13
ENDBRANCH   9  12
ENDBRANCH   8   9
ENDBRANCH   6   7
ENDBRANCH   1   6
BRANCH   3  17
HETATM   17  C13 UNL     1      25.884   2.926  50.289  1.00  0.00     0.171 C 
BRANCH  17  18
HETATM   18  N5  UNL     1      26.650   3.192  51.499  1.00  0.00    -0.387 N 
HETATM   19  H20 UNL     1      26.860   4.152  51.871  1.00  0.00     0.159 HD
BRANCH  18  20
HETATM   20  C14 UNL     1      27.145   2.073  52.226  1.00  0.00     0.030 A 
HETATM   21  C15 UNL     1      26.696   0.804  51.881  1.00  0.00     0.029 A 
HETATM   22  C16 UNL     1      27.121  -0.348  52.532  1.00  0.00     0.005 A 
HETATM   23  C17 UNL     1      28.041  -0.191  53.572  1.00  0.00     0.042 A 
HETATM   24  C18 UNL     1      28.471   1.072  53.895  1.00  0.00     0.118 A 
HETATM   25  F1  UNL     1      29.374   1.237  54.916  1.00  0.00    -0.206 F 
HETATM   26  C19 UNL     1      28.054   2.222  53.255  1.00  0.00     0.071 A 
ENDBRANCH  18  20
ENDBRANCH  17  18
ENDBRANCH   3  17
TORSDOF 9
ENDMDL
MODEL 6
REMARK VINA RESULT:      -6.5      2.144      5.019
REMARK  9 active torsions:
REMARK  status: ('A' for Active; 'I' for Inactive)
REMARK    1  A    between atoms: C3_3  and  C4_4 
REMARK    2  A    between atoms: C3_3  and  N2_9 
REMARK    3  A    between atoms: C4_4  and  C5_5 
REMARK    4  A    between atoms: C5_5  and  N1_6 
REMARK    5  A    between atoms: C8_10  and  C9_11 
REMARK    6  A    between atoms: C9_11  and  N3_12 
REMARK    7  A    between atoms: C11_14  and  C13_17 
REMARK    8  A    between atoms: C13_17  and  N5_18 
REMARK    9  A    between atoms: N5_18  and  C14_19 
ROOT
HETATM    1  N3  UNL     1      23.256   2.675  51.919  1.00  0.00     0.031 N 
HETATM    2  C10 UNL     1      23.966   1.459  52.036  1.00  0.00     0.287 A 
HETATM    3  C11 UNL     1      24.557   2.328  52.841  1.00  0.00     0.259 A 
HETATM    4  C12 UNL     1      23.973   3.638  52.863  1.00  0.00     0.276 A 
HETATM    5  N4  UNL     1      23.480   4.707  52.874  1.00  0.00    -0.123 N 
ENDROOT
BRANCH   1   6
HETATM    6  C9  UNL     1      22.657   2.903  50.778  1.00  0.00     0.232 C 
BRANCH   6   7
HETATM    7  C8  UNL     1      23.071   3.151  49.381  1.00  0.00     0.142 C 
HETATM    8  N2  UNL     1      23.882   3.946  48.759  1.00  0.00    -0.264 NA
BRANCH   8   9
HETATM    9  C3  UNL     1      24.677   4.917  49.430  1.00  0.00     0.032 C 
HETATM   10  C2  UNL     1      25.910   4.613  49.808  1.00  0.00    -0.004 C 
HETATM   11  C1  UNL     1      26.479   3.269  49.541  1.00  0.00     0.038 C 
BRANCH   9  12
HETATM   12  C4  UNL     1      24.097   6.265  49.695  1.00  0.00     0.089 C 
BRANCH  12  13
HETATM   13  C5  UNL     1      23.470   6.738  48.402  1.00  0.00     0.277 C 
BRANCH  13  14
HETATM   14  N1  UNL     1      23.952   8.022  47.991  1.00  0.00     0.080 N 
HETATM   15  C6  UNL     1      24.470   8.711  49.158  1.00  0.00     0.309 C 
HETATM   16  C7  UNL     1      25.018   7.832  47.037  1.00  0.00     0.309 C 
ENDBRANCH  13  14
ENDBRANCH  12  13
ENDBRANCH   9  12
ENDBRANCH   8   9
ENDBRANCH   6   7
ENDBRANCH   1   6
BRANCH   3  17
HETATM   17  C13 UNL     1      25.741   2.158  53.736  1.00  0.00     0.171 C 
BRANCH  17  18
HETATM   18  N5  UNL     1      26.884   1.963  52.857  1.00  0.00    -0.387 N 
HETATM   19  H20 UNL     1      27.194   2.648  52.122  1.00  0.00     0.159 HD
BRANCH  18  20
HETATM   20  C14 UNL     1      27.633   0.761  53.005  1.00  0.00     0.030 A 
HETATM   21  C15 UNL     1      28.924   0.841  53.514  1.00  0.00     0.029 A 
HETATM   22  C16 UNL     1      29.732  -0.275  53.696  1.00  0.00     0.005 A 
HETATM   23  C17 UNL     1      29.196  -1.516  53.343  1.00  0.00     0.042 A 
HETATM   24  C18 UNL     1      27.919  -1.570  52.843  1.00  0.00     0.118 A 
HETATM   25  F1  UNL     1      27.383  -2.785  52.493  1.00  0.00    -0.206 F 
HETATM   26  C19 UNL     1      27.108  -0.468  52.658  1.00  0.00     0.071 A 
ENDBRANCH  18  20
ENDBRANCH  17  18
ENDBRANCH   3  17
TORSDOF 9
ENDMDL
MODEL 7
REMARK VINA RESULT:      -6.3      5.442      8.678
REMARK  9 active torsions:
REMARK  status: ('A' for Active; 'I' for Inactive)
REMARK    1  A    between atoms: C3_3  and  C4_4 
REMARK    2  A    between atoms: C3_3  and  N2_9 
REMARK    3  A    between atoms: C4_4  and  C5_5 
REMARK    4  A    between atoms: C5_5  and  N1_6 
REMARK    5  A    between atoms: C8_10  and  C9_11 
REMARK    6  A    between atoms: C9_11  and  N3_12 
REMARK    7  A    between atoms: C11_14  and  C13_17 
REMARK    8  A    between atoms: C13_17  and  N5_18 
REMARK    9  A    between atoms: N5_18  and  C14_19 
ROOT
HETATM    1  N3  UNL     1      27.104   5.785  48.596  1.00  0.00     0.031 N 
HETATM    2  C10 UNL     1      27.776   4.542  48.607  1.00  0.00     0.287 A 
HETATM    3  C11 UNL     1      26.703   4.405  49.369  1.00  0.00     0.259 A 
HETATM    4  C12 UNL     1      25.880   5.575  49.484  1.00  0.00     0.276 A 
HETATM    5  N4  UNL     1      25.213   6.542  49.566  1.00  0.00    -0.123 N 
ENDROOT
BRANCH   1   6
HETATM    6  C9  UNL     1      27.839   6.852  48.411  1.00  0.00     0.232 C 
BRANCH   6   7
HETATM    7  C8  UNL     1      28.881   7.284  47.456  1.00  0.00     0.142 C 
HETATM    8  N2  UNL     1      30.079   7.772  47.517  1.00  0.00    -0.264 NA
BRANCH   8   9
HETATM    9  C3  UNL     1      30.743   8.035  48.747  1.00  0.00     0.032 C 
HETATM   10  C2  UNL     1      31.457   7.083  49.329  1.00  0.00    -0.004 C 
HETATM   11  C1  UNL     1      31.576   5.737  48.714  1.00  0.00     0.038 C 
BRANCH   9  12
HETATM   12  C4  UNL     1      30.618   9.390  49.358  1.00  0.00     0.089 C 
BRANCH  12  13
HETATM   13  C5  UNL     1      30.858  10.396  48.254  1.00  0.00     0.277 C 
BRANCH  13  14
HETATM   14  N1  UNL     1      29.950  11.501  48.305  1.00  0.00     0.080 N 
HETATM   15  C6  UNL     1      28.692  11.035  48.860  1.00  0.00     0.309 C 
HETATM   16  C7  UNL     1      30.503  12.516  49.169  1.00  0.00     0.309 C 
ENDBRANCH  13  14
ENDBRANCH  12  13
ENDBRANCH   9  12
ENDBRANCH   8   9
ENDBRANCH   6   7
ENDBRANCH   1   6
BRANCH   3  17
HETATM   17  C13 UNL     1      26.210   3.220  50.133  1.00  0.00     0.171 C 
BRANCH  17  18
HETATM   18  N5  UNL     1      26.836   3.298  51.444  1.00  0.00    -0.387 N 
HETATM   19  H20 UNL     1      27.097   4.194  51.927  1.00  0.00     0.159 HD
BRANCH  18  20
HETATM   20  C14 UNL     1      27.110   2.074  52.119  1.00  0.00     0.030 A 
HETATM   21  C15 UNL     1      26.516   0.909  51.650  1.00  0.00     0.029 A 
HETATM   22  C16 UNL     1      26.723  -0.332  52.241  1.00  0.00     0.005 A 
HETATM   23  C17 UNL     1      27.570  -0.377  53.351  1.00  0.00     0.042 A 
HETATM   24  C18 UNL     1      28.146   0.786  53.796  1.00  0.00     0.118 A 
HETATM   25  F1  UNL     1      28.980   0.752  54.886  1.00  0.00    -0.206 F 
HETATM   26  C19 UNL     1      27.947   2.023  53.216  1.00  0.00     0.071 A 
ENDBRANCH  18  20
ENDBRANCH  17  18
ENDBRANCH   3  17
TORSDOF 9
ENDMDL
MODEL 8
REMARK VINA RESULT:      -6.2      4.711      7.718
REMARK  9 active torsions:
REMARK  status: ('A' for Active; 'I' for Inactive)
REMARK    1  A    between atoms: C3_3  and  C4_4 
REMARK    2  A    between atoms: C3_3  and  N2_9 
REMARK    3  A    between atoms: C4_4  and  C5_5 
REMARK    4  A    between atoms: C5_5  and  N1_6 
REMARK    5  A    between atoms: C8_10  and  C9_11 
REMARK    6  A    between atoms: C9_11  and  N3_12 
REMARK    7  A    between atoms: C11_14  and  C13_17 
REMARK    8  A    between atoms: C13_17  and  N5_18 
REMARK    9  A    between atoms: N5_18  and  C14_19 
ROOT
HETATM    1  N3  UNL     1      26.056   5.968  48.927  1.00  0.00     0.031 N 
HETATM    2  C10 UNL     1      27.210   5.159  48.820  1.00  0.00     0.287 A 
HETATM    3  C11 UNL     1      26.299   4.445  49.463  1.00  0.00     0.259 A 
HETATM    4  C12 UNL     1      25.041   5.103  49.672  1.00  0.00     0.276 A 
HETATM    5  N4  UNL     1      24.013   5.654  49.831  1.00  0.00    -0.123 N 
ENDROOT
BRANCH   1   6
HETATM    6  C9  UNL     1      26.242   7.262  48.955  1.00  0.00     0.232 C 
BRANCH   6   7
HETATM    7  C8  UNL     1      26.268   8.319  49.988  1.00  0.00     0.142 C 
HETATM    8  N2  UNL     1      26.933   9.407  50.216  1.00  0.00    -0.264 NA
BRANCH   8   9
HETATM    9  C3  UNL     1      27.960   9.878  49.351  1.00  0.00     0.032 C 
HETATM   10  C2  UNL     1      27.680  10.783  48.425  1.00  0.00    -0.004 C 
HETATM   11  C1  UNL     1      26.304  11.318  48.275  1.00  0.00     0.038 C 
BRANCH   9  12
HETATM   12  C4  UNL     1      29.340   9.335  49.509  1.00  0.00     0.089 C 
BRANCH  12  13
HETATM   13  C5  UNL     1      29.774   8.830  48.151  1.00  0.00     0.277 C 
BRANCH  13  14
HETATM   14  N1  UNL     1      30.940   8.001  48.214  1.00  0.00     0.080 N 
HETATM   15  C6  UNL     1      31.674   8.337  49.420  1.00  0.00     0.309 C 
HETATM   16  C7  UNL     1      30.523   6.621  48.280  1.00  0.00     0.309 C 
ENDBRANCH  13  14
ENDBRANCH  12  13
ENDBRANCH   9  12
ENDBRANCH   8   9
ENDBRANCH   6   7
ENDBRANCH   1   6
BRANCH   3  17
HETATM   17  C13 UNL     1      26.375   3.056  50.008  1.00  0.00     0.171 C 
BRANCH  17  18
HETATM   18  N5  UNL     1      26.795   3.192  51.395  1.00  0.00    -0.387 N 
HETATM   19  H20 UNL     1      26.882   4.108  51.905  1.00  0.00     0.159 HD
BRANCH  18  20
HETATM   20  C14 UNL     1      27.108   2.001  52.110  1.00  0.00     0.030 A 
HETATM   21  C15 UNL     1      26.527   0.807  51.699  1.00  0.00     0.029 A 
HETATM   22  C16 UNL     1      26.771  -0.406  52.332  1.00  0.00     0.005 A 
HETATM   23  C17 UNL     1      27.642  -0.392  53.424  1.00  0.00     0.042 A 
HETATM   24  C18 UNL     1      28.204   0.799  53.812  1.00  0.00     0.118 A 
HETATM   25  F1  UNL     1      29.061   0.823  54.884  1.00  0.00    -0.206 F 
HETATM   26  C19 UNL     1      27.968   2.009  53.190  1.00  0.00     0.071 A 
ENDBRANCH  18  20
ENDBRANCH  17  18
ENDBRANCH   3  17
TORSDOF 9
ENDMDL
MODEL 9
REMARK VINA RESULT:      -6.2      2.102      4.524
REMARK  9 active torsions:
REMARK  status: ('A' for Active; 'I' for Inactive)
REMARK    1  A    between atoms: C3_3  and  C4_4 
REMARK    2  A    between atoms: C3_3  and  N2_9 
REMARK    3  A    between atoms: C4_4  and  C5_5 
REMARK    4  A    between atoms: C5_5  and  N1_6 
REMARK    5  A    between atoms: C8_10  and  C9_11 
REMARK    6  A    between atoms: C9_11  and  N3_12 
REMARK    7  A    between atoms: C11_14  and  C13_17 
REMARK    8  A    between atoms: C13_17  and  N5_18 
REMARK    9  A    between atoms: N5_18  and  C14_19 
ROOT
HETATM    1  N3  UNL     1      22.908   1.417  52.156  1.00  0.00     0.031 N 
HETATM    2  C10 UNL     1      24.208   1.840  52.512  1.00  0.00     0.287 A 
HETATM    3  C11 UNL     1      24.008   0.674  53.105  1.00  0.00     0.259 A 
HETATM    4  C12 UNL     1      22.728   0.074  52.862  1.00  0.00     0.276 A 
HETATM    5  N4  UNL     1      21.675  -0.408  52.649  1.00  0.00    -0.123 N 
ENDROOT
BRANCH   1   6
HETATM    6  C9  UNL     1      22.033   2.353  51.890  1.00  0.00     0.232 C 
BRANCH   6   7
HETATM    7  C8  UNL     1      21.330   2.854  50.690  1.00  0.00     0.142 C 
HETATM    8  N2  UNL     1      21.512   3.777  49.801  1.00  0.00    -0.264 NA
BRANCH   8   9
HETATM    9  C3  UNL     1      22.634   4.652  49.816  1.00  0.00     0.032 C 
HETATM   10  C2  UNL     1      22.471   5.929  50.128  1.00  0.00    -0.004 C 
HETATM   11  C1  UNL     1      21.130   6.466  50.466  1.00  0.00     0.038 C 
BRANCH   9  12
HETATM   12  C4  UNL     1      23.978   4.105  49.474  1.00  0.00     0.089 C 
BRANCH  12  13
HETATM   13  C5  UNL     1      24.991   4.887  50.280  1.00  0.00     0.277 C 
BRANCH  13  14
HETATM   14  N1  UNL     1      26.343   4.561  49.938  1.00  0.00     0.080 N 
HETATM   15  C6  UNL     1      26.401   3.152  49.597  1.00  0.00     0.309 C 
HETATM   16  C7  UNL     1      26.731   5.344  48.790  1.00  0.00     0.309 C 
ENDBRANCH  13  14
ENDBRANCH  12  13
ENDBRANCH   9  12
ENDBRANCH   8   9
ENDBRANCH   6   7
ENDBRANCH   1   6
BRANCH   3  17
HETATM   17  C13 UNL     1      24.910  -0.121  53.993  1.00  0.00     0.171 C 
BRANCH  17  18
HETATM   18  N5  UNL     1      25.887  -0.748  53.115  1.00  0.00    -0.387 N 
HETATM   19  H20 UNL     1      25.646  -1.395  52.322  1.00  0.00     0.159 HD
BRANCH  18  20
HETATM   20  C14 UNL     1      27.262  -0.462  53.346  1.00  0.00     0.030 A 
HETATM   21  C15 UNL     1      28.196  -1.468  53.129  1.00  0.00     0.029 A 
HETATM   22  C16 UNL     1      29.559  -1.285  53.327  1.00  0.00     0.005 A 
HETATM   23  C17 UNL     1      29.978  -0.026  53.762  1.00  0.00     0.042 A 
HETATM   24  C18 UNL     1      29.038   0.953  53.970  1.00  0.00     0.118 A 
HETATM   25  F1  UNL     1      29.439   2.194  54.399  1.00  0.00    -0.206 F 
HETATM   26  C19 UNL     1      27.681   0.781  53.777  1.00  0.00     0.071 A 
ENDBRANCH  18  20
ENDBRANCH  17  18
ENDBRANCH   3  17
TORSDOF 9
ENDMDL
