MODEL 1
REMARK VINA RESULT:      -8.6      0.000      0.000
REMARK  1 active torsions:
REMARK  status: ('A' for Active; 'I' for Inactive)
REMARK    1  A    between atoms: C1_2  and  C2_5 
ROOT
HETATM    1  C2  UNL     1      22.319   1.451  52.852  1.00  0.00     0.070 C 
HETATM    2  C3  UNL     1      22.668   2.720  52.993  1.00  0.00     0.024 C 
HETATM    3  C4  UNL     1      24.091   3.181  53.084  1.00  0.00     0.180 C 
HETATM    4  N1  UNL     1      24.234   4.567  53.308  1.00  0.00    -0.322 N 
HETATM    5  N2  UNL     1      23.619   5.436  52.438  1.00  0.00    -0.315 N 
HETATM    6  C5  UNL     1      23.923   5.857  51.084  1.00  0.00     0.114 C 
HETATM    7  C6  UNL     1      24.759   5.404  50.121  1.00  0.00    -0.026 C 
HETATM    8  C7  UNL     1      24.463   6.369  49.075  1.00  0.00     0.067 C 
HETATM    9  C8  UNL     1      25.509   6.616  48.052  1.00  0.00     0.179 C 
HETATM   10  O1  UNL     1      26.729   7.095  48.513  1.00  0.00    -0.363 OA
HETATM   11  C9  UNL     1      27.808   7.508  47.787  1.00  0.00     0.137 C 
HETATM   12  C10 UNL     1      28.784   6.658  47.628  1.00  0.00     0.055 C 
HETATM   13  C11 UNL     1      28.549   5.374  48.271  1.00  0.00     0.183 C 
HETATM   14  N3  UNL     1      27.772   4.765  48.920  1.00  0.00    -0.430 NA
HETATM   15  C12 UNL     1      26.861   4.151  49.639  1.00  0.00     0.193 C 
HETATM   16  C13 UNL     1      25.668   4.266  50.177  1.00  0.00     0.003 C 
HETATM   17  C14 UNL     1      25.516   2.946  50.836  1.00  0.00     0.049 C 
HETATM   18  C15 UNL     1      24.880   2.602  51.979  1.00  0.00     0.081 C 
HETATM   19  O2  UNL     1      25.202   1.230  51.880  1.00  0.00    -0.323 OA
HETATM   20  C16 UNL     1      24.370   0.177  52.307  1.00  0.00     0.166 C 
HETATM   21  C17 UNL     1      23.099   0.200  52.746  1.00  0.00     0.071 C 
HETATM   22 CL1  UNL     1      22.329  -1.300  53.208  1.00  0.00    -0.081 Cl
HETATM   23  H3  UNL     1      25.041   4.893  53.828  1.00  0.00     0.181 HD
HETATM   24  H4  UNL     1      22.758   5.885  52.841  1.00  0.00     0.185 HD
ENDROOT
BRANCH   1  25
HETATM   25  C1  UNL     1      20.838   1.198  52.782  1.00  0.00     0.418 C 
HETATM   26  F1  UNL     1      20.215   2.432  52.569  1.00  0.00    -0.166 F 
HETATM   27  F2  UNL     1      20.533   0.436  51.672  1.00  0.00    -0.166 F 
HETATM   28  F3  UNL     1      20.334   0.698  53.946  1.00  0.00    -0.166 F 
ENDBRANCH   1  25
TORSDOF 1
ENDMDL
MODEL 2
REMARK VINA RESULT:      -8.6      1.604      1.833
REMARK  1 active torsions:
REMARK  status: ('A' for Active; 'I' for Inactive)
REMARK    1  A    between atoms: C1_2  and  C2_5 
ROOT
HETATM    1  C2  UNL     1      21.391   3.141  51.563  1.00  0.00     0.070 C 
HETATM    2  C3  UNL     1      22.093   4.209  51.906  1.00  0.00     0.024 C 
HETATM    3  C4  UNL     1      23.562   4.174  52.199  1.00  0.00     0.180 C 
HETATM    4  N1  UNL     1      24.096   5.411  52.619  1.00  0.00    -0.322 N 
HETATM    5  N2  UNL     1      23.906   6.511  51.816  1.00  0.00    -0.315 N 
HETATM    6  C5  UNL     1      24.507   6.937  50.568  1.00  0.00     0.114 C 
HETATM    7  C6  UNL     1      25.285   6.331  49.641  1.00  0.00    -0.026 C 
HETATM    8  C7  UNL     1      25.449   7.435  48.709  1.00  0.00     0.067 C 
HETATM    9  C8  UNL     1      26.650   7.426  47.837  1.00  0.00     0.179 C 
HETATM   10  O1  UNL     1      27.882   7.438  48.477  1.00  0.00    -0.363 OA
HETATM   11  C9  UNL     1      29.125   7.546  47.924  1.00  0.00     0.137 C 
HETATM   12  C10 UNL     1      29.802   6.446  47.750  1.00  0.00     0.055 C 
HETATM   13  C11 UNL     1      29.095   5.252  48.190  1.00  0.00     0.183 C 
HETATM   14  N3  UNL     1      28.086   4.869  48.671  1.00  0.00    -0.430 NA
HETATM   15  C12 UNL     1      26.941   4.517  49.208  1.00  0.00     0.193 C 
HETATM   16  C13 UNL     1      25.781   4.961  49.634  1.00  0.00     0.003 C 
HETATM   17  C14 UNL     1      25.138   3.704  50.093  1.00  0.00     0.049 C 
HETATM   18  C15 UNL     1      24.277   3.478  51.111  1.00  0.00     0.081 C 
HETATM   19  O2  UNL     1      24.169   2.092  50.862  1.00  0.00    -0.323 OA
HETATM   20  C16 UNL     1      23.001   1.329  51.059  1.00  0.00     0.166 C 
HETATM   21  C17 UNL     1      21.752   1.720  51.369  1.00  0.00     0.071 C 
HETATM   22 CL1  UNL     1      20.500   0.513  51.548  1.00  0.00    -0.081 Cl
HETATM   23  H3  UNL     1      24.884   5.407  53.256  1.00  0.00     0.181 HD
HETATM   24  H4  UNL     1      23.178   7.174  52.188  1.00  0.00     0.185 HD
ENDROOT
BRANCH   1  25
HETATM   25  C1  UNL     1      19.929   3.388  51.313  1.00  0.00     0.418 C 
HETATM   26  F1  UNL     1      19.753   4.772  51.210  1.00  0.00    -0.166 F 
HETATM   27  F2  UNL     1      19.559   2.879  50.084  1.00  0.00    -0.166 F 
HETATM   28  F3  UNL     1      19.140   2.966  52.342  1.00  0.00    -0.166 F 
ENDBRANCH   1  25
TORSDOF 1
ENDMDL
MODEL 3
REMARK VINA RESULT:      -8.2      8.219      9.864
REMARK  1 active torsions:
REMARK  status: ('A' for Active; 'I' for Inactive)
REMARK    1  A    between atoms: C1_2  and  C2_5 
ROOT
HETATM    1  C2  UNL     1      32.857   4.335  47.195  1.00  0.00     0.070 C 
HETATM    2  C3  UNL     1      31.821   4.685  47.940  1.00  0.00     0.024 C 
HETATM    3  C4  UNL     1      31.864   5.792  48.949  1.00  0.00     0.180 C 
HETATM    4  N1  UNL     1      30.670   5.946  49.686  1.00  0.00    -0.322 N 
HETATM    5  N2  UNL     1      29.494   6.121  48.996  1.00  0.00    -0.315 N 
HETATM    6  C5  UNL     1      28.927   7.247  48.282  1.00  0.00     0.114 C 
HETATM    7  C6  UNL     1      29.418   8.431  47.846  1.00  0.00    -0.026 C 
HETATM    8  C7  UNL     1      28.218   8.975  47.231  1.00  0.00     0.067 C 
HETATM    9  C8  UNL     1      28.115  10.450  47.112  1.00  0.00     0.179 C 
HETATM   10  O1  UNL     1      28.151  11.174  48.297  1.00  0.00    -0.363 OA
HETATM   11  C9  UNL     1      27.965  12.513  48.481  1.00  0.00     0.137 C 
HETATM   12  C10 UNL     1      29.029  13.256  48.593  1.00  0.00     0.055 C 
HETATM   13  C11 UNL     1      30.275  12.509  48.501  1.00  0.00     0.183 C 
HETATM   14  N3  UNL     1      30.723  11.426  48.354  1.00  0.00    -0.430 NA
HETATM   15  C12 UNL     1      31.148  10.195  48.188  1.00  0.00     0.193 C 
HETATM   16  C13 UNL     1      30.772   8.953  47.984  1.00  0.00     0.003 C 
HETATM   17  C14 UNL     1      32.080   8.255  47.937  1.00  0.00     0.049 C 
HETATM   18  C15 UNL     1      32.428   7.011  48.337  1.00  0.00     0.081 C 
HETATM   19  O2  UNL     1      33.781   7.142  47.954  1.00  0.00    -0.323 OA
HETATM   20  C16 UNL     1      34.579   6.096  47.452  1.00  0.00     0.166 C 
HETATM   21  C17 UNL     1      34.244   4.842  47.099  1.00  0.00     0.071 C 
HETATM   22 CL1  UNL     1      35.483   3.764  46.501  1.00  0.00    -0.081 Cl
HETATM   23  H3  UNL     1      30.730   6.292  50.637  1.00  0.00     0.181 HD
HETATM   24  H4  UNL     1      28.887   5.262  48.990  1.00  0.00     0.185 HD
ENDROOT
BRANCH   1  25
HETATM   25  C1  UNL     1      32.608   3.198  46.244  1.00  0.00     0.418 C 
HETATM   26  F1  UNL     1      31.254   2.862  46.343  1.00  0.00    -0.166 F 
HETATM   27  F2  UNL     1      32.789   3.613  44.940  1.00  0.00    -0.166 F 
HETATM   28  F3  UNL     1      33.316   2.077  46.566  1.00  0.00    -0.166 F 
ENDBRANCH   1  25
TORSDOF 1
ENDMDL
MODEL 4
REMARK VINA RESULT:      -8.0      5.841      8.480
REMARK  1 active torsions:
REMARK  status: ('A' for Active; 'I' for Inactive)
REMARK    1  A    between atoms: C1_2  and  C2_5 
ROOT
HETATM    1  C2  UNL     1      30.311   7.816  48.534  1.00  0.00     0.070 C 
HETATM    2  C3  UNL     1      29.052   8.143  48.295  1.00  0.00     0.024 C 
HETATM    3  C4  UNL     1      28.082   7.241  47.593  1.00  0.00     0.180 C 
HETATM    4  N1  UNL     1      26.812   7.817  47.376  1.00  0.00    -0.322 N 
HETATM    5  N2  UNL     1      26.130   8.323  48.456  1.00  0.00    -0.315 N 
HETATM    6  C5  UNL     1      25.405   7.699  49.545  1.00  0.00     0.114 C 
HETATM    7  C6  UNL     1      25.319   6.434  50.019  1.00  0.00    -0.026 C 
HETATM    8  C7  UNL     1      24.393   6.652  51.118  1.00  0.00     0.067 C 
HETATM    9  C8  UNL     1      23.583   5.496  51.574  1.00  0.00     0.179 C 
HETATM   10  O1  UNL     1      22.740   4.918  50.634  1.00  0.00    -0.363 OA
HETATM   11  C9  UNL     1      21.816   3.930  50.814  1.00  0.00     0.137 C 
HETATM   12  C10 UNL     1      22.166   2.716  50.494  1.00  0.00     0.055 C 
HETATM   13  C11 UNL     1      23.524   2.617  49.981  1.00  0.00     0.183 C 
HETATM   14  N3  UNL     1      24.491   3.246  49.727  1.00  0.00    -0.430 NA
HETATM   15  C12 UNL     1      25.528   4.009  49.469  1.00  0.00     0.193 C 
HETATM   16  C13 UNL     1      25.990   5.238  49.525  1.00  0.00     0.003 C 
HETATM   17  C14 UNL     1      27.351   5.064  48.959  1.00  0.00     0.049 C 
HETATM   18  C15 UNL     1      28.105   5.899  48.210  1.00  0.00     0.081 C 
HETATM   19  O2  UNL     1      29.196   5.008  48.109  1.00  0.00    -0.323 OA
HETATM   20  C16 UNL     1      30.549   5.397  48.064  1.00  0.00     0.166 C 
HETATM   21  C17 UNL     1      31.110   6.607  48.240  1.00  0.00     0.071 C 
HETATM   22 CL1  UNL     1      32.847   6.768  48.119  1.00  0.00    -0.081 Cl
HETATM   23  H3  UNL     1      26.283   7.528  46.561  1.00  0.00     0.181 HD
HETATM   24  H4  UNL     1      26.137   9.374  48.495  1.00  0.00     0.185 HD
ENDROOT
BRANCH   1  25
HETATM   25  C1  UNL     1      31.119   8.863  49.249  1.00  0.00     0.418 C 
HETATM   26  F1  UNL     1      30.217   9.717  49.893  1.00  0.00    -0.166 F 
HETATM   27  F2  UNL     1      31.865   8.289  50.259  1.00  0.00    -0.166 F 
HETATM   28  F3  UNL     1      31.853   9.635  48.397  1.00  0.00    -0.166 F 
ENDBRANCH   1  25
TORSDOF 1
ENDMDL
MODEL 5
REMARK VINA RESULT:      -7.9      4.295      7.753
REMARK  1 active torsions:
REMARK  status: ('A' for Active; 'I' for Inactive)
REMARK    1  A    between atoms: C1_2  and  C2_5 
ROOT
HETATM    1  C2  UNL     1      23.955   6.418  49.873  1.00  0.00     0.070 C 
HETATM    2  C3  UNL     1      24.177   5.943  51.087  1.00  0.00     0.024 C 
HETATM    3  C4  UNL     1      23.084   5.573  52.044  1.00  0.00     0.180 C 
HETATM    4  N1  UNL     1      23.543   5.159  53.312  1.00  0.00    -0.322 N 
HETATM    5  N2  UNL     1      24.452   4.130  53.375  1.00  0.00    -0.315 N 
HETATM    6  C5  UNL     1      24.330   2.695  53.206  1.00  0.00     0.114 C 
HETATM    7  C6  UNL     1      23.364   1.881  52.720  1.00  0.00    -0.026 C 
HETATM    8  C7  UNL     1      24.021   0.597  52.900  1.00  0.00     0.067 C 
HETATM    9  C8  UNL     1      23.159  -0.604  53.028  1.00  0.00     0.179 C 
HETATM   10  O1  UNL     1      22.264  -0.616  54.090  1.00  0.00    -0.363 OA
HETATM   11  C9  UNL     1      21.447  -1.629  54.501  1.00  0.00     0.137 C 
HETATM   12  C10 UNL     1      20.202  -1.587  54.120  1.00  0.00     0.055 C 
HETATM   13  C11 UNL     1      19.883  -0.430  53.296  1.00  0.00     0.183 C 
HETATM   14  N3  UNL     1      20.342   0.543  52.809  1.00  0.00    -0.430 NA
HETATM   15  C12 UNL     1      20.921   1.606  52.299  1.00  0.00     0.193 C 
HETATM   16  C13 UNL     1      22.061   2.248  52.182  1.00  0.00     0.003 C 
HETATM   17  C14 UNL     1      21.653   3.420  51.368  1.00  0.00     0.049 C 
HETATM   18  C15 UNL     1      22.104   4.695  51.374  1.00  0.00     0.081 C 
HETATM   19  O2  UNL     1      21.231   5.130  50.352  1.00  0.00    -0.323 OA
HETATM   20  C16 UNL     1      21.548   6.104  49.386  1.00  0.00     0.166 C 
HETATM   21  C17 UNL     1      22.717   6.712  49.119  1.00  0.00     0.071 C 
HETATM   22 CL1  UNL     1      22.790   7.897  47.835  1.00  0.00    -0.081 Cl
HETATM   23  H3  UNL     1      22.959   5.339  54.121  1.00  0.00     0.181 HD
HETATM   24  H4  UNL     1      25.429   4.453  53.590  1.00  0.00     0.185 HD
ENDROOT
BRANCH   1  25
HETATM   25  C1  UNL     1      25.189   6.728  49.071  1.00  0.00     0.418 C 
HETATM   26  F1  UNL     1      26.262   6.081  49.692  1.00  0.00    -0.166 F 
HETATM   27  F2  UNL     1      25.099   6.167  47.813  1.00  0.00    -0.166 F 
HETATM   28  F3  UNL     1      25.487   8.059  49.058  1.00  0.00    -0.166 F 
ENDBRANCH   1  25
TORSDOF 1
ENDMDL
MODEL 6
REMARK VINA RESULT:      -7.8      4.828      6.075
REMARK  1 active torsions:
REMARK  status: ('A' for Active; 'I' for Inactive)
REMARK    1  A    between atoms: C1_2  and  C2_5 
ROOT
HETATM    1  C2  UNL     1      23.415   7.543  49.046  1.00  0.00     0.070 C 
HETATM    2  C3  UNL     1      24.483   8.098  49.595  1.00  0.00     0.024 C 
HETATM    3  C4  UNL     1      25.582   7.314  50.245  1.00  0.00     0.180 C 
HETATM    4  N1  UNL     1      26.589   8.109  50.832  1.00  0.00    -0.322 N 
HETATM    5  N2  UNL     1      27.218   9.049  50.052  1.00  0.00    -0.315 N 
HETATM    6  C5  UNL     1      28.222   8.955  49.011  1.00  0.00     0.114 C 
HETATM    7  C6  UNL     1      28.734   7.934  48.284  1.00  0.00    -0.026 C 
HETATM    8  C7  UNL     1      29.682   8.674  47.467  1.00  0.00     0.067 C 
HETATM    9  C8  UNL     1      30.846   7.933  46.923  1.00  0.00     0.179 C 
HETATM   10  O1  UNL     1      31.701   7.351  47.850  1.00  0.00    -0.363 OA
HETATM   11  C9  UNL     1      32.890   6.719  47.630  1.00  0.00     0.137 C 
HETATM   12  C10 UNL     1      32.877   5.416  47.587  1.00  0.00     0.055 C 
HETATM   13  C11 UNL     1      31.557   4.839  47.789  1.00  0.00     0.183 C 
HETATM   14  N3  UNL     1      30.424   5.108  47.988  1.00  0.00    -0.430 NA
HETATM   15  C12 UNL     1      29.185   5.481  48.208  1.00  0.00     0.193 C 
HETATM   16  C13 UNL     1      28.391   6.519  48.348  1.00  0.00     0.003 C 
HETATM   17  C14 UNL     1      27.084   5.857  48.582  1.00  0.00     0.049 C 
HETATM   18  C15 UNL     1      26.031   6.234  49.343  1.00  0.00     0.081 C 
HETATM   19  O2  UNL     1      25.248   5.104  49.021  1.00  0.00    -0.323 OA
HETATM   20  C16 UNL     1      23.845   5.110  48.890  1.00  0.00     0.166 C 
HETATM   21  C17 UNL     1      22.978   6.138  48.893  1.00  0.00     0.071 C 
HETATM   22 CL1  UNL     1      21.270   5.815  48.706  1.00  0.00    -0.081 Cl
HETATM   23  H3  UNL     1      27.076   7.750  51.645  1.00  0.00     0.181 HD
HETATM   24  H4  UNL     1      26.906  10.032  50.256  1.00  0.00     0.185 HD
ENDROOT
BRANCH   1  25
HETATM   25  C1  UNL     1      22.427   8.506  48.449  1.00  0.00     0.418 C 
HETATM   26  F1  UNL     1      23.025   9.771  48.453  1.00  0.00    -0.166 F 
HETATM   27  F2  UNL     1      22.208   8.208  47.119  1.00  0.00    -0.166 F 
HETATM   28  F3  UNL     1      21.283   8.610  49.184  1.00  0.00    -0.166 F 
ENDBRANCH   1  25
TORSDOF 1
ENDMDL
MODEL 7
REMARK VINA RESULT:      -7.7      3.650      5.156
REMARK  1 active torsions:
REMARK  status: ('A' for Active; 'I' for Inactive)
REMARK    1  A    between atoms: C1_2  and  C2_5 
ROOT
HETATM    1  C2  UNL     1      26.707   1.537  52.427  1.00  0.00     0.070 C 
HETATM    2  C3  UNL     1      26.797   2.394  51.424  1.00  0.00     0.024 C 
HETATM    3  C4  UNL     1      25.763   2.519  50.346  1.00  0.00     0.180 C 
HETATM    4  N1  UNL     1      26.096   3.443  49.332  1.00  0.00    -0.322 N 
HETATM    5  N2  UNL     1      26.403   4.732  49.698  1.00  0.00    -0.315 N 
HETATM    6  C5  UNL     1      25.595   5.853  50.137  1.00  0.00     0.114 C 
HETATM    7  C6  UNL     1      24.314   5.986  50.553  1.00  0.00    -0.026 C 
HETATM    8  C7  UNL     1      24.293   7.418  50.804  1.00  0.00     0.067 C 
HETATM    9  C8  UNL     1      22.980   8.107  50.742  1.00  0.00     0.179 C 
HETATM   10  O1  UNL     1      22.301   8.043  49.532  1.00  0.00    -0.363 OA
HETATM   11  C9  UNL     1      21.146   8.675  49.173  1.00  0.00     0.137 C 
HETATM   12  C10 UNL     1      20.041   7.989  49.243  1.00  0.00     0.055 C 
HETATM   13  C11 UNL     1      20.231   6.623  49.707  1.00  0.00     0.183 C 
HETATM   14  N3  UNL     1      21.047   5.848  50.068  1.00  0.00    -0.430 NA
HETATM   15  C12 UNL     1      22.007   5.042  50.457  1.00  0.00     0.193 C 
HETATM   16  C13 UNL     1      23.297   4.952  50.690  1.00  0.00     0.003 C 
HETATM   17  C14 UNL     1      23.418   3.537  51.121  1.00  0.00     0.049 C 
HETATM   18  C15 UNL     1      24.421   2.647  50.946  1.00  0.00     0.081 C 
HETATM   19  O2  UNL     1      23.763   1.599  51.627  1.00  0.00    -0.323 OA
HETATM   20  C16 UNL     1      24.406   0.621  52.410  1.00  0.00     0.166 C 
HETATM   21  C17 UNL     1      25.690   0.529  52.800  1.00  0.00     0.071 C 
HETATM   22 CL1  UNL     1      26.188  -0.827  53.784  1.00  0.00    -0.081 Cl
HETATM   23  H3  UNL     1      25.753   3.276  48.393  1.00  0.00     0.181 HD
HETATM   24  H4  UNL     1      27.433   4.942  49.647  1.00  0.00     0.185 HD
ENDROOT
BRANCH   1  25
HETATM   25  C1  UNL     1      27.850   1.569  53.402  1.00  0.00     0.418 C 
HETATM   26  F1  UNL     1      28.419   2.845  53.334  1.00  0.00    -0.166 F 
HETATM   27  F2  UNL     1      27.383   1.444  54.695  1.00  0.00    -0.166 F 
HETATM   28  F3  UNL     1      28.837   0.681  53.087  1.00  0.00    -0.166 F 
ENDBRANCH   1  25
TORSDOF 1
ENDMDL
MODEL 8
REMARK VINA RESULT:      -7.6      9.407     10.958
REMARK  1 active torsions:
REMARK  status: ('A' for Active; 'I' for Inactive)
REMARK    1  A    between atoms: C1_2  and  C2_5 
ROOT
HETATM    1  C2  UNL     1      29.315  11.379  47.969  1.00  0.00     0.070 C 
HETATM    2  C3  UNL     1      29.543  10.285  48.679  1.00  0.00     0.024 C 
HETATM    3  C4  UNL     1      29.356   8.898  48.144  1.00  0.00     0.180 C 
HETATM    4  N1  UNL     1      29.583   7.879  49.093  1.00  0.00    -0.322 N 
HETATM    5  N2  UNL     1      30.786   7.860  49.757  1.00  0.00    -0.315 N 
HETATM    6  C5  UNL     1      32.126   7.471  49.361  1.00  0.00     0.114 C 
HETATM    7  C6  UNL     1      32.718   7.206  48.173  1.00  0.00    -0.026 C 
HETATM    8  C7  UNL     1      34.060   6.897  48.639  1.00  0.00     0.067 C 
HETATM    9  C8  UNL     1      34.902   6.027  47.782  1.00  0.00     0.179 C 
HETATM   10  O1  UNL     1      34.415   4.752  47.521  1.00  0.00    -0.363 OA
HETATM   11  C9  UNL     1      35.031   3.725  46.867  1.00  0.00     0.137 C 
HETATM   12  C10 UNL     1      34.723   3.543  45.614  1.00  0.00     0.055 C 
HETATM   13  C11 UNL     1      33.744   4.494  45.110  1.00  0.00     0.183 C 
HETATM   14  N3  UNL     1      33.080   5.423  45.413  1.00  0.00    -0.430 NA
HETATM   15  C12 UNL     1      32.373   6.451  45.821  1.00  0.00     0.193 C 
HETATM   16  C13 UNL     1      32.127   7.241  46.841  1.00  0.00     0.003 C 
HETATM   17  C14 UNL     1      31.105   8.151  46.267  1.00  0.00     0.049 C 
HETATM   18  C15 UNL     1      30.046   8.761  46.846  1.00  0.00     0.081 C 
HETATM   19  O2  UNL     1      29.626   9.407  45.662  1.00  0.00    -0.323 OA
HETATM   20  C16 UNL     1      29.031  10.682  45.611  1.00  0.00     0.166 C 
HETATM   21  C17 UNL     1      28.859  11.599  46.580  1.00  0.00     0.071 C 
HETATM   22 CL1  UNL     1      28.071  13.111  46.194  1.00  0.00    -0.081 Cl
HETATM   23  H3  UNL     1      29.064   7.012  49.006  1.00  0.00     0.181 HD
HETATM   24  H4  UNL     1      30.716   8.194  50.752  1.00  0.00     0.185 HD
ENDROOT
BRANCH   1  25
HETATM   25  C1  UNL     1      29.561  12.674  48.692  1.00  0.00     0.418 C 
HETATM   26  F1  UNL     1      30.551  12.434  49.650  1.00  0.00    -0.166 F 
HETATM   27  F2  UNL     1      30.102  13.609  47.832  1.00  0.00    -0.166 F 
HETATM   28  F3  UNL     1      28.461  13.119  49.365  1.00  0.00    -0.166 F 
ENDBRANCH   1  25
TORSDOF 1
ENDMDL
MODEL 9
REMARK VINA RESULT:      -7.5      7.191     10.411
REMARK  1 active torsions:
REMARK  status: ('A' for Active; 'I' for Inactive)
REMARK    1  A    between atoms: C1_2  and  C2_5 
ROOT
HETATM    1  C2  UNL     1      31.615   9.995  46.395  1.00  0.00     0.070 C 
HETATM    2  C3  UNL     1      30.443   9.652  45.886  1.00  0.00     0.024 C 
HETATM    3  C4  UNL     1      30.044   8.234  45.608  1.00  0.00     0.180 C 
HETATM    4  N1  UNL     1      28.781   8.100  44.994  1.00  0.00    -0.322 N 
HETATM    5  N2  UNL     1      27.693   8.676  45.606  1.00  0.00    -0.315 N 
HETATM    6  C5  UNL     1      26.909   8.313  46.770  1.00  0.00     0.114 C 
HETATM    7  C6  UNL     1      27.082   7.436  47.787  1.00  0.00    -0.026 C 
HETATM    8  C7  UNL     1      25.855   7.685  48.527  1.00  0.00     0.067 C 
HETATM    9  C8  UNL     1      25.342   6.595  49.393  1.00  0.00     0.179 C 
HETATM   10  O1  UNL     1      25.029   5.397  48.764  1.00  0.00    -0.363 OA
HETATM   11  C9  UNL     1      24.441   4.287  49.297  1.00  0.00     0.137 C 
HETATM   12  C10 UNL     1      25.223   3.306  49.650  1.00  0.00     0.055 C 
HETATM   13  C11 UNL     1      26.634   3.568  49.409  1.00  0.00     0.183 C 
HETATM   14  N3  UNL     1      27.392   4.374  48.993  1.00  0.00    -0.430 NA
HETATM   15  C12 UNL     1      28.173   5.315  48.516  1.00  0.00     0.193 C 
HETATM   16  C13 UNL     1      28.199   6.530  48.019  1.00  0.00     0.003 C 
HETATM   17  C14 UNL     1      29.650   6.712  47.768  1.00  0.00     0.049 C 
HETATM   18  C15 UNL     1      30.296   7.397  46.797  1.00  0.00     0.081 C 
HETATM   19  O2  UNL     1      31.588   7.072  47.268  1.00  0.00    -0.323 OA
HETATM   20  C16 UNL     1      32.708   7.922  47.194  1.00  0.00     0.166 C 
HETATM   21  C17 UNL     1      32.795   9.211  46.820  1.00  0.00     0.071 C 
HETATM   22 CL1  UNL     1      34.354  10.001  46.835  1.00  0.00    -0.081 Cl
HETATM   23  H3  UNL     1      28.627   7.317  44.369  1.00  0.00     0.181 HD
HETATM   24  H4  UNL     1      27.366   9.554  45.128  1.00  0.00     0.185 HD
ENDROOT
BRANCH   1  25
HETATM   25  C1  UNL     1      31.818  11.471  46.596  1.00  0.00     0.418 C 
HETATM   26  F1  UNL     1      30.575  12.089  46.427  1.00  0.00    -0.166 F 
HETATM   27  F2  UNL     1      32.184  11.732  47.902  1.00  0.00    -0.166 F 
HETATM   28  F3  UNL     1      32.659  12.017  45.671  1.00  0.00    -0.166 F 
ENDBRANCH   1  25
TORSDOF 1
ENDMDL
