MODEL 1
REMARK VINA RESULT:      -9.4      0.000      0.000
REMARK  3 active torsions:
REMARK  status: ('A' for Active; 'I' for Inactive)
REMARK    1  A    between atoms: O1_2  and  C2_3 
REMARK    2  A    between atoms: C16_19  and  C17_20 
REMARK    3  A    between atoms: C17_20  and  S1_21 
ROOT
HETATM    1  C2  UNL     1      21.090   2.634  50.354  1.00  0.00     0.064 C 
HETATM    2  C3  UNL     1      21.388   3.827  49.720  1.00  0.00     0.034 C 
HETATM    3  C4  UNL     1      21.882   5.244  49.635  1.00  0.00    -0.001 C 
HETATM    4  C5  UNL     1      22.295   6.534  49.418  1.00  0.00    -0.022 C 
HETATM    5  C6  UNL     1      22.895   7.160  50.679  1.00  0.00     0.065 C 
HETATM    6  C7  UNL     1      23.433   5.982  51.471  1.00  0.00    -0.053 A 
HETATM    7  C8  UNL     1      23.134   5.471  52.707  1.00  0.00     0.008 A 
HETATM    8  C9  UNL     1      23.712   4.187  52.839  1.00  0.00     0.011 A 
HETATM    9  C10 UNL     1      24.344   3.962  51.693  1.00  0.00    -0.012 A 
HETATM   10  C11 UNL     1      24.828   4.161  50.428  1.00  0.00     0.042 A 
HETATM   11  C12 UNL     1      24.204   5.386  50.447  1.00  0.00     0.037 A 
HETATM   12  N1  UNL     1      25.632   3.113  49.907  1.00  0.00    -0.326 N 
HETATM   13  C13 UNL     1      25.602   2.168  51.035  1.00  0.00     0.236 C 
HETATM   14  O2  UNL     1      26.722   1.534  51.022  1.00  0.00    -0.272 OA
HETATM   15  C14 UNL     1      24.277   2.520  51.511  1.00  0.00     0.165 C 
HETATM   16  C15 UNL     1      23.580   1.659  52.448  1.00  0.00     0.049 A 
HETATM   17  C16 UNL     1      23.988   0.714  53.352  1.00  0.00     0.048 A 
HETATM   18  C19 UNL     1      22.884   0.149  53.945  1.00  0.00    -0.015 A 
HETATM   19  C20 UNL     1      21.803   0.767  53.387  1.00  0.00     0.020 A 
HETATM   20  N2  UNL     1      22.200   1.711  52.454  1.00  0.00    -0.345 N 
HETATM   21  C21 UNL     1      21.292   2.509  51.785  1.00  0.00     0.193 C 
HETATM   22  C22 UNL     1      20.574   0.154  54.029  1.00  0.00     0.058 C 
HETATM   23  C23 UNL     1      20.624  -1.329  53.742  1.00  0.00     0.006 C 
HETATM   24  C24 UNL     1      21.736  -1.964  54.536  1.00  0.00     0.005 C 
HETATM   25  C25 UNL     1      22.693  -0.911  54.981  1.00  0.00     0.042 C 
HETATM   26  H12 UNL     1      25.974   3.377  48.934  1.00  0.00     0.169 HD
ENDROOT
BRANCH  17  27
HETATM   27  C17 UNL     1      25.300   0.393  53.640  1.00  0.00    -0.069 C 
BRANCH  27  28
HETATM   28  S1  UNL     1      26.658   0.076  53.961  1.00  0.00    -0.071 SA
HETATM   29  C18 UNL     1      28.274  -0.283  54.318  1.00  0.00     0.083 A 
HETATM   30  O3  UNL     1      27.857  -1.268  53.602  1.00  0.00     0.000 OA
HETATM   31  O4  UNL     1      29.138  -1.318  54.019  1.00  0.00     0.000 OA
HETATM   32  H14 UNL     1      30.148  -1.129  53.850  1.00  0.00     0.000 HD
ENDBRANCH  27  28
ENDBRANCH  17  27
BRANCH   1  33
HETATM   33  O1  UNL     1      20.612   1.787  49.381  1.00  0.00    -0.359 OA
HETATM   34  C1  UNL     1      21.444   1.035  48.519  1.00  0.00     0.209 C 
ENDBRANCH   1  33
TORSDOF 3
ENDMDL
MODEL 2
REMARK VINA RESULT:      -9.4      1.803      2.336
REMARK  3 active torsions:
REMARK  status: ('A' for Active; 'I' for Inactive)
REMARK    1  A    between atoms: O1_2  and  C2_3 
REMARK    2  A    between atoms: C16_19  and  C17_20 
REMARK    3  A    between atoms: C17_20  and  S1_21 
ROOT
HETATM    1  C2  UNL     1      22.135   4.036  48.270  1.00  0.00     0.064 C 
HETATM    2  C3  UNL     1      22.793   5.122  47.726  1.00  0.00     0.034 C 
HETATM    3  C4  UNL     1      23.485   6.456  47.753  1.00  0.00    -0.001 C 
HETATM    4  C5  UNL     1      24.127   7.663  47.634  1.00  0.00    -0.022 C 
HETATM    5  C6  UNL     1      24.359   8.322  48.996  1.00  0.00     0.065 C 
HETATM    6  C7  UNL     1      24.429   7.162  49.973  1.00  0.00    -0.053 A 
HETATM    7  C8  UNL     1      23.667   6.803  51.055  1.00  0.00     0.008 A 
HETATM    8  C9  UNL     1      23.978   5.476  51.430  1.00  0.00     0.011 A 
HETATM    9  C10 UNL     1      24.915   5.075  50.579  1.00  0.00    -0.012 A 
HETATM   10  C11 UNL     1      25.815   5.101  49.547  1.00  0.00     0.042 A 
HETATM   11  C12 UNL     1      25.402   6.390  49.299  1.00  0.00     0.037 A 
HETATM   12  N1  UNL     1      26.587   3.922  49.377  1.00  0.00    -0.326 N 
HETATM   13  C13 UNL     1      26.049   3.091  50.466  1.00  0.00     0.236 C 
HETATM   14  O2  UNL     1      27.007   2.328  50.863  1.00  0.00    -0.272 OA
HETATM   15  C14 UNL     1      24.706   3.642  50.447  1.00  0.00     0.165 C 
HETATM   16  C15 UNL     1      23.622   2.957  51.127  1.00  0.00     0.049 A 
HETATM   17  C16 UNL     1      23.568   2.055  52.155  1.00  0.00     0.048 A 
HETATM   18  C19 UNL     1      22.261   1.681  52.361  1.00  0.00    -0.015 A 
HETATM   19  C20 UNL     1      21.526   2.373  51.442  1.00  0.00     0.020 A 
HETATM   20  N2  UNL     1      22.341   3.176  50.660  1.00  0.00    -0.345 N 
HETATM   21  C21 UNL     1      21.831   4.015  49.689  1.00  0.00     0.193 C 
HETATM   22  C22 UNL     1      20.079   1.972  51.653  1.00  0.00     0.058 C 
HETATM   23  C23 UNL     1      20.008   0.474  51.464  1.00  0.00     0.006 C 
HETATM   24  C24 UNL     1      20.690  -0.217  52.616  1.00  0.00     0.005 C 
HETATM   25  C25 UNL     1      21.587   0.748  53.314  1.00  0.00     0.042 C 
HETATM   26  H12 UNL     1      27.266   4.055  48.568  1.00  0.00     0.169 HD
ENDROOT
BRANCH  17  27
HETATM   27  C17 UNL     1      24.649   1.604  52.887  1.00  0.00    -0.069 C 
BRANCH  27  28
HETATM   28  S1  UNL     1      25.755   1.117  53.653  1.00  0.00    -0.071 SA
HETATM   29  C18 UNL     1      27.050   0.548  54.584  1.00  0.00     0.083 A 
HETATM   30  O3  UNL     1      27.376   1.746  54.244  1.00  0.00     0.000 OA
HETATM   31  O4  UNL     1      28.259   1.067  55.005  1.00  0.00     0.000 OA
HETATM   32  H14 UNL     1      28.639   0.825  55.943  1.00  0.00     0.000 HD
ENDBRANCH  27  28
ENDBRANCH  17  27
BRANCH   1  33
HETATM   33  O1  UNL     1      21.889   3.170  47.230  1.00  0.00    -0.359 OA
HETATM   34  C1  UNL     1      21.806   3.574  45.877  1.00  0.00     0.209 C 
ENDBRANCH   1  33
TORSDOF 3
ENDMDL
MODEL 3
REMARK VINA RESULT:      -9.2      3.042      5.311
REMARK  3 active torsions:
REMARK  status: ('A' for Active; 'I' for Inactive)
REMARK    1  A    between atoms: O1_2  and  C2_3 
REMARK    2  A    between atoms: C16_19  and  C17_20 
REMARK    3  A    between atoms: C17_20  and  S1_21 
ROOT
HETATM    1  C2  UNL     1      24.599   5.147  49.959  1.00  0.00     0.064 C 
HETATM    2  C3  UNL     1      23.812   5.699  48.965  1.00  0.00     0.034 C 
HETATM    3  C4  UNL     1      22.941   5.676  47.741  1.00  0.00    -0.001 C 
HETATM    4  C5  UNL     1      22.141   5.800  46.633  1.00  0.00    -0.022 C 
HETATM    5  C6  UNL     1      21.778   4.438  46.037  1.00  0.00     0.065 C 
HETATM    6  C7  UNL     1      21.840   3.479  47.212  1.00  0.00    -0.053 A 
HETATM    7  C8  UNL     1      22.611   2.378  47.481  1.00  0.00     0.008 A 
HETATM    8  C9  UNL     1      22.477   2.031  48.845  1.00  0.00     0.011 A 
HETATM    9  C10 UNL     1      21.632   2.917  49.357  1.00  0.00    -0.012 A 
HETATM   10  C11 UNL     1      20.769   3.978  49.438  1.00  0.00     0.042 A 
HETATM   11  C12 UNL     1      21.006   4.195  48.100  1.00  0.00     0.037 A 
HETATM   12  N1  UNL     1      20.174   4.189  50.709  1.00  0.00    -0.326 N 
HETATM   13  C13 UNL     1      20.789   3.094  51.477  1.00  0.00     0.236 C 
HETATM   14  O2  UNL     1      19.935   2.739  52.372  1.00  0.00    -0.272 OA
HETATM   15  C14 UNL     1      22.042   3.061  50.745  1.00  0.00     0.165 C 
HETATM   16  C15 UNL     1      23.189   2.356  51.285  1.00  0.00     0.049 A 
HETATM   17  C16 UNL     1      23.337   1.338  52.189  1.00  0.00     0.048 A 
HETATM   18  C19 UNL     1      24.677   1.095  52.381  1.00  0.00    -0.015 A 
HETATM   19  C20 UNL     1      25.336   1.979  51.578  1.00  0.00     0.020 A 
HETATM   20  N2  UNL     1      24.441   2.777  50.882  1.00  0.00    -0.345 N 
HETATM   21  C21 UNL     1      24.859   3.720  49.963  1.00  0.00     0.193 C 
HETATM   22  C22 UNL     1      26.818   1.727  51.777  1.00  0.00     0.058 C 
HETATM   23  C23 UNL     1      27.102   1.933  53.248  1.00  0.00     0.006 C 
HETATM   24  C24 UNL     1      26.487   0.814  54.047  1.00  0.00     0.005 C 
HETATM   25  C25 UNL     1      25.444   0.133  53.228  1.00  0.00     0.042 C 
HETATM   26  H12 UNL     1      19.508   5.018  50.657  1.00  0.00     0.169 HD
ENDROOT
BRANCH  17  27
HETATM   27  C17 UNL     1      22.308   0.649  52.798  1.00  0.00    -0.069 C 
BRANCH  27  28
HETATM   28  S1  UNL     1      21.255  -0.088  53.428  1.00  0.00    -0.071 SA
HETATM   29  C18 UNL     1      20.018  -0.984  54.161  1.00  0.00     0.083 A 
HETATM   30  O3  UNL     1      19.488  -0.473  53.105  1.00  0.00     0.000 OA
HETATM   31  O4  UNL     1      18.693  -1.245  53.873  1.00  0.00     0.000 OA
HETATM   32  H14 UNL     1      18.280  -2.175  54.090  1.00  0.00     0.000 HD
ENDBRANCH  27  28
ENDBRANCH  17  27
BRANCH   1  33
HETATM   33  O1  UNL     1      24.994   6.190  50.764  1.00  0.00    -0.359 OA
HETATM   34  C1  UNL     1      25.627   7.358  50.278  1.00  0.00     0.209 C 
ENDBRANCH   1  33
TORSDOF 3
ENDMDL
MODEL 4
REMARK VINA RESULT:      -8.6      3.048      7.502
REMARK  3 active torsions:
REMARK  status: ('A' for Active; 'I' for Inactive)
REMARK    1  A    between atoms: O1_2  and  C2_3 
REMARK    2  A    between atoms: C16_19  and  C17_20 
REMARK    3  A    between atoms: C17_20  and  S1_21 
ROOT
HETATM    1  C2  UNL     1      24.807   2.459  51.924  1.00  0.00     0.064 C 
HETATM    2  C3  UNL     1      24.066   1.501  52.590  1.00  0.00     0.034 C 
HETATM    3  C4  UNL     1      22.838   0.933  53.245  1.00  0.00    -0.001 C 
HETATM    4  C5  UNL     1      21.797   0.299  53.875  1.00  0.00    -0.022 C 
HETATM    5  C6  UNL     1      20.508   1.123  53.816  1.00  0.00     0.065 C 
HETATM    6  C7  UNL     1      20.649   1.961  52.558  1.00  0.00    -0.053 A 
HETATM    7  C8  UNL     1      20.701   3.313  52.337  1.00  0.00     0.008 A 
HETATM    8  C9  UNL     1      21.142   3.557  51.016  1.00  0.00     0.011 A 
HETATM    9  C10 UNL     1      21.337   2.359  50.478  1.00  0.00    -0.012 A 
HETATM   10  C11 UNL     1      21.387   0.996  50.351  1.00  0.00     0.042 A 
HETATM   11  C12 UNL     1      20.956   0.919  51.655  1.00  0.00     0.037 A 
HETATM   12  N1  UNL     1      21.780   0.513  49.075  1.00  0.00    -0.326 N 
HETATM   13  C13 UNL     1      21.995   1.783  48.363  1.00  0.00     0.236 C 
HETATM   14  O2  UNL     1      21.714   1.571  47.126  1.00  0.00    -0.272 OA
HETATM   15  C14 UNL     1      22.415   2.553  49.521  1.00  0.00     0.165 C 
HETATM   16  C15 UNL     1      23.070   3.836  49.351  1.00  0.00     0.049 A 
HETATM   17  C16 UNL     1      23.092   4.764  48.343  1.00  0.00     0.048 A 
HETATM   18  C19 UNL     1      23.941   5.788  48.690  1.00  0.00    -0.015 A 
HETATM   19  C20 UNL     1      24.429   5.468  49.923  1.00  0.00     0.020 A 
HETATM   20  N2  UNL     1      23.907   4.262  50.364  1.00  0.00    -0.345 N 
HETATM   21  C21 UNL     1      24.208   3.741  51.608  1.00  0.00     0.193 C 
HETATM   22  C22 UNL     1      25.370   6.588  50.323  1.00  0.00     0.058 C 
HETATM   23  C23 UNL     1      26.442   6.658  49.260  1.00  0.00     0.006 C 
HETATM   24  C24 UNL     1      25.853   7.191  47.979  1.00  0.00     0.005 C 
HETATM   25  C25 UNL     1      24.370   7.051  48.017  1.00  0.00     0.042 C 
HETATM   26  H12 UNL     1      21.764  -0.551  49.077  1.00  0.00     0.169 HD
ENDROOT
BRANCH  17  27
HETATM   27  C17 UNL     1      22.364   4.695  47.172  1.00  0.00    -0.069 C 
BRANCH  27  28
HETATM   28  S1  UNL     1      21.631   4.614  45.946  1.00  0.00    -0.071 SA
HETATM   29  C18 UNL     1      20.743   4.503  44.507  1.00  0.00     0.083 A 
HETATM   30  O3  UNL     1      21.615   3.558  44.444  1.00  0.00     0.000 OA
HETATM   31  O4  UNL     1      20.771   3.680  43.399  1.00  0.00     0.000 OA
HETATM   32  H14 UNL     1      19.887   3.411  42.920  1.00  0.00     0.000 HD
ENDBRANCH  27  28
ENDBRANCH  17  27
BRANCH   1  33
HETATM   33  O1  UNL     1      26.054   1.914  51.723  1.00  0.00    -0.359 OA
HETATM   34  C1  UNL     1      26.367   0.558  51.977  1.00  0.00     0.209 C 
ENDBRANCH   1  33
TORSDOF 3
ENDMDL
MODEL 5
REMARK VINA RESULT:      -8.3      9.263     12.828
REMARK  3 active torsions:
REMARK  status: ('A' for Active; 'I' for Inactive)
REMARK    1  A    between atoms: O1_2  and  C2_3 
REMARK    2  A    between atoms: C16_19  and  C17_20 
REMARK    3  A    between atoms: C17_20  and  S1_21 
ROOT
HETATM    1  C2  UNL     1      33.156   6.690  44.516  1.00  0.00     0.064 C 
HETATM    2  C3  UNL     1      33.560   5.405  44.825  1.00  0.00     0.034 C 
HETATM    3  C4  UNL     1      34.141   4.326  45.696  1.00  0.00    -0.001 C 
HETATM    4  C5  UNL     1      34.654   3.253  46.379  1.00  0.00    -0.022 C 
HETATM    5  C6  UNL     1      35.032   3.619  47.816  1.00  0.00     0.065 C 
HETATM    6  C7  UNL     1      34.111   4.773  48.170  1.00  0.00    -0.053 A 
HETATM    7  C8  UNL     1      34.340   6.080  48.514  1.00  0.00     0.008 A 
HETATM    8  C9  UNL     1      33.128   6.804  48.446  1.00  0.00     0.011 A 
HETATM    9  C10 UNL     1      32.207   5.923  48.073  1.00  0.00    -0.012 A 
HETATM   10  C11 UNL     1      31.635   4.735  47.705  1.00  0.00     0.042 A 
HETATM   11  C12 UNL     1      32.885   4.170  47.810  1.00  0.00     0.037 A 
HETATM   12  N1  UNL     1      30.233   4.770  47.487  1.00  0.00    -0.326 N 
HETATM   13  C13 UNL     1      29.955   6.189  47.763  1.00  0.00     0.236 C 
HETATM   14  O2  UNL     1      28.763   6.252  48.242  1.00  0.00    -0.272 OA
HETATM   15  C14 UNL     1      31.238   6.699  47.314  1.00  0.00     0.165 C 
HETATM   16  C15 UNL     1      31.417   8.116  47.061  1.00  0.00     0.049 A 
HETATM   17  C16 UNL     1      30.775   9.246  47.495  1.00  0.00     0.048 A 
HETATM   18  C19 UNL     1      31.329  10.345  46.882  1.00  0.00    -0.015 A 
HETATM   19  C20 UNL     1      32.317   9.863  46.073  1.00  0.00     0.020 A 
HETATM   20  N2  UNL     1      32.400   8.483  46.162  1.00  0.00    -0.345 N 
HETATM   21  C21 UNL     1      33.356   7.759  45.477  1.00  0.00     0.193 C 
HETATM   22  C22 UNL     1      32.940  11.063  45.387  1.00  0.00     0.058 C 
HETATM   23  C23 UNL     1      31.832  11.754  44.625  1.00  0.00     0.006 C 
HETATM   24  C24 UNL     1      30.882  12.411  45.592  1.00  0.00     0.005 C 
HETATM   25  C25 UNL     1      31.059  11.813  46.946  1.00  0.00     0.042 C 
HETATM   26  H12 UNL     1      29.888   3.796  47.230  1.00  0.00     0.169 HD
ENDROOT
BRANCH  17  27
HETATM   27  C17 UNL     1      29.748   9.281  48.417  1.00  0.00    -0.069 C 
BRANCH  27  28
HETATM   28  S1  UNL     1      28.695   9.298  49.386  1.00  0.00    -0.071 SA
HETATM   29  C18 UNL     1      27.439   9.292  50.522  1.00  0.00     0.083 A 
HETATM   30  O3  UNL     1      27.003   9.996  49.536  1.00  0.00     0.000 OA
HETATM   31  O4  UNL     1      26.172   9.839  50.587  1.00  0.00     0.000 OA
HETATM   32  H14 UNL     1      25.398   9.320  51.052  1.00  0.00     0.000 HD
ENDBRANCH  27  28
ENDBRANCH  17  27
BRANCH   1  33
HETATM   33  O1  UNL     1      32.633   6.637  43.245  1.00  0.00    -0.359 OA
HETATM   34  C1  UNL     1      33.213   5.896  42.189  1.00  0.00     0.209 C 
ENDBRANCH   1  33
TORSDOF 3
ENDMDL
MODEL 6
REMARK VINA RESULT:      -8.0      3.594      7.904
REMARK  3 active torsions:
REMARK  status: ('A' for Active; 'I' for Inactive)
REMARK    1  A    between atoms: O1_2  and  C2_3 
REMARK    2  A    between atoms: C16_19  and  C17_20 
REMARK    3  A    between atoms: C17_20  and  S1_21 
ROOT
HETATM    1  C2  UNL     1      26.191   4.420  49.755  1.00  0.00     0.064 C 
HETATM    2  C3  UNL     1      26.398   3.182  50.336  1.00  0.00     0.034 C 
HETATM    3  C4  UNL     1      26.208   2.109  51.371  1.00  0.00    -0.001 C 
HETATM    4  C5  UNL     1      26.133   1.052  52.242  1.00  0.00    -0.022 C 
HETATM    5  C6  UNL     1      25.106   1.298  53.350  1.00  0.00     0.065 C 
HETATM    6  C7  UNL     1      24.098   2.250  52.730  1.00  0.00    -0.053 A 
HETATM    7  C8  UNL     1      23.705   3.526  53.039  1.00  0.00     0.008 A 
HETATM    8  C9  UNL     1      22.958   4.062  51.964  1.00  0.00     0.011 A 
HETATM    9  C10 UNL     1      22.915   3.103  51.048  1.00  0.00    -0.012 A 
HETATM   10  C11 UNL     1      23.115   1.893  50.437  1.00  0.00     0.042 A 
HETATM   11  C12 UNL     1      23.824   1.515  51.554  1.00  0.00     0.037 A 
HETATM   12  N1  UNL     1      22.512   1.742  49.162  1.00  0.00    -0.326 N 
HETATM   13  C13 UNL     1      21.874   3.059  49.010  1.00  0.00     0.236 C 
HETATM   14  O2  UNL     1      20.815   2.884  48.301  1.00  0.00    -0.272 OA
HETATM   15  C14 UNL     1      22.855   3.807  49.776  1.00  0.00     0.165 C 
HETATM   16  C15 UNL     1      22.899   5.255  49.697  1.00  0.00     0.049 A 
HETATM   17  C16 UNL     1      21.985   6.215  49.353  1.00  0.00     0.048 A 
HETATM   18  C19 UNL     1      22.588   7.450  49.394  1.00  0.00    -0.015 A 
HETATM   19  C20 UNL     1      23.880   7.222  49.771  1.00  0.00     0.020 A 
HETATM   20  N2  UNL     1      24.106   5.869  49.969  1.00  0.00    -0.345 N 
HETATM   21  C21 UNL     1      25.325   5.385  50.404  1.00  0.00     0.193 C 
HETATM   22  C22 UNL     1      24.562   8.575  49.822  1.00  0.00     0.058 C 
HETATM   23  C23 UNL     1      24.444   9.176  48.439  1.00  0.00     0.006 C 
HETATM   24  C24 UNL     1      23.012   9.562  48.174  1.00  0.00     0.005 C 
HETATM   25  C25 UNL     1      22.118   8.842  49.125  1.00  0.00     0.042 C 
HETATM   26  H12 UNL     1      22.709   0.764  48.788  1.00  0.00     0.169 HD
ENDROOT
BRANCH  17  27
HETATM   27  C17 UNL     1      20.662   5.985  49.034  1.00  0.00    -0.069 C 
BRANCH  27  28
HETATM   28  S1  UNL     1      19.289   5.770  48.690  1.00  0.00    -0.071 SA
HETATM   29  C18 UNL     1      17.658   5.542  48.292  1.00  0.00     0.083 A 
HETATM   30  O3  UNL     1      17.807   4.998  49.450  1.00  0.00     0.000 OA
HETATM   31  O4  UNL     1      16.573   4.949  48.907  1.00  0.00     0.000 OA
HETATM   32  H14 UNL     1      15.620   5.355  48.799  1.00  0.00     0.000 HD
ENDBRANCH  27  28
ENDBRANCH  17  27
BRANCH   1  33
HETATM   33  O1  UNL     1      26.945   4.439  48.605  1.00  0.00    -0.359 OA
HETATM   34  C1  UNL     1      28.096   5.245  48.435  1.00  0.00     0.209 C 
ENDBRANCH   1  33
TORSDOF 3
ENDMDL
MODEL 7
REMARK VINA RESULT:      -7.9      2.813      7.644
REMARK  3 active torsions:
REMARK  status: ('A' for Active; 'I' for Inactive)
REMARK    1  A    between atoms: O1_2  and  C2_3 
REMARK    2  A    between atoms: C16_19  and  C17_20 
REMARK    3  A    between atoms: C17_20  and  S1_21 
ROOT
HETATM    1  C2  UNL     1      24.684   2.425  51.890  1.00  0.00     0.064 C 
HETATM    2  C3  UNL     1      24.230   1.190  52.314  1.00  0.00     0.034 C 
HETATM    3  C4  UNL     1      23.235   0.224  52.893  1.00  0.00    -0.001 C 
HETATM    4  C5  UNL     1      22.428  -0.759  53.409  1.00  0.00    -0.022 C 
HETATM    5  C6  UNL     1      21.027  -0.235  53.732  1.00  0.00     0.065 C 
HETATM    6  C7  UNL     1      20.823   0.924  52.772  1.00  0.00    -0.053 A 
HETATM    7  C8  UNL     1      20.611   2.265  52.958  1.00  0.00     0.008 A 
HETATM    8  C9  UNL     1      20.790   2.945  51.732  1.00  0.00     0.011 A 
HETATM    9  C10 UNL     1      21.096   2.006  50.845  1.00  0.00    -0.012 A 
HETATM   10  C11 UNL     1      21.355   0.770  50.314  1.00  0.00     0.042 A 
HETATM   11  C12 UNL     1      21.155   0.253  51.573  1.00  0.00     0.037 A 
HETATM   12  N1  UNL     1      21.617   0.744  48.919  1.00  0.00    -0.326 N 
HETATM   13  C13 UNL     1      21.499   2.176  48.599  1.00  0.00     0.236 C 
HETATM   14  O2  UNL     1      21.065   2.255  47.390  1.00  0.00    -0.272 OA
HETATM   15  C14 UNL     1      21.961   2.672  49.883  1.00  0.00     0.165 C 
HETATM   16  C15 UNL     1      22.355   4.059  50.036  1.00  0.00     0.049 A 
HETATM   17  C16 UNL     1      22.061   5.210  49.353  1.00  0.00     0.048 A 
HETATM   18  C19 UNL     1      22.768   6.254  49.900  1.00  0.00    -0.015 A 
HETATM   19  C20 UNL     1      23.493   5.718  50.925  1.00  0.00     0.020 A 
HETATM   20  N2  UNL     1      23.258   4.357  51.038  1.00  0.00    -0.345 N 
HETATM   21  C21 UNL     1      23.835   3.592  52.033  1.00  0.00     0.193 C 
HETATM   22  C22 UNL     1      24.282   6.857  51.540  1.00  0.00     0.058 C 
HETATM   23  C23 UNL     1      25.145   7.435  50.442  1.00  0.00     0.006 C 
HETATM   24  C24 UNL     1      24.280   8.162  49.445  1.00  0.00     0.005 C 
HETATM   25  C25 UNL     1      22.866   7.713  49.592  1.00  0.00     0.042 C 
HETATM   26  H12 UNL     1      21.781  -0.260  48.606  1.00  0.00     0.169 HD
ENDROOT
BRANCH  17  27
HETATM   27  C17 UNL     1      21.179   5.312  48.296  1.00  0.00    -0.069 C 
BRANCH  27  28
HETATM   28  S1  UNL     1      20.250   5.436  47.214  1.00  0.00    -0.071 SA
HETATM   29  C18 UNL     1      19.135   5.601  45.950  1.00  0.00     0.083 A 
HETATM   30  O3  UNL     1      18.774   4.542  46.586  1.00  0.00     0.000 OA
HETATM   31  O4  UNL     1      18.030   4.894  45.518  1.00  0.00     0.000 OA
HETATM   32  H14 UNL     1      17.208   5.393  45.118  1.00  0.00     0.000 HD
ENDBRANCH  27  28
ENDBRANCH  17  27
BRANCH   1  33
HETATM   33  O1  UNL     1      25.958   2.226  51.410  1.00  0.00    -0.359 OA
HETATM   34  C1  UNL     1      27.083   2.006  52.239  1.00  0.00     0.209 C 
ENDBRANCH   1  33
TORSDOF 3
ENDMDL
MODEL 8
REMARK VINA RESULT:      -7.7      3.607      6.877
REMARK  3 active torsions:
REMARK  status: ('A' for Active; 'I' for Inactive)
REMARK    1  A    between atoms: O1_2  and  C2_3 
REMARK    2  A    between atoms: C16_19  and  C17_20 
REMARK    3  A    between atoms: C17_20  and  S1_21 
ROOT
HETATM    1  C2  UNL     1      21.181   2.145  50.576  1.00  0.00     0.064 C 
HETATM    2  C3  UNL     1      21.679   1.526  51.708  1.00  0.00     0.034 C 
HETATM    3  C4  UNL     1      22.742   0.910  52.574  1.00  0.00    -0.001 C 
HETATM    4  C5  UNL     1      23.609   0.320  53.459  1.00  0.00    -0.022 C 
HETATM    5  C6  UNL     1      25.053   0.361  52.956  1.00  0.00     0.065 C 
HETATM    6  C7  UNL     1      25.109   1.582  52.056  1.00  0.00    -0.053 A 
HETATM    7  C8  UNL     1      25.374   1.748  50.722  1.00  0.00     0.008 A 
HETATM    8  C9  UNL     1      24.998   3.053  50.326  1.00  0.00     0.011 A 
HETATM    9  C10 UNL     1      24.527   3.636  51.422  1.00  0.00    -0.012 A 
HETATM   10  C11 UNL     1      24.160   3.817  52.729  1.00  0.00     0.042 A 
HETATM   11  C12 UNL     1      24.565   2.523  52.959  1.00  0.00     0.037 A 
HETATM   12  N1  UNL     1      23.662   5.106  53.053  1.00  0.00    -0.326 N 
HETATM   13  C13 UNL     1      23.747   5.764  51.739  1.00  0.00     0.236 C 
HETATM   14  O2  UNL     1      23.968   7.012  51.958  1.00  0.00    -0.272 OA
HETATM   15  C14 UNL     1      23.522   4.571  50.942  1.00  0.00     0.165 C 
HETATM   16  C15 UNL     1      23.185   4.681  49.535  1.00  0.00     0.049 A 
HETATM   17  C16 UNL     1      23.376   5.650  48.587  1.00  0.00     0.048 A 
HETATM   18  C19 UNL     1      22.792   5.252  47.408  1.00  0.00    -0.015 A 
HETATM   19  C20 UNL     1      22.245   4.027  47.657  1.00  0.00     0.020 A 
HETATM   20  N2  UNL     1      22.472   3.642  48.969  1.00  0.00    -0.345 N 
HETATM   21  C21 UNL     1      22.062   2.416  49.457  1.00  0.00     0.193 C 
HETATM   22  C22 UNL     1      21.594   3.571  46.367  1.00  0.00     0.058 C 
HETATM   23  C23 UNL     1      20.565   4.617  46.003  1.00  0.00     0.006 C 
HETATM   24  C24 UNL     1      21.258   5.882  45.569  1.00  0.00     0.005 C 
HETATM   25  C25 UNL     1      22.668   5.868  46.052  1.00  0.00     0.042 C 
HETATM   26  H12 UNL     1      23.429   5.147  54.091  1.00  0.00     0.169 HD
ENDROOT
BRANCH  17  27
HETATM   27  C17 UNL     1      24.065   6.832  48.774  1.00  0.00    -0.069 C 
BRANCH  27  28
HETATM   28  S1  UNL     1      24.759   8.066  48.983  1.00  0.00    -0.071 SA
HETATM   29  C18 UNL     1      25.598   9.520  49.210  1.00  0.00     0.083 A 
HETATM   30  O3  UNL     1      26.083   8.707  50.083  1.00  0.00     0.000 OA
HETATM   31  O4  UNL     1      26.597   9.954  50.059  1.00  0.00     0.000 OA
HETATM   32  H14 UNL     1      27.321  10.623  49.723  1.00  0.00     0.000 HD
ENDBRANCH  27  28
ENDBRANCH  17  27
BRANCH   1  33
HETATM   33  O1  UNL     1      19.840   2.351  50.806  1.00  0.00    -0.359 OA
HETATM   34  C1  UNL     1      19.338   3.361  51.661  1.00  0.00     0.209 C 
ENDBRANCH   1  33
TORSDOF 3
ENDMDL
MODEL 9
REMARK VINA RESULT:      -7.6      4.318      7.643
REMARK  3 active torsions:
REMARK  status: ('A' for Active; 'I' for Inactive)
REMARK    1  A    between atoms: O1_2  and  C2_3 
REMARK    2  A    between atoms: C16_19  and  C17_20 
REMARK    3  A    between atoms: C17_20  and  S1_21 
ROOT
HETATM    1  C2  UNL     1      19.785   4.667  48.464  1.00  0.00     0.064 C 
HETATM    2  C3  UNL     1      19.625   3.685  49.424  1.00  0.00     0.034 C 
HETATM    3  C4  UNL     1      20.021   2.471  50.218  1.00  0.00    -0.001 C 
HETATM    4  C5  UNL     1      20.254   1.374  51.007  1.00  0.00    -0.022 C 
HETATM    5  C6  UNL     1      21.641   0.777  50.759  1.00  0.00     0.065 C 
HETATM    6  C7  UNL     1      22.479   1.948  50.278  1.00  0.00    -0.053 A 
HETATM    7  C8  UNL     1      23.143   2.203  49.107  1.00  0.00     0.008 A 
HETATM    8  C9  UNL     1      23.512   3.567  49.062  1.00  0.00     0.011 A 
HETATM    9  C10 UNL     1      23.072   4.093  50.198  1.00  0.00    -0.012 A 
HETATM   10  C11 UNL     1      22.483   4.189  51.431  1.00  0.00     0.042 A 
HETATM   11  C12 UNL     1      22.188   2.849  51.327  1.00  0.00     0.037 A 
HETATM   12  N1  UNL     1      22.544   5.468  52.043  1.00  0.00    -0.326 N 
HETATM   13  C13 UNL     1      23.269   6.224  51.009  1.00  0.00     0.236 C 
HETATM   14  O2  UNL     1      23.954   7.128  51.617  1.00  0.00    -0.272 OA
HETATM   15  C14 UNL     1      22.763   5.476  49.872  1.00  0.00     0.165 C 
HETATM   16  C15 UNL     1      22.909   5.999  48.526  1.00  0.00     0.049 A 
HETATM   17  C16 UNL     1      23.763   6.897  47.945  1.00  0.00     0.048 A 
HETATM   18  C19 UNL     1      23.409   7.072  46.628  1.00  0.00    -0.015 A 
HETATM   19  C20 UNL     1      22.329   6.264  46.421  1.00  0.00     0.020 A 
HETATM   20  N2  UNL     1      21.993   5.582  47.580  1.00  0.00    -0.345 N 
HETATM   21  C21 UNL     1      20.963   4.662  47.618  1.00  0.00     0.193 C 
HETATM   22  C22 UNL     1      21.923   6.444  44.972  1.00  0.00     0.058 C 
HETATM   23  C23 UNL     1      21.612   7.912  44.784  1.00  0.00     0.006 C 
HETATM   24  C24 UNL     1      22.885   8.714  44.850  1.00  0.00     0.005 C 
HETATM   25  C25 UNL     1      23.949   7.906  45.512  1.00  0.00     0.042 C 
HETATM   26  H12 UNL     1      22.080   5.427  53.000  1.00  0.00     0.169 HD
ENDROOT
BRANCH  17  27
HETATM   27  C17 UNL     1      24.826   7.516  48.572  1.00  0.00    -0.069 C 
BRANCH  27  28
HETATM   28  S1  UNL     1      25.922   8.145  49.246  1.00  0.00    -0.071 SA
HETATM   29  C18 UNL     1      27.217   8.868  50.063  1.00  0.00     0.083 A 
HETATM   30  O3  UNL     1      26.166   9.491  50.470  1.00  0.00     0.000 OA
HETATM   31  O4  UNL     1      27.348   9.888  50.985  1.00  0.00     0.000 OA
HETATM   32  H14 UNL     1      28.068   9.831  51.735  1.00  0.00     0.000 HD
ENDBRANCH  27  28
ENDBRANCH  17  27
BRANCH   1  33
HETATM   33  O1  UNL     1      18.672   5.471  48.543  1.00  0.00    -0.359 OA
HETATM   34  C1  UNL     1      17.349   4.995  48.388  1.00  0.00     0.209 C 
ENDBRANCH   1  33
TORSDOF 3
ENDMDL
