MODEL 1
REMARK VINA RESULT:     -10.2      0.000      0.000
REMARK  0 active torsions:
REMARK  status: ('A' for Active; 'I' for Inactive)
ROOT
HETATM    1  C1  UNL     1      23.843   6.145  47.923  1.00  0.00     0.148 C 
HETATM    2  N1  UNL     1      23.623   5.028  48.804  1.00  0.00    -0.392 N 
HETATM    3  C2  UNL     1      24.643   4.252  49.460  1.00  0.00     0.082 C 
HETATM    4  C3  UNL     1      25.137   3.156  50.028  1.00  0.00     0.009 C 
HETATM    5  C4  UNL     1      26.496   2.993  50.599  1.00  0.00     0.150 C 
HETATM    6  N2  UNL     1      26.557   2.662  51.987  1.00  0.00    -0.370 N 
HETATM    7  C5  UNL     1      26.379   1.616  52.976  1.00  0.00     0.137 A 
HETATM    8  N3  UNL     1      27.594   1.428  53.511  1.00  0.00    -0.224 NA
HETATM    9  C6  UNL     1      27.910   0.543  54.469  1.00  0.00     0.235 A 
HETATM   10  N4  UNL     1      26.918  -0.231  54.940  1.00  0.00    -0.241 NA
HETATM   11  C7  UNL     1      25.679  -0.043  54.398  1.00  0.00     0.075 A 
HETATM   12  C8  UNL     1      24.700  -0.872  54.917  1.00  0.00     0.071 A 
HETATM   13  C9  UNL     1      23.383  -0.867  54.523  1.00  0.00     0.098 A 
HETATM   14  C10 UNL     1      23.044   0.038  53.538  1.00  0.00     0.071 A 
HETATM   15  C11 UNL     1      24.019   0.859  53.027  1.00  0.00     0.050 A 
HETATM   16  C12 UNL     1      25.330   0.868  53.406  1.00  0.00     0.041 A 
HETATM   17  N5  UNL     1      21.666   0.033  53.121  1.00  0.00    -0.314 N 
HETATM   18  C13 UNL     1      21.414   0.987  52.107  1.00  0.00     0.132 C 
HETATM   19  C14 UNL     1      20.665   2.233  52.542  1.00  0.00     0.022 C 
HETATM   20  C15 UNL     1      20.821   3.148  51.278  1.00  0.00     0.028 C 
HETATM   21  C16 UNL     1      20.183   4.460  51.446  1.00  0.00     0.167 C 
HETATM   22  O1  UNL     1      20.272   5.299  50.401  1.00  0.00    -0.390 OA
HETATM   23  C17 UNL     1      21.524   5.578  49.957  1.00  0.00     0.187 C 
HETATM   24  C18 UNL     1      22.243   4.586  49.117  1.00  0.00     0.148 C 
HETATM   25  C19 UNL     1      20.748  -0.845  53.698  1.00  0.00     0.248 C 
HETATM   26  O2  UNL     1      19.529  -0.609  53.487  1.00  0.00    -0.271 OA
HETATM   27  C20 UNL     1      21.205  -1.985  54.507  1.00  0.00     0.279 C 
HETATM   28  O3  UNL     1      22.469  -1.736  55.101  1.00  0.00    -0.340 OA
HETATM   29  H8  UNL     1      26.824   3.573  52.494  1.00  0.00     0.161 HD
ENDROOT
TORSDOF 0
ENDMDL
MODEL 2
REMARK VINA RESULT:      -9.8      2.193      4.978
REMARK  0 active torsions:
REMARK  status: ('A' for Active; 'I' for Inactive)
ROOT
HETATM    1  C1  UNL     1      20.612   6.655  49.494  1.00  0.00     0.148 C 
HETATM    2  N1  UNL     1      21.454   5.755  50.239  1.00  0.00    -0.392 N 
HETATM    3  C2  UNL     1      21.005   4.700  51.109  1.00  0.00     0.082 C 
HETATM    4  C3  UNL     1      21.118   3.859  52.133  1.00  0.00     0.009 C 
HETATM    5  C4  UNL     1      20.118   2.853  52.564  1.00  0.00     0.150 C 
HETATM    6  N2  UNL     1      20.553   1.492  52.552  1.00  0.00    -0.370 N 
HETATM    7  C5  UNL     1      21.359   0.488  53.218  1.00  0.00     0.137 A 
HETATM    8  N3  UNL     1      20.487  -0.441  53.637  1.00  0.00    -0.224 NA
HETATM    9  C6  UNL     1      20.784  -1.559  54.317  1.00  0.00     0.235 A 
HETATM   10  N4  UNL     1      22.079  -1.774  54.608  1.00  0.00    -0.241 NA
HETATM   11  C7  UNL     1      22.970  -0.830  54.183  1.00  0.00     0.075 A 
HETATM   12  C8  UNL     1      24.286  -1.101  54.517  1.00  0.00     0.071 A 
HETATM   13  C9  UNL     1      25.354  -0.296  54.201  1.00  0.00     0.098 A 
HETATM   14  C10 UNL     1      25.062   0.859  53.502  1.00  0.00     0.071 A 
HETATM   15  C11 UNL     1      23.755   1.122  53.173  1.00  0.00     0.050 A 
HETATM   16  C12 UNL     1      22.683   0.334  53.478  1.00  0.00     0.041 A 
HETATM   17  N5  UNL     1      26.180   1.705  53.182  1.00  0.00    -0.314 N 
HETATM   18  C13 UNL     1      25.786   2.864  52.472  1.00  0.00     0.132 C 
HETATM   19  C14 UNL     1      26.108   2.873  50.989  1.00  0.00     0.022 C 
HETATM   20  C15 UNL     1      25.298   4.125  50.502  1.00  0.00     0.028 C 
HETATM   21  C16 UNL     1      25.426   4.355  49.058  1.00  0.00     0.167 C 
HETATM   22  O1  UNL     1      24.761   5.414  48.567  1.00  0.00    -0.390 OA
HETATM   23  C17 UNL     1      23.426   5.450  48.805  1.00  0.00     0.187 C 
HETATM   24  C18 UNL     1      22.929   5.863  50.143  1.00  0.00     0.148 C 
HETATM   25  C19 UNL     1      27.475   1.353  53.565  1.00  0.00     0.248 C 
HETATM   26  O2  UNL     1      28.419   1.987  53.023  1.00  0.00    -0.271 OA
HETATM   27  C20 UNL     1      27.703   0.293  54.559  1.00  0.00     0.279 C 
HETATM   28  O3  UNL     1      26.641  -0.648  54.577  1.00  0.00    -0.340 OA
HETATM   29  H8  UNL     1      20.112   1.053  51.673  1.00  0.00     0.161 HD
ENDROOT
TORSDOF 0
ENDMDL
MODEL 3
REMARK VINA RESULT:      -9.3      2.393      5.762
REMARK  0 active torsions:
REMARK  status: ('A' for Active; 'I' for Inactive)
ROOT
HETATM    1  C1  UNL     1      17.757  -1.292  53.503  1.00  0.00     0.148 C 
HETATM    2  N1  UNL     1      18.876  -0.474  53.113  1.00  0.00    -0.392 N 
HETATM    3  C2  UNL     1      20.230  -0.614  53.580  1.00  0.00     0.082 C 
HETATM    4  C3  UNL     1      21.453  -0.174  53.866  1.00  0.00     0.009 C 
HETATM    5  C4  UNL     1      22.573  -0.974  54.416  1.00  0.00     0.150 C 
HETATM    6  N2  UNL     1      23.752  -1.039  53.611  1.00  0.00    -0.370 N 
HETATM    7  C5  UNL     1      24.927  -0.324  53.153  1.00  0.00     0.137 A 
HETATM    8  N3  UNL     1      25.969  -1.011  53.641  1.00  0.00    -0.224 NA
HETATM    9  C6  UNL     1      27.267  -0.710  53.476  1.00  0.00     0.235 A 
HETATM   10  N4  UNL     1      27.553   0.385  52.751  1.00  0.00    -0.241 NA
HETATM   11  C7  UNL     1      26.495   1.089  52.252  1.00  0.00     0.075 A 
HETATM   12  C8  UNL     1      26.851   2.208  51.521  1.00  0.00     0.071 A 
HETATM   13  C9  UNL     1      25.960   3.070  50.927  1.00  0.00     0.098 A 
HETATM   14  C10 UNL     1      24.622   2.772  51.091  1.00  0.00     0.071 A 
HETATM   15  C11 UNL     1      24.274   1.659  51.816  1.00  0.00     0.050 A 
HETATM   16  C12 UNL     1      25.144   0.794  52.411  1.00  0.00     0.041 A 
HETATM   17  N5  UNL     1      23.691   3.681  50.476  1.00  0.00    -0.314 N 
HETATM   18  C13 UNL     1      22.347   3.300  50.700  1.00  0.00     0.132 C 
HETATM   19  C14 UNL     1      21.626   2.689  49.512  1.00  0.00     0.022 C 
HETATM   20  C15 UNL     1      20.319   2.145  50.187  1.00  0.00     0.028 C 
HETATM   21  C16 UNL     1      19.428   1.472  49.234  1.00  0.00     0.167 C 
HETATM   22  O1  UNL     1      18.284   0.982  49.740  1.00  0.00    -0.390 OA
HETATM   23  C17 UNL     1      18.405   0.112  50.773  1.00  0.00     0.187 C 
HETATM   24  C18 UNL     1      18.691   0.627  52.138  1.00  0.00     0.148 C 
HETATM   25  C19 UNL     1      24.143   4.791  49.762  1.00  0.00     0.248 C 
HETATM   26  O2  UNL     1      23.299   5.378  49.033  1.00  0.00    -0.271 OA
HETATM   27  C20 UNL     1      25.540   5.238  49.871  1.00  0.00     0.279 C 
HETATM   28  O3  UNL     1      26.409   4.171  50.212  1.00  0.00    -0.340 OA
HETATM   29  H8  UNL     1      23.736  -2.010  53.147  1.00  0.00     0.161 HD
ENDROOT
TORSDOF 0
ENDMDL
MODEL 4
REMARK VINA RESULT:      -9.2      1.527      2.107
REMARK  0 active torsions:
REMARK  status: ('A' for Active; 'I' for Inactive)
ROOT
HETATM    1  C1  UNL     1      26.095   7.126  48.378  1.00  0.00     0.148 C 
HETATM    2  N1  UNL     1      25.303   6.076  48.964  1.00  0.00    -0.392 N 
HETATM    3  C2  UNL     1      25.809   4.891  49.606  1.00  0.00     0.082 C 
HETATM    4  C3  UNL     1      25.746   3.625  50.011  1.00  0.00     0.009 C 
HETATM    5  C4  UNL     1      26.794   2.882  50.751  1.00  0.00     0.150 C 
HETATM    6  N2  UNL     1      26.416   2.377  52.033  1.00  0.00    -0.370 N 
HETATM    7  C5  UNL     1      25.663   1.362  52.744  1.00  0.00     0.137 A 
HETATM    8  N3  UNL     1      26.579   0.655  53.422  1.00  0.00    -0.224 NA
HETATM    9  C6  UNL     1      26.339  -0.399  54.217  1.00  0.00     0.235 A 
HETATM   10  N4  UNL     1      25.060  -0.786  54.351  1.00  0.00    -0.241 NA
HETATM   11  C7  UNL     1      24.123  -0.070  53.662  1.00  0.00     0.075 A 
HETATM   12  C8  UNL     1      22.825  -0.519  53.833  1.00  0.00     0.071 A 
HETATM   13  C9  UNL     1      21.720   0.041  53.238  1.00  0.00     0.098 A 
HETATM   14  C10 UNL     1      21.953   1.125  52.416  1.00  0.00     0.071 A 
HETATM   15  C11 UNL     1      23.242   1.568  52.251  1.00  0.00     0.050 A 
HETATM   16  C12 UNL     1      24.350   1.025  52.834  1.00  0.00     0.041 A 
HETATM   17  N5  UNL     1      20.795   1.703  51.787  1.00  0.00    -0.314 N 
HETATM   18  C13 UNL     1      21.130   2.802  50.961  1.00  0.00     0.132 C 
HETATM   19  C14 UNL     1      20.785   4.173  51.513  1.00  0.00     0.022 C 
HETATM   20  C15 UNL     1      21.535   5.113  50.506  1.00  0.00     0.028 C 
HETATM   21  C16 UNL     1      21.374   6.535  50.833  1.00  0.00     0.167 C 
HETATM   22  O1  UNL     1      21.987   7.403  50.010  1.00  0.00    -0.390 OA
HETATM   23  C17 UNL     1      23.323   7.235  49.845  1.00  0.00     0.187 C 
HETATM   24  C18 UNL     1      23.823   6.160  48.948  1.00  0.00     0.148 C 
HETATM   25  C19 UNL     1      19.523   1.178  52.013  1.00  0.00     0.248 C 
HETATM   26  O2  UNL     1      18.545   1.888  51.657  1.00  0.00    -0.271 OA
HETATM   27  C20 UNL     1      19.354  -0.144  52.636  1.00  0.00     0.279 C 
HETATM   28  O3  UNL     1      20.454  -0.478  53.467  1.00  0.00    -0.340 OA
HETATM   29  H8  UNL     1      26.861   3.043  52.753  1.00  0.00     0.161 HD
ENDROOT
TORSDOF 0
ENDMDL
MODEL 5
REMARK VINA RESULT:      -9.1      2.251      5.249
REMARK  0 active torsions:
REMARK  status: ('A' for Active; 'I' for Inactive)
ROOT
HETATM    1  C1  UNL     1      23.774   6.863  49.002  1.00  0.00     0.148 C 
HETATM    2  N1  UNL     1      23.611   5.742  49.891  1.00  0.00    -0.392 N 
HETATM    3  C2  UNL     1      22.361   5.145  50.281  1.00  0.00     0.082 C 
HETATM    4  C3  UNL     1      21.557   4.466  51.095  1.00  0.00     0.009 C 
HETATM    5  C4  UNL     1      20.129   4.143  50.859  1.00  0.00     0.150 C 
HETATM    6  N2  UNL     1      19.798   2.754  50.825  1.00  0.00    -0.370 N 
HETATM    7  C5  UNL     1      19.595   1.553  51.612  1.00  0.00     0.137 A 
HETATM    8  N3  UNL     1      18.305   1.232  51.436  1.00  0.00    -0.224 NA
HETATM    9  C6  UNL     1      17.665   0.188  51.986  1.00  0.00     0.235 A 
HETATM   10  N4  UNL     1      18.382  -0.614  52.791  1.00  0.00    -0.241 NA
HETATM   11  C7  UNL     1      19.695  -0.290  52.974  1.00  0.00     0.075 A 
HETATM   12  C8  UNL     1      20.380  -1.148  53.818  1.00  0.00     0.071 A 
HETATM   13  C9  UNL     1      21.706  -1.020  54.153  1.00  0.00     0.098 A 
HETATM   14  C10 UNL     1      22.377   0.050  53.595  1.00  0.00     0.071 A 
HETATM   15  C11 UNL     1      21.693   0.897  52.758  1.00  0.00     0.050 A 
HETATM   16  C12 UNL     1      20.378   0.785  52.414  1.00  0.00     0.041 A 
HETATM   17  N5  UNL     1      23.763   0.187  53.956  1.00  0.00    -0.314 N 
HETATM   18  C13 UNL     1      24.365   1.311  53.342  1.00  0.00     0.132 C 
HETATM   19  C14 UNL     1      25.304   1.011  52.188  1.00  0.00     0.022 C 
HETATM   20  C15 UNL     1      25.539   2.444  51.597  1.00  0.00     0.028 C 
HETATM   21  C16 UNL     1      26.424   2.435  50.425  1.00  0.00     0.167 C 
HETATM   22  O1  UNL     1      26.674   3.629  49.865  1.00  0.00    -0.390 OA
HETATM   23  C17 UNL     1      25.594   4.351  49.476  1.00  0.00     0.187 C 
HETATM   24  C18 UNL     1      24.798   5.088  50.492  1.00  0.00     0.148 C 
HETATM   25  C19 UNL     1      24.369  -0.724  54.821  1.00  0.00     0.248 C 
HETATM   26  O2  UNL     1      25.627  -0.705  54.874  1.00  0.00    -0.271 OA
HETATM   27  C20 UNL     1      23.558  -1.652  55.624  1.00  0.00     0.279 C 
HETATM   28  O3  UNL     1      22.311  -1.929  55.009  1.00  0.00    -0.340 OA
HETATM   29  H8  UNL     1      19.673   2.509  49.784  1.00  0.00     0.161 HD
ENDROOT
TORSDOF 0
ENDMDL
MODEL 6
REMARK VINA RESULT:      -8.8      2.351      5.148
REMARK  0 active torsions:
REMARK  status: ('A' for Active; 'I' for Inactive)
ROOT
HETATM    1  C1  UNL     1      23.132   8.065  48.803  1.00  0.00     0.148 C 
HETATM    2  N1  UNL     1      23.385   6.895  49.603  1.00  0.00    -0.392 N 
HETATM    3  C2  UNL     1      22.389   6.060  50.221  1.00  0.00     0.082 C 
HETATM    4  C3  UNL     1      21.939   5.208  51.138  1.00  0.00     0.009 C 
HETATM    5  C4  UNL     1      20.573   4.636  51.215  1.00  0.00     0.150 C 
HETATM    6  N2  UNL     1      20.484   3.212  51.138  1.00  0.00    -0.370 N 
HETATM    7  C5  UNL     1      20.688   1.961  51.842  1.00  0.00     0.137 A 
HETATM    8  N3  UNL     1      19.469   1.413  51.945  1.00  0.00    -0.224 NA
HETATM    9  C6  UNL     1      19.170   0.246  52.536  1.00  0.00     0.235 A 
HETATM   10  N4  UNL     1      20.189  -0.445  53.077  1.00  0.00    -0.241 NA
HETATM   11  C7  UNL     1      21.432   0.109  52.975  1.00  0.00     0.075 A 
HETATM   12  C8  UNL     1      22.439  -0.642  53.555  1.00  0.00     0.071 A 
HETATM   13  C9  UNL     1      23.766  -0.285  53.581  1.00  0.00     0.098 A 
HETATM   14  C10 UNL     1      24.086   0.915  52.977  1.00  0.00     0.071 A 
HETATM   15  C11 UNL     1      23.084   1.656  52.401  1.00  0.00     0.050 A 
HETATM   16  C12 UNL     1      21.763   1.317  52.367  1.00  0.00     0.041 A 
HETATM   17  N5  UNL     1      25.475   1.290  53.013  1.00  0.00    -0.314 N 
HETATM   18  C13 UNL     1      25.707   2.533  52.377  1.00  0.00     0.132 C 
HETATM   19  C14 UNL     1      26.370   2.464  51.013  1.00  0.00     0.022 C 
HETATM   20  C15 UNL     1      26.205   3.941  50.512  1.00  0.00     0.028 C 
HETATM   21  C16 UNL     1      26.762   4.148  49.169  1.00  0.00     0.167 C 
HETATM   22  O1  UNL     1      26.660   5.392  48.673  1.00  0.00    -0.390 OA
HETATM   23  C17 UNL     1      25.411   5.917  48.613  1.00  0.00     0.187 C 
HETATM   24  C18 UNL     1      24.777   6.447  49.849  1.00  0.00     0.148 C 
HETATM   25  C19 UNL     1      26.421   0.471  53.629  1.00  0.00     0.248 C 
HETATM   26  O2  UNL     1      27.631   0.721  53.386  1.00  0.00    -0.271 OA
HETATM   27  C20 UNL     1      26.003  -0.626  54.515  1.00  0.00     0.279 C 
HETATM   28  O3  UNL     1      24.707  -1.103  54.187  1.00  0.00    -0.340 OA
HETATM   29  H8  UNL     1      20.150   2.994  50.138  1.00  0.00     0.161 HD
ENDROOT
TORSDOF 0
ENDMDL
MODEL 7
REMARK VINA RESULT:      -8.7      2.762      6.117
REMARK  0 active torsions:
REMARK  status: ('A' for Active; 'I' for Inactive)
ROOT
HETATM    1  C1  UNL     1      16.260  -2.240  52.707  1.00  0.00     0.148 C 
HETATM    2  N1  UNL     1      17.248  -1.196  52.633  1.00  0.00    -0.392 N 
HETATM    3  C2  UNL     1      18.572  -1.240  53.195  1.00  0.00     0.082 C 
HETATM    4  C3  UNL     1      19.680  -0.705  53.701  1.00  0.00     0.009 C 
HETATM    5  C4  UNL     1      20.880  -1.438  54.169  1.00  0.00     0.150 C 
HETATM    6  N2  UNL     1      22.104  -1.130  53.499  1.00  0.00    -0.370 N 
HETATM    7  C5  UNL     1      23.169  -0.158  53.342  1.00  0.00     0.137 A 
HETATM    8  N3  UNL     1      24.278  -0.780  53.768  1.00  0.00    -0.224 NA
HETATM    9  C6  UNL     1      25.513  -0.257  53.813  1.00  0.00     0.235 A 
HETATM   10  N4  UNL     1      25.658   1.011  53.391  1.00  0.00    -0.241 NA
HETATM   11  C7  UNL     1      24.531   1.648  52.956  1.00  0.00     0.075 A 
HETATM   12  C8  UNL     1      24.740   2.951  52.541  1.00  0.00     0.071 A 
HETATM   13  C9  UNL     1      23.757   3.788  52.069  1.00  0.00     0.098 A 
HETATM   14  C10 UNL     1      22.481   3.263  52.018  1.00  0.00     0.071 A 
HETATM   15  C11 UNL     1      22.279   1.969  52.430  1.00  0.00     0.050 A 
HETATM   16  C12 UNL     1      23.243   1.125  52.901  1.00  0.00     0.041 A 
HETATM   17  N5  UNL     1      21.453   4.145  51.533  1.00  0.00    -0.314 N 
HETATM   18  C13 UNL     1      20.181   3.524  51.522  1.00  0.00     0.132 C 
HETATM   19  C14 UNL     1      19.655   3.118  50.157  1.00  0.00     0.022 C 
HETATM   20  C15 UNL     1      18.418   2.239  50.549  1.00  0.00     0.028 C 
HETATM   21  C16 UNL     1      17.719   1.691  49.379  1.00  0.00     0.167 C 
HETATM   22  O1  UNL     1      16.644   0.928  49.637  1.00  0.00    -0.390 OA
HETATM   23  C17 UNL     1      16.842  -0.138  50.452  1.00  0.00     0.187 C 
HETATM   24  C18 UNL     1      16.944   0.069  51.920  1.00  0.00     0.148 C 
HETATM   25  C19 UNL     1      21.756   5.449  51.142  1.00  0.00     0.248 C 
HETATM   26  O2  UNL     1      20.876   6.062  50.481  1.00  0.00    -0.271 OA
HETATM   27  C20 UNL     1      23.046   6.060  51.496  1.00  0.00     0.279 C 
HETATM   28  O3  UNL     1      24.059   5.083  51.674  1.00  0.00    -0.340 OA
HETATM   29  H8  UNL     1      22.284  -1.951  52.827  1.00  0.00     0.161 HD
ENDROOT
TORSDOF 0
ENDMDL
MODEL 8
REMARK VINA RESULT:      -8.6      1.476      1.895
REMARK  0 active torsions:
REMARK  status: ('A' for Active; 'I' for Inactive)
ROOT
HETATM    1  C1  UNL     1      20.803   6.095  46.969  1.00  0.00     0.148 C 
HETATM    2  N1  UNL     1      21.025   5.032  47.914  1.00  0.00    -0.392 N 
HETATM    3  C2  UNL     1      22.305   4.514  48.322  1.00  0.00     0.082 C 
HETATM    4  C3  UNL     1      23.128   3.578  48.785  1.00  0.00     0.009 C 
HETATM    5  C4  UNL     1      24.588   3.716  49.005  1.00  0.00     0.150 C 
HETATM    6  N2  UNL     1      25.042   3.516  50.345  1.00  0.00    -0.370 N 
HETATM    7  C5  UNL     1      25.315   2.539  51.381  1.00  0.00     0.137 A 
HETATM    8  N3  UNL     1      26.635   2.623  51.603  1.00  0.00    -0.224 NA
HETATM    9  C6  UNL     1      27.340   1.893  52.481  1.00  0.00     0.235 A 
HETATM   10  N4  UNL     1      26.662   0.990  53.211  1.00  0.00    -0.241 NA
HETATM   11  C7  UNL     1      25.318   0.901  52.987  1.00  0.00     0.075 A 
HETATM   12  C8  UNL     1      24.675  -0.049  53.762  1.00  0.00     0.071 A 
HETATM   13  C9  UNL     1      23.329  -0.320  53.708  1.00  0.00     0.098 A 
HETATM   14  C10 UNL     1      22.592   0.424  52.808  1.00  0.00     0.071 A 
HETATM   15  C11 UNL     1      23.234   1.366  52.043  1.00  0.00     0.050 A 
HETATM   16  C12 UNL     1      24.569   1.648  52.083  1.00  0.00     0.041 A 
HETATM   17  N5  UNL     1      21.185   0.131  52.748  1.00  0.00    -0.314 N 
HETATM   18  C13 UNL     1      20.514   0.935  51.797  1.00  0.00     0.132 C 
HETATM   19  C14 UNL     1      19.657   2.053  52.363  1.00  0.00     0.022 C 
HETATM   20  C15 UNL     1      19.323   2.875  51.069  1.00  0.00     0.028 C 
HETATM   21  C16 UNL     1      18.495   4.056  51.347  1.00  0.00     0.167 C 
HETATM   22  O1  UNL     1      18.165   4.808  50.285  1.00  0.00    -0.390 OA
HETATM   23  C17 UNL     1      19.193   5.277  49.535  1.00  0.00     0.187 C 
HETATM   24  C18 UNL     1      19.875   4.369  48.575  1.00  0.00     0.148 C 
HETATM   25  C19 UNL     1      20.624  -0.852  53.564  1.00  0.00     0.248 C 
HETATM   26  O2  UNL     1      19.368  -0.864  53.655  1.00  0.00    -0.271 OA
HETATM   27  C20 UNL     1      21.477  -1.818  54.272  1.00  0.00     0.279 C 
HETATM   28  O3  UNL     1      22.770  -1.293  54.524  1.00  0.00    -0.340 OA
HETATM   29  H8  UNL     1      25.234   4.500  50.738  1.00  0.00     0.161 HD
ENDROOT
TORSDOF 0
ENDMDL
MODEL 9
REMARK VINA RESULT:      -8.5      2.682      5.333
REMARK  0 active torsions:
REMARK  status: ('A' for Active; 'I' for Inactive)
ROOT
HETATM    1  C1  UNL     1      17.214   4.318  48.527  1.00  0.00     0.148 C 
HETATM    2  N1  UNL     1      18.478   3.970  49.124  1.00  0.00    -0.392 N 
HETATM    3  C2  UNL     1      18.668   3.137  50.282  1.00  0.00     0.082 C 
HETATM    4  C3  UNL     1      19.321   2.710  51.359  1.00  0.00     0.009 C 
HETATM    5  C4  UNL     1      18.894   1.629  52.280  1.00  0.00     0.150 C 
HETATM    6  N2  UNL     1      19.784   0.518  52.397  1.00  0.00    -0.370 N 
HETATM    7  C5  UNL     1      21.036   0.042  52.952  1.00  0.00     0.137 A 
HETATM    8  N3  UNL     1      20.693  -0.935  53.804  1.00  0.00    -0.224 NA
HETATM    9  C6  UNL     1      21.533  -1.661  54.558  1.00  0.00     0.235 A 
HETATM   10  N4  UNL     1      22.845  -1.387  54.452  1.00  0.00    -0.241 NA
HETATM   11  C7  UNL     1      23.198  -0.394  53.585  1.00  0.00     0.075 A 
HETATM   12  C8  UNL     1      24.560  -0.152  53.522  1.00  0.00     0.071 A 
HETATM   13  C9  UNL     1      25.148   0.801  52.726  1.00  0.00     0.098 A 
HETATM   14  C10 UNL     1      24.296   1.556  51.946  1.00  0.00     0.071 A 
HETATM   15  C11 UNL     1      22.946   1.312  52.011  1.00  0.00     0.050 A 
HETATM   16  C12 UNL     1      22.345   0.370  52.795  1.00  0.00     0.041 A 
HETATM   17  N5  UNL     1      24.914   2.559  51.121  1.00  0.00    -0.314 N 
HETATM   18  C13 UNL     1      23.965   3.285  50.363  1.00  0.00     0.132 C 
HETATM   19  C14 UNL     1      23.903   2.949  48.884  1.00  0.00     0.022 C 
HETATM   20  C15 UNL     1      22.598   3.702  48.448  1.00  0.00     0.028 C 
HETATM   21  C16 UNL     1      22.290   3.521  47.024  1.00  0.00     0.167 C 
HETATM   22  O1  UNL     1      21.185   4.141  46.576  1.00  0.00    -0.390 OA
HETATM   23  C17 UNL     1      20.027   3.850  47.220  1.00  0.00     0.187 C 
HETATM   24  C18 UNL     1      19.743   4.475  48.537  1.00  0.00     0.148 C 
HETATM   25  C19 UNL     1      26.298   2.737  51.128  1.00  0.00     0.248 C 
HETATM   26  O2  UNL     1      26.786   3.430  50.196  1.00  0.00    -0.271 OA
HETATM   27  C20 UNL     1      27.128   2.135  52.183  1.00  0.00     0.279 C 
HETATM   28  O3  UNL     1      26.525   0.973  52.729  1.00  0.00    -0.340 OA
HETATM   29  H8  UNL     1      19.344  -0.272  51.812  1.00  0.00     0.161 HD
ENDROOT
TORSDOF 0
ENDMDL
