MODEL 1
REMARK VINA RESULT:      -8.1      0.000      0.000
REMARK  5 active torsions:
REMARK  status: ('A' for Active; 'I' for Inactive)
REMARK    1  A    between atoms: C7_9  and  C8_10 
REMARK    2  A    between atoms: C8_10  and  C10_12 
REMARK    3  A    between atoms: C10_12  and  N2_13 
REMARK    4  A    between atoms: N2_13  and  C11_14 
REMARK    5  A    between atoms: C11_14  and  C12_15 
ROOT
HETATM    1  C1  UNL     1      17.837  -1.593  53.224  1.00  0.00     0.000 C 
HETATM    2  O1  UNL     1      19.094  -1.145  53.451  1.00  0.00     0.000 OA
HETATM    3  C2  UNL     1      20.096  -0.523  52.913  1.00  0.00    -0.050 A 
HETATM    4  C3  UNL     1      20.552   0.227  51.946  1.00  0.00    -0.017 C 
HETATM    5  C4  UNL     1      21.105   1.019  50.956  1.00  0.00     0.049 C 
HETATM    6  C5  UNL     1      22.496   1.496  50.783  1.00  0.00     0.119 C 
HETATM    7  C6  UNL     1      22.490   2.428  49.603  1.00  0.00     0.066 C 
HETATM    8  N1  UNL     1      22.471   3.131  48.692  1.00  0.00    -0.197 NA
HETATM    9  C7  UNL     1      23.383   1.949  51.812  1.00  0.00     0.099 C 
HETATM   10  N4  UNL     1      24.280   0.871  52.370  1.00  0.00    -0.415 N 
HETATM   11  C17 UNL     1      23.344   0.116  53.203  1.00  0.00     0.061 C 
HETATM   12  C18 UNL     1      22.588  -0.593  54.065  1.00  0.00     0.066 C 
HETATM   13  C19 UNL     1      21.633  -1.327  54.856  1.00  0.00    -0.012 C 
HETATM   14  C20 UNL     1      20.463  -1.205  54.152  1.00  0.00     0.056 A 
HETATM   15  H22 UNL     1      25.237   0.390  52.475  1.00  0.00     0.153 HD
ENDROOT
BRANCH   9  16
HETATM   16  C8  UNL     1      24.331   3.114  51.476  1.00  0.00     0.033 C 
HETATM   17  C9  UNL     1      23.957   4.342  52.228  1.00  0.00     0.014 C 
BRANCH  16  18
HETATM   18  C10 UNL     1      25.737   2.689  51.794  1.00  0.00     0.276 C 
BRANCH  18  19
HETATM   19  N2  UNL     1      26.764   3.252  50.981  1.00  0.00     0.088 N 
HETATM   20  H15 UNL     1      27.689   2.739  51.115  1.00  0.00     0.316 HD
BRANCH  19  21
HETATM   21  C11 UNL     1      26.452   3.263  49.559  1.00  0.00     0.309 C 
BRANCH  21  22
HETATM   22  C12 UNL     1      26.797   4.586  49.009  1.00  0.00    -0.013 A 
HETATM   23  C13 UNL     1      28.013   5.034  48.567  1.00  0.00     0.012 A 
HETATM   24  C14 UNL     1      28.091   6.346  48.113  1.00  0.00     0.020 A 
HETATM   25  C15 UNL     1      26.991   7.209  48.094  1.00  0.00     0.116 A 
HETATM   26  N3  UNL     1      25.781   6.758  48.535  1.00  0.00    -0.273 NA
HETATM   27  C16 UNL     1      25.721   5.485  48.971  1.00  0.00     0.125 A 
ENDBRANCH  21  22
ENDBRANCH  19  21
ENDBRANCH  18  19
ENDBRANCH  16  18
ENDBRANCH   9  16
TORSDOF 5
ENDMDL
MODEL 2
REMARK VINA RESULT:      -7.9      2.219      3.703
REMARK  5 active torsions:
REMARK  status: ('A' for Active; 'I' for Inactive)
REMARK    1  A    between atoms: C7_9  and  C8_10 
REMARK    2  A    between atoms: C8_10  and  C10_12 
REMARK    3  A    between atoms: C10_12  and  N2_13 
REMARK    4  A    between atoms: N2_13  and  C11_14 
REMARK    5  A    between atoms: C11_14  and  C12_15 
ROOT
HETATM    1  C1  UNL     1      17.592  -2.115  53.572  1.00  0.00     0.000 C 
HETATM    2  O1  UNL     1      18.829  -1.565  53.619  1.00  0.00     0.000 OA
HETATM    3  C2  UNL     1      19.645  -0.772  52.998  1.00  0.00    -0.050 A 
HETATM    4  C3  UNL     1      19.830   0.144  52.085  1.00  0.00    -0.017 C 
HETATM    5  C4  UNL     1      20.102   1.114  51.138  1.00  0.00     0.049 C 
HETATM    6  C5  UNL     1      21.384   1.760  50.775  1.00  0.00     0.119 C 
HETATM    7  C6  UNL     1      21.060   2.831  49.772  1.00  0.00     0.066 C 
HETATM    8  N1  UNL     1      20.798   3.640  48.997  1.00  0.00    -0.197 NA
HETATM    9  C7  UNL     1      22.424   2.169  51.672  1.00  0.00     0.099 C 
HETATM   10  N4  UNL     1      23.500   1.133  51.881  1.00  0.00    -0.415 N 
HETATM   11  C17 UNL     1      22.820   0.177  52.754  1.00  0.00     0.061 C 
HETATM   12  C18 UNL     1      22.317  -0.717  53.629  1.00  0.00     0.066 C 
HETATM   13  C19 UNL     1      21.608  -1.648  54.469  1.00  0.00    -0.012 C 
HETATM   14  C20 UNL     1      20.313  -1.565  54.028  1.00  0.00     0.056 A 
HETATM   15  H22 UNL     1      24.496   0.750  51.728  1.00  0.00     0.153 HD
ENDROOT
BRANCH   9  16
HETATM   16  C8  UNL     1      23.184   3.465  51.340  1.00  0.00     0.033 C 
HETATM   17  C9  UNL     1      23.424   4.275  52.565  1.00  0.00     0.014 C 
BRANCH  16  18
HETATM   18  C10 UNL     1      24.477   3.098  50.668  1.00  0.00     0.276 C 
BRANCH  18  19
HETATM   19  N2  UNL     1      25.669   3.560  51.301  1.00  0.00     0.088 N 
HETATM   20  H15 UNL     1      25.516   3.719  52.345  1.00  0.00     0.316 HD
BRANCH  19  21
HETATM   21  C11 UNL     1      26.808   2.667  51.139  1.00  0.00     0.309 C 
BRANCH  21  22
HETATM   22  C12 UNL     1      26.730   1.610  52.163  1.00  0.00    -0.013 A 
HETATM   23  C13 UNL     1      26.727   0.253  51.987  1.00  0.00     0.012 A 
HETATM   24  C14 UNL     1      26.616  -0.544  53.122  1.00  0.00     0.020 A 
HETATM   25  C15 UNL     1      26.506  -0.017  54.412  1.00  0.00     0.116 A 
HETATM   26  N3  UNL     1      26.509   1.337  54.582  1.00  0.00    -0.273 NA
HETATM   27  C16 UNL     1      26.619   2.095  53.475  1.00  0.00     0.125 A 
ENDBRANCH  21  22
ENDBRANCH  19  21
ENDBRANCH  18  19
ENDBRANCH  16  18
ENDBRANCH   9  16
TORSDOF 5
ENDMDL
MODEL 3
REMARK VINA RESULT:      -7.8      3.597      7.826
REMARK  5 active torsions:
REMARK  status: ('A' for Active; 'I' for Inactive)
REMARK    1  A    between atoms: C7_9  and  C8_10 
REMARK    2  A    between atoms: C8_10  and  C10_12 
REMARK    3  A    between atoms: C10_12  and  N2_13 
REMARK    4  A    between atoms: N2_13  and  C11_14 
REMARK    5  A    between atoms: C11_14  and  C12_15 
ROOT
HETATM    1  C1  UNL     1      27.103   9.448  48.671  1.00  0.00     0.000 C 
HETATM    2  O1  UNL     1      26.993   8.099  48.709  1.00  0.00     0.000 OA
HETATM    3  C2  UNL     1      26.389   7.115  49.299  1.00  0.00    -0.050 A 
HETATM    4  C3  UNL     1      25.413   6.704  50.063  1.00  0.00    -0.017 C 
HETATM    5  C4  UNL     1      24.406   6.197  50.865  1.00  0.00     0.049 C 
HETATM    6  C5  UNL     1      24.139   4.806  51.293  1.00  0.00     0.119 C 
HETATM    7  C6  UNL     1      22.839   4.827  52.048  1.00  0.00     0.066 C 
HETATM    8  N1  UNL     1      21.849   4.862  52.633  1.00  0.00    -0.197 NA
HETATM    9  C7  UNL     1      24.271   3.622  50.498  1.00  0.00     0.099 C 
HETATM   10  N4  UNL     1      25.614   2.944  50.620  1.00  0.00    -0.415 N 
HETATM   11  C17 UNL     1      26.463   3.836  49.830  1.00  0.00     0.061 C 
HETATM   12  C18 UNL     1      27.311   4.540  49.053  1.00  0.00     0.066 C 
HETATM   13  C19 UNL     1      28.121   5.453  48.288  1.00  0.00    -0.012 C 
HETATM   14  C20 UNL     1      27.545   6.675  48.521  1.00  0.00     0.056 A 
HETATM   15  H22 UNL     1      26.252   2.152  50.974  1.00  0.00     0.153 HD
ENDROOT
BRANCH   9  16
HETATM   16  C8  UNL     1      23.242   2.498  50.714  1.00  0.00     0.033 C 
HETATM   17  C9  UNL     1      22.614   2.091  49.428  1.00  0.00     0.014 C 
BRANCH  16  18
HETATM   18  C10 UNL     1      23.938   1.338  51.370  1.00  0.00     0.276 C 
BRANCH  18  19
HETATM   19  N2  UNL     1      23.716   1.181  52.770  1.00  0.00     0.088 N 
HETATM   20  H15 UNL     1      22.700   1.381  53.025  1.00  0.00     0.316 HD
BRANCH  19  21
HETATM   21  C11 UNL     1      24.060  -0.140  53.278  1.00  0.00     0.309 C 
BRANCH  21  22
HETATM   22  C12 UNL     1      25.523  -0.222  53.429  1.00  0.00    -0.013 A 
HETATM   23  C13 UNL     1      26.410  -0.995  52.729  1.00  0.00     0.012 A 
HETATM   24  C14 UNL     1      27.753  -0.914  53.081  1.00  0.00     0.020 A 
HETATM   25  C15 UNL     1      28.221  -0.088  54.108  1.00  0.00     0.116 A 
HETATM   26  N3  UNL     1      27.333   0.681  54.803  1.00  0.00    -0.273 NA
HETATM   27  C16 UNL     1      26.037   0.592  54.450  1.00  0.00     0.125 A 
ENDBRANCH  21  22
ENDBRANCH  19  21
ENDBRANCH  18  19
ENDBRANCH  16  18
ENDBRANCH   9  16
TORSDOF 5
ENDMDL
MODEL 4
REMARK VINA RESULT:      -7.7      2.494      4.215
REMARK  5 active torsions:
REMARK  status: ('A' for Active; 'I' for Inactive)
REMARK    1  A    between atoms: C7_9  and  C8_10 
REMARK    2  A    between atoms: C8_10  and  C10_12 
REMARK    3  A    between atoms: C10_12  and  N2_13 
REMARK    4  A    between atoms: N2_13  and  C11_14 
REMARK    5  A    between atoms: C11_14  and  C12_15 
ROOT
HETATM    1  C1  UNL     1      22.639  -0.835  53.846  1.00  0.00     0.000 C 
HETATM    2  O1  UNL     1      23.632  -0.025  53.410  1.00  0.00     0.000 OA
HETATM    3  C2  UNL     1      23.967   0.810  52.477  1.00  0.00    -0.050 A 
HETATM    4  C3  UNL     1      23.603   1.572  51.481  1.00  0.00    -0.017 C 
HETATM    5  C4  UNL     1      23.292   2.401  50.418  1.00  0.00     0.049 C 
HETATM    6  C5  UNL     1      24.172   3.241  49.575  1.00  0.00     0.119 C 
HETATM    7  C6  UNL     1      23.274   4.026  48.659  1.00  0.00     0.066 C 
HETATM    8  N1  UNL     1      22.574   4.611  47.958  1.00  0.00    -0.197 NA
HETATM    9  C7  UNL     1      25.293   4.019  50.013  1.00  0.00     0.099 C 
HETATM   10  N4  UNL     1      26.615   3.299  49.921  1.00  0.00    -0.415 N 
HETATM   11  C17 UNL     1      26.527   2.381  51.056  1.00  0.00     0.061 C 
HETATM   12  C18 UNL     1      26.585   1.562  52.126  1.00  0.00     0.066 C 
HETATM   13  C19 UNL     1      26.453   0.656  53.239  1.00  0.00    -0.012 C 
HETATM   14  C20 UNL     1      25.112   0.373  53.272  1.00  0.00     0.056 A 
HETATM   15  H22 UNL     1      27.575   3.125  49.463  1.00  0.00     0.153 HD
ENDROOT
BRANCH   9  16
HETATM   16  C8  UNL     1      25.534   5.374  49.324  1.00  0.00     0.033 C 
HETATM   17  C9  UNL     1      25.396   6.498  50.290  1.00  0.00     0.014 C 
BRANCH  16  18
HETATM   18  C10 UNL     1      26.904   5.354  48.705  1.00  0.00     0.276 C 
BRANCH  18  19
HETATM   19  N2  UNL     1      27.721   6.497  48.949  1.00  0.00     0.088 N 
HETATM   20  H15 UNL     1      28.301   6.376  49.835  1.00  0.00     0.316 HD
BRANCH  19  21
HETATM   21  C11 UNL     1      28.626   6.820  47.854  1.00  0.00     0.309 C 
BRANCH  21  22
HETATM   22  C12 UNL     1      30.013   6.698  48.335  1.00  0.00    -0.013 A 
HETATM   23  C13 UNL     1      30.807   7.660  48.898  1.00  0.00     0.012 A 
HETATM   24  C14 UNL     1      32.104   7.302  49.249  1.00  0.00     0.020 A 
HETATM   25  C15 UNL     1      32.618   6.017  49.047  1.00  0.00     0.116 A 
HETATM   26  N3  UNL     1      31.822   5.061  48.485  1.00  0.00    -0.273 NA
HETATM   27  C16 UNL     1      30.569   5.423  48.152  1.00  0.00     0.125 A 
ENDBRANCH  21  22
ENDBRANCH  19  21
ENDBRANCH  18  19
ENDBRANCH  16  18
ENDBRANCH   9  16
TORSDOF 5
ENDMDL
MODEL 5
REMARK VINA RESULT:      -7.6      2.718      6.376
REMARK  5 active torsions:
REMARK  status: ('A' for Active; 'I' for Inactive)
REMARK    1  A    between atoms: C7_9  and  C8_10 
REMARK    2  A    between atoms: C8_10  and  C10_12 
REMARK    3  A    between atoms: C10_12  and  N2_13 
REMARK    4  A    between atoms: N2_13  and  C11_14 
REMARK    5  A    between atoms: C11_14  and  C12_15 
ROOT
HETATM    1  C1  UNL     1      28.754  -1.398  53.199  1.00  0.00     0.000 C 
HETATM    2  O1  UNL     1      27.522  -0.859  53.039  1.00  0.00     0.000 OA
HETATM    3  C2  UNL     1      26.880   0.162  52.564  1.00  0.00    -0.050 A 
HETATM    4  C3  UNL     1      26.882   1.222  51.801  1.00  0.00    -0.017 C 
HETATM    5  C4  UNL     1      26.810   2.357  51.015  1.00  0.00     0.049 C 
HETATM    6  C5  UNL     1      25.689   3.301  50.802  1.00  0.00     0.119 C 
HETATM    7  C6  UNL     1      26.135   4.272  49.745  1.00  0.00     0.066 C 
HETATM    8  N1  UNL     1      26.495   5.015  48.943  1.00  0.00    -0.197 NA
HETATM    9  C7  UNL     1      24.302   2.970  50.668  1.00  0.00     0.099 C 
HETATM   10  N4  UNL     1      23.529   3.016  51.962  1.00  0.00    -0.415 N 
HETATM   11  C17 UNL     1      23.985   1.791  52.618  1.00  0.00     0.061 C 
HETATM   12  C18 UNL     1      24.270   0.644  53.268  1.00  0.00     0.066 C 
HETATM   13  C19 UNL     1      24.759  -0.558  53.894  1.00  0.00    -0.012 C 
HETATM   14  C20 UNL     1      26.055  -0.650  53.456  1.00  0.00     0.056 A 
HETATM   15  H22 UNL     1      22.821   3.475  52.633  1.00  0.00     0.153 HD
ENDROOT
BRANCH   9  16
HETATM   16  C8  UNL     1      23.463   3.798  49.678  1.00  0.00     0.033 C 
HETATM   17  C9  UNL     1      23.088   2.991  48.487  1.00  0.00     0.014 C 
BRANCH  16  18
HETATM   18  C10 UNL     1      22.245   4.305  50.398  1.00  0.00     0.276 C 
BRANCH  18  19
HETATM   19  N2  UNL     1      20.993   4.078  49.753  1.00  0.00     0.088 N 
HETATM   20  H15 UNL     1      21.081   3.343  48.986  1.00  0.00     0.316 HD
BRANCH  19  21
HETATM   21  C11 UNL     1      19.929   3.665  50.658  1.00  0.00     0.309 C 
BRANCH  21  22
HETATM   22  C12 UNL     1      20.269   2.345  51.217  1.00  0.00    -0.013 A 
HETATM   23  C13 UNL     1      20.645   1.209  50.551  1.00  0.00     0.012 A 
HETATM   24  C14 UNL     1      20.889   0.069  51.308  1.00  0.00     0.020 A 
HETATM   25  C15 UNL     1      20.763   0.040  52.700  1.00  0.00     0.116 A 
HETATM   26  N3  UNL     1      20.388   1.175  53.360  1.00  0.00    -0.273 NA
HETATM   27  C16 UNL     1      20.157   2.271  52.613  1.00  0.00     0.125 A 
ENDBRANCH  21  22
ENDBRANCH  19  21
ENDBRANCH  18  19
ENDBRANCH  16  18
ENDBRANCH   9  16
TORSDOF 5
ENDMDL
MODEL 6
REMARK VINA RESULT:      -7.4      3.194      4.955
REMARK  5 active torsions:
REMARK  status: ('A' for Active; 'I' for Inactive)
REMARK    1  A    between atoms: C7_9  and  C8_10 
REMARK    2  A    between atoms: C8_10  and  C10_12 
REMARK    3  A    between atoms: C10_12  and  N2_13 
REMARK    4  A    between atoms: N2_13  and  C11_14 
REMARK    5  A    between atoms: C11_14  and  C12_15 
ROOT
HETATM    1  C1  UNL     1      28.832  -0.782  53.437  1.00  0.00     0.000 C 
HETATM    2  O1  UNL     1      27.545  -0.475  53.148  1.00  0.00     0.000 OA
HETATM    3  C2  UNL     1      26.780   0.421  52.607  1.00  0.00    -0.050 A 
HETATM    4  C3  UNL     1      26.667   1.478  51.847  1.00  0.00    -0.017 C 
HETATM    5  C4  UNL     1      26.470   2.595  51.056  1.00  0.00     0.049 C 
HETATM    6  C5  UNL     1      25.224   3.322  50.726  1.00  0.00     0.119 C 
HETATM    7  C6  UNL     1      25.591   4.377  49.721  1.00  0.00     0.066 C 
HETATM    8  N1  UNL     1      25.890   5.187  48.960  1.00  0.00    -0.197 NA
HETATM    9  C7  UNL     1      23.942   2.746  50.447  1.00  0.00     0.099 C 
HETATM   10  N4  UNL     1      23.044   2.627  51.653  1.00  0.00    -0.415 N 
HETATM   11  C17 UNL     1      23.646   1.494  52.355  1.00  0.00     0.061 C 
HETATM   12  C18 UNL     1      24.067   0.407  53.032  1.00  0.00     0.066 C 
HETATM   13  C19 UNL     1      24.701  -0.697  53.707  1.00  0.00    -0.012 C 
HETATM   14  C20 UNL     1      26.030  -0.543  53.409  1.00  0.00     0.056 A 
HETATM   15  H22 UNL     1      22.198   2.937  52.244  1.00  0.00     0.153 HD
ENDROOT
BRANCH   9  16
HETATM   16  C8  UNL     1      23.073   3.425  49.374  1.00  0.00     0.033 C 
HETATM   17  C9  UNL     1      22.793   2.498  48.244  1.00  0.00     0.014 C 
BRANCH  16  18
HETATM   18  C10 UNL     1      21.799   3.893  50.022  1.00  0.00     0.276 C 
BRANCH  18  19
HETATM   19  N2  UNL     1      21.471   5.269  49.843  1.00  0.00     0.088 N 
HETATM   20  H15 UNL     1      20.416   5.411  49.784  1.00  0.00     0.316 HD
BRANCH  19  21
HETATM   21  C11 UNL     1      21.989   6.140  50.889  1.00  0.00     0.309 C 
BRANCH  21  22
HETATM   22  C12 UNL     1      22.999   7.037  50.300  1.00  0.00    -0.013 A 
HETATM   23  C13 UNL     1      24.051   7.659  50.919  1.00  0.00     0.012 A 
HETATM   24  C14 UNL     1      24.856   8.486  50.144  1.00  0.00     0.020 A 
HETATM   25  C15 UNL     1      24.634   8.704  48.781  1.00  0.00     0.116 A 
HETATM   26  N3  UNL     1      23.585   8.081  48.168  1.00  0.00    -0.273 NA
HETATM   27  C16 UNL     1      22.815   7.283  48.931  1.00  0.00     0.125 A 
ENDBRANCH  21  22
ENDBRANCH  19  21
ENDBRANCH  18  19
ENDBRANCH  16  18
ENDBRANCH   9  16
TORSDOF 5
ENDMDL
MODEL 7
REMARK VINA RESULT:      -7.4      3.291      4.672
REMARK  5 active torsions:
REMARK  status: ('A' for Active; 'I' for Inactive)
REMARK    1  A    between atoms: C7_9  and  C8_10 
REMARK    2  A    between atoms: C8_10  and  C10_12 
REMARK    3  A    between atoms: C10_12  and  N2_13 
REMARK    4  A    between atoms: N2_13  and  C11_14 
REMARK    5  A    between atoms: C11_14  and  C12_15 
ROOT
HETATM    1  C1  UNL     1      15.798  -0.344  50.313  1.00  0.00     0.000 C 
HETATM    2  O1  UNL     1      16.904  -0.265  51.091  1.00  0.00     0.000 OA
HETATM    3  C2  UNL     1      18.169   0.017  51.085  1.00  0.00    -0.050 A 
HETATM    4  C3  UNL     1      19.187   0.559  50.471  1.00  0.00    -0.017 C 
HETATM    5  C4  UNL     1      20.309   1.111  49.882  1.00  0.00     0.049 C 
HETATM    6  C5  UNL     1      21.709   1.160  50.358  1.00  0.00     0.119 C 
HETATM    7  C6  UNL     1      22.473   1.999  49.371  1.00  0.00     0.066 C 
HETATM    8  N1  UNL     1      23.046   2.634  48.601  1.00  0.00    -0.197 NA
HETATM    9  C7  UNL     1      22.153   1.386  51.701  1.00  0.00     0.099 C 
HETATM   10  N4  UNL     1      22.381   0.124  52.495  1.00  0.00    -0.415 N 
HETATM   11  C17 UNL     1      21.008  -0.291  52.783  1.00  0.00     0.061 C 
HETATM   12  C18 UNL     1      19.789  -0.712  53.179  1.00  0.00     0.066 C 
HETATM   13  C19 UNL     1      18.425  -1.103  53.423  1.00  0.00    -0.012 C 
HETATM   14  C20 UNL     1      17.759  -0.684  52.300  1.00  0.00     0.056 A 
HETATM   15  H22 UNL     1      23.023  -0.607  52.958  1.00  0.00     0.153 HD
ENDROOT
BRANCH   9  16
HETATM   16  C8  UNL     1      23.435   2.214  51.900  1.00  0.00     0.033 C 
HETATM   17  C9  UNL     1      23.116   3.601  52.331  1.00  0.00     0.014 C 
BRANCH  16  18
HETATM   18  C10 UNL     1      24.298   1.514  52.914  1.00  0.00     0.276 C 
BRANCH  18  19
HETATM   19  N2  UNL     1      25.706   1.603  52.709  1.00  0.00     0.088 N 
HETATM   20  H15 UNL     1      25.964   2.482  52.164  1.00  0.00     0.316 HD
BRANCH  19  21
HETATM   21  C11 UNL     1      26.484   1.587  53.941  1.00  0.00     0.309 C 
BRANCH  21  22
HETATM   22  C12 UNL     1      27.632   0.681  53.764  1.00  0.00    -0.013 A 
HETATM   23  C13 UNL     1      28.965   0.989  53.743  1.00  0.00     0.012 A 
HETATM   24  C14 UNL     1      29.864  -0.051  53.532  1.00  0.00     0.020 A 
HETATM   25  C15 UNL     1      29.461  -1.376  53.342  1.00  0.00     0.116 A 
HETATM   26  N3  UNL     1      28.130  -1.679  53.364  1.00  0.00    -0.273 NA
HETATM   27  C16 UNL     1      27.273  -0.662  53.570  1.00  0.00     0.125 A 
ENDBRANCH  21  22
ENDBRANCH  19  21
ENDBRANCH  18  19
ENDBRANCH  16  18
ENDBRANCH   9  16
TORSDOF 5
ENDMDL
MODEL 8
REMARK VINA RESULT:      -7.3      3.122      4.438
REMARK  5 active torsions:
REMARK  status: ('A' for Active; 'I' for Inactive)
REMARK    1  A    between atoms: C7_9  and  C8_10 
REMARK    2  A    between atoms: C8_10  and  C10_12 
REMARK    3  A    between atoms: C10_12  and  N2_13 
REMARK    4  A    between atoms: N2_13  and  C11_14 
REMARK    5  A    between atoms: C11_14  and  C12_15 
ROOT
HETATM    1  C1  UNL     1      27.412  -2.377  52.656  1.00  0.00     0.000 C 
HETATM    2  O1  UNL     1      26.474  -1.402  52.712  1.00  0.00     0.000 OA
HETATM    3  C2  UNL     1      26.213  -0.181  52.366  1.00  0.00    -0.050 A 
HETATM    4  C3  UNL     1      26.511   0.857  51.631  1.00  0.00    -0.017 C 
HETATM    5  C4  UNL     1      26.767   1.993  50.886  1.00  0.00     0.049 C 
HETATM    6  C5  UNL     1      26.078   3.303  50.878  1.00  0.00     0.119 C 
HETATM    7  C6  UNL     1      26.702   4.115  49.777  1.00  0.00     0.066 C 
HETATM    8  N1  UNL     1      27.198   4.727  48.938  1.00  0.00    -0.197 NA
HETATM    9  C7  UNL     1      24.666   3.532  50.970  1.00  0.00     0.099 C 
HETATM   10  N4  UNL     1      24.171   3.765  52.376  1.00  0.00    -0.415 N 
HETATM   11  C17 UNL     1      24.211   2.411  52.927  1.00  0.00     0.061 C 
HETATM   12  C18 UNL     1      24.125   1.194  53.502  1.00  0.00     0.066 C 
HETATM   13  C19 UNL     1      24.199  -0.149  54.019  1.00  0.00    -0.012 C 
HETATM   14  C20 UNL     1      25.280  -0.688  53.370  1.00  0.00     0.056 A 
HETATM   15  H22 UNL     1      23.801   4.403  53.162  1.00  0.00     0.153 HD
ENDROOT
BRANCH   9  16
HETATM   16  C8  UNL     1      24.076   4.691  50.148  1.00  0.00     0.033 C 
HETATM   17  C9  UNL     1      22.976   4.216  49.265  1.00  0.00     0.014 C 
BRANCH  16  18
HETATM   18  C10 UNL     1      23.591   5.749  51.099  1.00  0.00     0.276 C 
BRANCH  18  19
HETATM   19  N2  UNL     1      24.511   6.798  51.396  1.00  0.00     0.088 N 
HETATM   20  H15 UNL     1      25.520   6.460  51.319  1.00  0.00     0.316 HD
BRANCH  19  21
HETATM   21  C11 UNL     1      24.359   7.973  50.550  1.00  0.00     0.309 C 
BRANCH  21  22
HETATM   22  C12 UNL     1      25.528   8.069  49.658  1.00  0.00    -0.013 A 
HETATM   23  C13 UNL     1      26.805   8.457  49.966  1.00  0.00     0.012 A 
HETATM   24  C14 UNL     1      27.735   8.491  48.932  1.00  0.00     0.020 A 
HETATM   25  C15 UNL     1      27.418   8.149  47.614  1.00  0.00     0.116 A 
HETATM   26  N3  UNL     1      26.144   7.762  47.312  1.00  0.00    -0.273 NA
HETATM   27  C16 UNL     1      25.255   7.734  48.323  1.00  0.00     0.125 A 
ENDBRANCH  21  22
ENDBRANCH  19  21
ENDBRANCH  18  19
ENDBRANCH  16  18
ENDBRANCH   9  16
TORSDOF 5
ENDMDL
MODEL 9
REMARK VINA RESULT:      -7.0      4.145      8.855
REMARK  5 active torsions:
REMARK  status: ('A' for Active; 'I' for Inactive)
REMARK    1  A    between atoms: C7_9  and  C8_10 
REMARK    2  A    between atoms: C8_10  and  C10_12 
REMARK    3  A    between atoms: C10_12  and  N2_13 
REMARK    4  A    between atoms: N2_13  and  C11_14 
REMARK    5  A    between atoms: C11_14  and  C12_15 
ROOT
HETATM    1  C1  UNL     1      30.213   9.737  47.595  1.00  0.00     0.000 C 
HETATM    2  O1  UNL     1      29.629   8.522  47.724  1.00  0.00     0.000 OA
HETATM    3  C2  UNL     1      28.650   7.886  48.288  1.00  0.00    -0.050 A 
HETATM    4  C3  UNL     1      27.508   7.934  48.920  1.00  0.00    -0.017 C 
HETATM    5  C4  UNL     1      26.299   7.906  49.591  1.00  0.00     0.049 C 
HETATM    6  C5  UNL     1      25.508   6.756  50.082  1.00  0.00     0.119 C 
HETATM    7  C6  UNL     1      24.219   7.314  50.619  1.00  0.00     0.066 C 
HETATM    8  N1  UNL     1      23.242   7.757  51.035  1.00  0.00    -0.197 NA
HETATM    9  C7  UNL     1      25.307   5.504  49.416  1.00  0.00     0.099 C 
HETATM   10  N4  UNL     1      26.298   4.434  49.801  1.00  0.00    -0.415 N 
HETATM   11  C17 UNL     1      27.496   4.875  49.087  1.00  0.00     0.061 C 
HETATM   12  C18 UNL     1      28.625   5.143  48.399  1.00  0.00     0.066 C 
HETATM   13  C19 UNL     1      29.791   5.619  47.700  1.00  0.00    -0.012 C 
HETATM   14  C20 UNL     1      29.661   6.983  47.741  1.00  0.00     0.056 A 
HETATM   15  H22 UNL     1      26.568   3.526  50.315  1.00  0.00     0.153 HD
ENDROOT
BRANCH   9  16
HETATM   16  C8  UNL     1      23.929   4.833  49.557  1.00  0.00     0.033 C 
HETATM   17  C9  UNL     1      23.276   4.666  48.230  1.00  0.00     0.014 C 
BRANCH  16  18
HETATM   18  C10 UNL     1      24.115   3.507  50.241  1.00  0.00     0.276 C 
BRANCH  18  19
HETATM   19  N2  UNL     1      23.300   3.271  51.387  1.00  0.00     0.088 N 
HETATM   20  H15 UNL     1      22.886   2.289  51.372  1.00  0.00     0.316 HD
BRANCH  19  21
HETATM   21  C11 UNL     1      23.996   3.451  52.654  1.00  0.00     0.309 C 
BRANCH  21  22
HETATM   22  C12 UNL     1      24.622   2.173  53.035  1.00  0.00    -0.013 A 
HETATM   23  C13 UNL     1      24.234   0.902  52.705  1.00  0.00     0.012 A 
HETATM   24  C14 UNL     1      24.981  -0.153  53.216  1.00  0.00     0.020 A 
HETATM   25  C15 UNL     1      26.094   0.034  54.042  1.00  0.00     0.116 A 
HETATM   26  N3  UNL     1      26.477   1.303  54.369  1.00  0.00    -0.273 NA
HETATM   27  C16 UNL     1      25.744   2.314  53.866  1.00  0.00     0.125 A 
ENDBRANCH  21  22
ENDBRANCH  19  21
ENDBRANCH  18  19
ENDBRANCH  16  18
ENDBRANCH   9  16
TORSDOF 5
ENDMDL
