MODEL 1
REMARK VINA RESULT:      -7.4      0.000      0.000
REMARK  7 active torsions:
REMARK  status: ('A' for Active; 'I' for Inactive)
REMARK    1  A    between atoms: C2_2  and  O1_4 
REMARK    2  A    between atoms: C4_7  and  C5_8 
REMARK    3  A    between atoms: N1_9  and  C6_10 
REMARK    4  A    between atoms: C7_11  and  C8_12 
REMARK    5  A    between atoms: C7_11  and  C10_15 
REMARK    6  A    between atoms: C10_15  and  N3_16 
REMARK    7  A    between atoms: N3_16  and  C11_17 
ROOT
HETATM    1  C8  UNL     1      22.319  -0.590  52.821  1.00  0.00     0.161 C 
HETATM    2  C9  UNL     1      21.926  -1.194  54.116  1.00  0.00     0.063 C 
HETATM    3  N2  UNL     1      21.608  -1.658  55.108  1.00  0.00    -0.197 NA
ENDROOT
BRANCH   1   4
HETATM    4  C7  UNL     1      22.526   0.878  53.011  1.00  0.00    -0.032 C 
HETATM    5  C6  UNL     1      23.775   1.378  53.024  1.00  0.00     0.121 C 
BRANCH   5   6
HETATM    6  N1  UNL     1      24.689   0.306  52.839  1.00  0.00    -0.273 NA
HETATM    7  C5  UNL     1      25.826   0.419  52.289  1.00  0.00     0.119 C 
BRANCH   7   8
HETATM    8  C4  UNL     1      26.656  -0.762  52.168  1.00  0.00     0.064 C 
HETATM    9  C3  UNL     1      27.633  -0.983  53.019  1.00  0.00     0.156 A 
HETATM   10  O1  UNL     1      28.569  -0.952  54.042  1.00  0.00     0.000 OA
HETATM   11  F2  UNL     1      28.474  -2.024  53.029  1.00  0.00    -0.203 F 
BRANCH  10  12
HETATM   12  C2  UNL     1      28.463   0.165  54.936  1.00  0.00     0.199 C 
HETATM   13  C1  UNL     1      28.978   1.348  54.154  1.00  0.00     0.048 C 
HETATM   14  F1  UNL     1      27.133   0.352  55.270  1.00  0.00    -0.247 F 
ENDBRANCH  10  12
ENDBRANCH   7   8
ENDBRANCH   5   6
BRANCH   4  15
HETATM   15  C10 UNL     1      21.147   1.466  53.148  1.00  0.00     0.156 C 
BRANCH  15  16
HETATM   16  N3  UNL     1      20.528   1.409  51.852  1.00  0.00    -0.386 N 
HETATM   17  H12 UNL     1      19.548   1.020  51.833  1.00  0.00     0.160 HD
BRANCH  16  18
HETATM   18  C11 UNL     1      21.049   1.801  50.606  1.00  0.00     0.029 A 
HETATM   19  C12 UNL     1      21.190   0.899  49.551  1.00  0.00     0.032 A 
HETATM   20  C13 UNL     1      21.691   1.261  48.322  1.00  0.00     0.046 A 
HETATM   21  C14 UNL     1      22.081   2.561  48.082  1.00  0.00     0.138 A 
HETATM   22  F3  UNL     1      22.562   2.866  46.870  1.00  0.00    -0.204 F 
HETATM   23  C15 UNL     1      21.967   3.507  49.091  1.00  0.00     0.074 A 
HETATM   24 CL1  UNL     1      22.461   5.149  48.788  1.00  0.00    -0.081 Cl
HETATM   25  C16 UNL     1      21.461   3.073  50.283  1.00  0.00     0.056 A 
ENDBRANCH  16  18
ENDBRANCH  15  16
ENDBRANCH   4  15
ENDBRANCH   1   4
TORSDOF 7
ENDMDL
MODEL 2
REMARK VINA RESULT:      -7.2      3.802      7.054
REMARK  7 active torsions:
REMARK  status: ('A' for Active; 'I' for Inactive)
REMARK    1  A    between atoms: C2_2  and  O1_4 
REMARK    2  A    between atoms: C4_7  and  C5_8 
REMARK    3  A    between atoms: N1_9  and  C6_10 
REMARK    4  A    between atoms: C7_11  and  C8_12 
REMARK    5  A    between atoms: C7_11  and  C10_15 
REMARK    6  A    between atoms: C10_15  and  N3_16 
REMARK    7  A    between atoms: N3_16  and  C11_17 
ROOT
HETATM    1  C8  UNL     1      23.431   2.350  50.077  1.00  0.00     0.161 C 
HETATM    2  C9  UNL     1      23.032   3.400  49.110  1.00  0.00     0.063 C 
HETATM    3  N2  UNL     1      22.740   4.206  48.358  1.00  0.00    -0.197 NA
ENDROOT
BRANCH   1   4
HETATM    4  C7  UNL     1      23.919   3.002  51.330  1.00  0.00    -0.032 C 
HETATM    5  C6  UNL     1      23.225   2.850  52.473  1.00  0.00     0.121 C 
BRANCH   5   6
HETATM    6  N1  UNL     1      22.091   2.037  52.205  1.00  0.00    -0.273 NA
HETATM    7  C5  UNL     1      20.923   2.267  52.641  1.00  0.00     0.119 C 
BRANCH   7   8
HETATM    8  C4  UNL     1      19.859   1.350  52.286  1.00  0.00     0.064 C 
HETATM    9  C3  UNL     1      19.796   0.156  52.833  1.00  0.00     0.156 A 
HETATM   10  O1  UNL     1      19.982  -1.012  53.558  1.00  0.00     0.000 OA
HETATM   11  F2  UNL     1      18.877  -0.789  52.602  1.00  0.00    -0.203 F 
BRANCH  10  12
HETATM   12  C2  UNL     1      21.102  -1.005  54.454  1.00  0.00     0.199 C 
HETATM   13  C1  UNL     1      22.318  -1.142  53.571  1.00  0.00     0.048 C 
HETATM   14  F1  UNL     1      21.133   0.204  55.128  1.00  0.00    -0.247 F 
ENDBRANCH  10  12
ENDBRANCH   7   8
ENDBRANCH   5   6
BRANCH   4  15
HETATM   15  C10 UNL     1      25.182   3.723  50.945  1.00  0.00     0.156 C 
BRANCH  15  16
HETATM   16  N3  UNL     1      26.201   2.728  50.753  1.00  0.00    -0.386 N 
HETATM   17  H12 UNL     1      26.558   2.628  49.766  1.00  0.00     0.160 HD
BRANCH  16  18
HETATM   18  C11 UNL     1      26.786   1.869  51.700  1.00  0.00     0.029 A 
HETATM   19  C12 UNL     1      27.597   2.352  52.728  1.00  0.00     0.032 A 
HETATM   20  C13 UNL     1      28.174   1.532  53.670  1.00  0.00     0.046 A 
HETATM   21  C14 UNL     1      27.966   0.171  53.632  1.00  0.00     0.138 A 
HETATM   22  F3  UNL     1      28.548  -0.587  54.572  1.00  0.00    -0.204 F 
HETATM   23  C15 UNL     1      27.169  -0.373  52.634  1.00  0.00     0.074 A 
HETATM   24 CL1  UNL     1      26.908  -2.094  52.587  1.00  0.00    -0.081 Cl
HETATM   25  C16 UNL     1      26.631   0.503  51.736  1.00  0.00     0.056 A 
ENDBRANCH  16  18
ENDBRANCH  15  16
ENDBRANCH   4  15
ENDBRANCH   1   4
TORSDOF 7
ENDMDL
MODEL 3
REMARK VINA RESULT:      -7.1      3.296      7.369
REMARK  7 active torsions:
REMARK  status: ('A' for Active; 'I' for Inactive)
REMARK    1  A    between atoms: C2_2  and  O1_4 
REMARK    2  A    between atoms: C4_7  and  C5_8 
REMARK    3  A    between atoms: N1_9  and  C6_10 
REMARK    4  A    between atoms: C7_11  and  C8_12 
REMARK    5  A    between atoms: C7_11  and  C10_15 
REMARK    6  A    between atoms: C10_15  and  N3_16 
REMARK    7  A    between atoms: N3_16  and  C11_17 
ROOT
HETATM    1  C8  UNL     1      22.173   0.002  52.873  1.00  0.00     0.161 C 
HETATM    2  C9  UNL     1      21.702  -0.826  54.008  1.00  0.00     0.063 C 
HETATM    3  N2  UNL     1      21.329  -1.451  54.885  1.00  0.00    -0.197 NA
ENDROOT
BRANCH   1   4
HETATM    4  C7  UNL     1      23.487   0.618  53.231  1.00  0.00    -0.032 C 
HETATM    5  C6  UNL     1      23.700   1.923  52.983  1.00  0.00     0.121 C 
BRANCH   5   6
HETATM    6  N1  UNL     1      22.530   2.464  52.386  1.00  0.00    -0.273 NA
HETATM    7  C5  UNL     1      22.530   3.302  51.434  1.00  0.00     0.119 C 
BRANCH   7   8
HETATM    8  C4  UNL     1      21.258   3.768  50.923  1.00  0.00     0.064 C 
HETATM    9  C3  UNL     1      20.713   3.203  49.868  1.00  0.00     0.156 A 
HETATM   10  O1  UNL     1      20.390   2.429  48.763  1.00  0.00     0.000 OA
HETATM   11  F2  UNL     1      19.551   3.526  49.289  1.00  0.00    -0.203 F 
BRANCH  10  12
HETATM   12  C2  UNL     1      21.330   1.394  48.443  1.00  0.00     0.199 C 
HETATM   13  C1  UNL     1      22.503   2.106  47.814  1.00  0.00     0.048 C 
HETATM   14  F1  UNL     1      21.722   0.762  49.611  1.00  0.00    -0.247 F 
ENDBRANCH  10  12
ENDBRANCH   7   8
ENDBRANCH   5   6
BRANCH   4  15
HETATM   15  C10 UNL     1      24.301  -0.492  53.837  1.00  0.00     0.156 C 
BRANCH  15  16
HETATM   16  N3  UNL     1      25.388  -0.765  52.937  1.00  0.00    -0.386 N 
HETATM   17  H12 UNL     1      25.110  -1.098  51.977  1.00  0.00     0.160 HD
BRANCH  16  18
HETATM   18  C11 UNL     1      26.771  -0.649  53.163  1.00  0.00     0.029 A 
HETATM   19  C12 UNL     1      27.643  -1.717  52.950  1.00  0.00     0.032 A 
HETATM   20  C13 UNL     1      29.000  -1.624  53.157  1.00  0.00     0.046 A 
HETATM   21  C14 UNL     1      29.561  -0.443  53.592  1.00  0.00     0.138 A 
HETATM   22  F3  UNL     1      30.888  -0.401  53.779  1.00  0.00    -0.204 F 
HETATM   23  C15 UNL     1      28.748   0.657  53.823  1.00  0.00     0.074 A 
HETATM   24 CL1  UNL     1      29.457   2.148  54.373  1.00  0.00    -0.081 Cl
HETATM   25  C16 UNL     1      27.412   0.489  53.595  1.00  0.00     0.056 A 
ENDBRANCH  16  18
ENDBRANCH  15  16
ENDBRANCH   4  15
ENDBRANCH   1   4
TORSDOF 7
ENDMDL
MODEL 4
REMARK VINA RESULT:      -7.1      4.351      6.656
REMARK  7 active torsions:
REMARK  status: ('A' for Active; 'I' for Inactive)
REMARK    1  A    between atoms: C2_2  and  O1_4 
REMARK    2  A    between atoms: C4_7  and  C5_8 
REMARK    3  A    between atoms: N1_9  and  C6_10 
REMARK    4  A    between atoms: C7_11  and  C8_12 
REMARK    5  A    between atoms: C7_11  and  C10_15 
REMARK    6  A    between atoms: C10_15  and  N3_16 
REMARK    7  A    between atoms: N3_16  and  C11_17 
ROOT
HETATM    1  C8  UNL     1      27.666   2.320  53.122  1.00  0.00     0.161 C 
HETATM    2  C9  UNL     1      28.708   1.324  53.466  1.00  0.00     0.063 C 
HETATM    3  N2  UNL     1      29.516   0.559  53.716  1.00  0.00    -0.197 NA
ENDROOT
BRANCH   1   4
HETATM    4  C7  UNL     1      26.387   1.605  52.828  1.00  0.00    -0.032 C 
HETATM    5  C6  UNL     1      25.828   1.714  51.609  1.00  0.00     0.121 C 
BRANCH   5   6
HETATM    6  N1  UNL     1      26.650   2.555  50.812  1.00  0.00    -0.273 NA
HETATM    7  C5  UNL     1      26.231   3.267  49.851  1.00  0.00     0.119 C 
BRANCH   7   8
HETATM    8  C4  UNL     1      27.186   4.078  49.123  1.00  0.00     0.064 C 
HETATM    9  C3  UNL     1      26.930   5.341  48.864  1.00  0.00     0.156 A 
HETATM   10  O1  UNL     1      26.397   6.616  48.740  1.00  0.00     0.000 OA
HETATM   11  F2  UNL     1      27.713   6.204  48.207  1.00  0.00    -0.203 F 
BRANCH  10  12
HETATM   12  C2  UNL     1      25.119   6.809  49.361  1.00  0.00     0.199 C 
HETATM   13  C1  UNL     1      24.140   6.055  48.495  1.00  0.00     0.048 C 
HETATM   14  F1  UNL     1      25.148   6.268  50.635  1.00  0.00    -0.247 F 
ENDBRANCH  10  12
ENDBRANCH   7   8
ENDBRANCH   5   6
BRANCH   4  15
HETATM   15  C10 UNL     1      26.029   0.880  54.097  1.00  0.00     0.156 C 
BRANCH  15  16
HETATM   16  N3  UNL     1      25.259  -0.276  53.727  1.00  0.00    -0.386 N 
HETATM   17  H12 UNL     1      25.816  -1.107  53.396  1.00  0.00     0.160 HD
BRANCH  16  18
HETATM   18  C11 UNL     1      23.864  -0.449  53.745  1.00  0.00     0.029 A 
HETATM   19  C12 UNL     1      23.208  -1.020  54.836  1.00  0.00     0.032 A 
HETATM   20  C13 UNL     1      21.844  -1.193  54.879  1.00  0.00     0.046 A 
HETATM   21  C14 UNL     1      21.056  -0.798  53.821  1.00  0.00     0.138 A 
HETATM   22  F3  UNL     1      19.732  -0.986  53.909  1.00  0.00    -0.204 F 
HETATM   23  C15 UNL     1      21.647  -0.223  52.704  1.00  0.00     0.074 A 
HETATM   24 CL1  UNL     1      20.651   0.275  51.366  1.00  0.00    -0.081 Cl
HETATM   25  C16 UNL     1      23.005  -0.084  52.734  1.00  0.00     0.056 A 
ENDBRANCH  16  18
ENDBRANCH  15  16
ENDBRANCH   4  15
ENDBRANCH   1   4
TORSDOF 7
ENDMDL
MODEL 5
REMARK VINA RESULT:      -7.1      3.388      4.137
REMARK  7 active torsions:
REMARK  status: ('A' for Active; 'I' for Inactive)
REMARK    1  A    between atoms: C2_2  and  O1_4 
REMARK    2  A    between atoms: C4_7  and  C5_8 
REMARK    3  A    between atoms: N1_9  and  C6_10 
REMARK    4  A    between atoms: C7_11  and  C8_12 
REMARK    5  A    between atoms: C7_11  and  C10_15 
REMARK    6  A    between atoms: C10_15  and  N3_16 
REMARK    7  A    between atoms: N3_16  and  C11_17 
ROOT
HETATM    1  C8  UNL     1      22.458   2.701  51.715  1.00  0.00     0.161 C 
HETATM    2  C9  UNL     1      21.085   2.723  52.272  1.00  0.00     0.063 C 
HETATM    3  N2  UNL     1      20.024   2.750  52.688  1.00  0.00    -0.197 NA
ENDROOT
BRANCH   1   4
HETATM    4  C7  UNL     1      23.296   3.702  52.443  1.00  0.00    -0.032 C 
HETATM    5  C6  UNL     1      24.376   3.290  53.131  1.00  0.00     0.121 C 
BRANCH   5   6
HETATM    6  N1  UNL     1      24.484   1.880  52.998  1.00  0.00    -0.273 NA
HETATM    7  C5  UNL     1      25.572   1.233  53.061  1.00  0.00     0.119 C 
BRANCH   7   8
HETATM    8  C4  UNL     1      25.531  -0.206  52.907  1.00  0.00     0.064 C 
HETATM    9  C3  UNL     1      26.628  -0.922  53.018  1.00  0.00     0.156 A 
HETATM   10  O1  UNL     1      27.918  -1.405  53.185  1.00  0.00     0.000 OA
HETATM   11  F2  UNL     1      26.740  -2.251  52.901  1.00  0.00    -0.203 F 
BRANCH  10  12
HETATM   12  C2  UNL     1      28.909  -0.412  53.487  1.00  0.00     0.199 C 
HETATM   13  C1  UNL     1      28.586   0.057  54.885  1.00  0.00     0.048 C 
HETATM   14  F1  UNL     1      30.162  -1.001  53.456  1.00  0.00    -0.247 F 
ENDBRANCH  10  12
ENDBRANCH   7   8
ENDBRANCH   5   6
BRANCH   4  15
HETATM   15  C10 UNL     1      22.647   5.035  52.186  1.00  0.00     0.156 C 
BRANCH  15  16
HETATM   16  N3  UNL     1      22.961   5.410  50.834  1.00  0.00    -0.386 N 
HETATM   17  H12 UNL     1      22.147   5.423  50.165  1.00  0.00     0.160 HD
BRANCH  16  18
HETATM   18  C11 UNL     1      24.206   5.761  50.282  1.00  0.00     0.029 A 
HETATM   19  C12 UNL     1      24.905   4.899  49.437  1.00  0.00     0.032 A 
HETATM   20  C13 UNL     1      26.120   5.224  48.880  1.00  0.00     0.046 A 
HETATM   21  C14 UNL     1      26.705   6.443  49.142  1.00  0.00     0.138 A 
HETATM   22  F3  UNL     1      27.889   6.715  48.577  1.00  0.00    -0.204 F 
HETATM   23  C15 UNL     1      26.061   7.346  49.976  1.00  0.00     0.074 A 
HETATM   24 CL1  UNL     1      26.801   8.887  50.309  1.00  0.00    -0.081 Cl
HETATM   25  C16 UNL     1      24.859   6.954  50.491  1.00  0.00     0.056 A 
ENDBRANCH  16  18
ENDBRANCH  15  16
ENDBRANCH   4  15
ENDBRANCH   1   4
TORSDOF 7
ENDMDL
MODEL 6
REMARK VINA RESULT:      -7.0      3.601      4.568
REMARK  7 active torsions:
REMARK  status: ('A' for Active; 'I' for Inactive)
REMARK    1  A    between atoms: C2_2  and  O1_4 
REMARK    2  A    between atoms: C4_7  and  C5_8 
REMARK    3  A    between atoms: N1_9  and  C6_10 
REMARK    4  A    between atoms: C7_11  and  C8_12 
REMARK    5  A    between atoms: C7_11  and  C10_15 
REMARK    6  A    between atoms: C10_15  and  N3_16 
REMARK    7  A    between atoms: N3_16  and  C11_17 
ROOT
HETATM    1  C8  UNL     1      22.755   2.376  51.217  1.00  0.00     0.161 C 
HETATM    2  C9  UNL     1      23.015   2.923  49.864  1.00  0.00     0.063 C 
HETATM    3  N2  UNL     1      23.227   3.334  48.822  1.00  0.00    -0.197 NA
ENDROOT
BRANCH   1   4
HETATM    4  C7  UNL     1      23.344   3.296  52.236  1.00  0.00    -0.032 C 
HETATM    5  C6  UNL     1      24.311   2.849  53.058  1.00  0.00     0.121 C 
BRANCH   5   6
HETATM    6  N1  UNL     1      24.575   1.489  52.742  1.00  0.00    -0.273 NA
HETATM    7  C5  UNL     1      25.198   0.684  53.497  1.00  0.00     0.119 C 
BRANCH   7   8
HETATM    8  C4  UNL     1      25.394  -0.678  53.045  1.00  0.00     0.064 C 
HETATM    9  C3  UNL     1      26.585  -1.233  53.089  1.00  0.00     0.156 A 
HETATM   10  O1  UNL     1      27.926  -1.546  53.253  1.00  0.00     0.000 OA
HETATM   11  F2  UNL     1      26.912  -2.473  52.708  1.00  0.00    -0.203 F 
BRANCH  10  12
HETATM   12  C2  UNL     1      28.732  -0.510  53.831  1.00  0.00     0.199 C 
HETATM   13  C1  UNL     1      30.152  -1.009  53.728  1.00  0.00     0.048 C 
HETATM   14  F1  UNL     1      28.576   0.650  53.091  1.00  0.00    -0.247 F 
ENDBRANCH  10  12
ENDBRANCH   7   8
ENDBRANCH   5   6
BRANCH   4  15
HETATM   15  C10 UNL     1      22.631   4.609  52.055  1.00  0.00     0.156 C 
BRANCH  15  16
HETATM   16  N3  UNL     1      23.615   5.650  52.174  1.00  0.00    -0.386 N 
HETATM   17  H12 UNL     1      23.898   5.898  53.158  1.00  0.00     0.160 HD
BRANCH  16  18
HETATM   18  C11 UNL     1      24.251   6.384  51.156  1.00  0.00     0.029 A 
HETATM   19  C12 UNL     1      23.899   7.703  50.871  1.00  0.00     0.032 A 
HETATM   20  C13 UNL     1      24.512   8.441  49.885  1.00  0.00     0.046 A 
HETATM   21  C14 UNL     1      25.523   7.892  49.127  1.00  0.00     0.138 A 
HETATM   22  F3  UNL     1      26.090   8.650  48.179  1.00  0.00    -0.204 F 
HETATM   23  C15 UNL     1      25.920   6.583  49.361  1.00  0.00     0.074 A 
HETATM   24 CL1  UNL     1      27.196   5.888  48.401  1.00  0.00    -0.081 Cl
HETATM   25  C16 UNL     1      25.265   5.913  50.354  1.00  0.00     0.056 A 
ENDBRANCH  16  18
ENDBRANCH  15  16
ENDBRANCH   4  15
ENDBRANCH   1   4
TORSDOF 7
ENDMDL
MODEL 7
REMARK VINA RESULT:      -7.0      3.836      4.895
REMARK  7 active torsions:
REMARK  status: ('A' for Active; 'I' for Inactive)
REMARK    1  A    between atoms: C2_2  and  O1_4 
REMARK    2  A    between atoms: C4_7  and  C5_8 
REMARK    3  A    between atoms: N1_9  and  C6_10 
REMARK    4  A    between atoms: C7_11  and  C8_12 
REMARK    5  A    between atoms: C7_11  and  C10_15 
REMARK    6  A    between atoms: C10_15  and  N3_16 
REMARK    7  A    between atoms: N3_16  and  C11_17 
ROOT
HETATM    1  C8  UNL     1      24.380   2.650  52.250  1.00  0.00     0.161 C 
HETATM    2  C9  UNL     1      23.868   3.951  52.742  1.00  0.00     0.063 C 
HETATM    3  N2  UNL     1      23.468   4.944  53.134  1.00  0.00    -0.197 NA
ENDROOT
BRANCH   1   4
HETATM    4  C7  UNL     1      23.465   2.138  51.184  1.00  0.00    -0.032 C 
HETATM    5  C6  UNL     1      22.733   1.032  51.410  1.00  0.00     0.121 C 
BRANCH   5   6
HETATM    6  N1  UNL     1      23.020   0.564  52.720  1.00  0.00    -0.273 NA
HETATM    7  C5  UNL     1      22.852  -0.632  53.109  1.00  0.00     0.119 C 
BRANCH   7   8
HETATM    8  C4  UNL     1      23.188  -0.968  54.477  1.00  0.00     0.064 C 
HETATM    9  C3  UNL     1      24.428  -0.872  54.904  1.00  0.00     0.156 A 
HETATM   10  O1  UNL     1      25.792  -0.679  55.066  1.00  0.00     0.000 OA
HETATM   11  F2  UNL     1      24.882  -1.148  56.132  1.00  0.00    -0.203 F 
BRANCH  10  12
HETATM   12  C2  UNL     1      26.483  -0.186  53.909  1.00  0.00     0.199 C 
HETATM   13  C1  UNL     1      27.918  -0.021  54.346  1.00  0.00     0.048 C 
HETATM   14  F1  UNL     1      26.395  -1.125  52.896  1.00  0.00    -0.247 F 
ENDBRANCH  10  12
ENDBRANCH   7   8
ENDBRANCH   5   6
BRANCH   4  15
HETATM   15  C10 UNL     1      23.619   3.090  50.029  1.00  0.00     0.156 C 
BRANCH  15  16
HETATM   16  N3  UNL     1      25.028   3.238  49.782  1.00  0.00    -0.386 N 
HETATM   17  H12 UNL     1      25.621   2.399  50.016  1.00  0.00     0.160 HD
BRANCH  16  18
HETATM   18  C11 UNL     1      25.722   4.348  49.270  1.00  0.00     0.029 A 
HETATM   19  C12 UNL     1      25.079   5.556  48.998  1.00  0.00     0.032 A 
HETATM   20  C13 UNL     1      25.739   6.657  48.504  1.00  0.00     0.046 A 
HETATM   21  C14 UNL     1      27.093   6.606  48.254  1.00  0.00     0.138 A 
HETATM   22  F3  UNL     1      27.693   7.704  47.773  1.00  0.00    -0.204 F 
HETATM   23  C15 UNL     1      27.792   5.432  48.502  1.00  0.00     0.074 A 
HETATM   24 CL1  UNL     1      29.502   5.368  48.184  1.00  0.00    -0.081 Cl
HETATM   25  C16 UNL     1      27.069   4.383  48.992  1.00  0.00     0.056 A 
ENDBRANCH  16  18
ENDBRANCH  15  16
ENDBRANCH   4  15
ENDBRANCH   1   4
TORSDOF 7
ENDMDL
MODEL 8
REMARK VINA RESULT:      -6.8      2.722      3.235
REMARK  7 active torsions:
REMARK  status: ('A' for Active; 'I' for Inactive)
REMARK    1  A    between atoms: C2_2  and  O1_4 
REMARK    2  A    between atoms: C4_7  and  C5_8 
REMARK    3  A    between atoms: N1_9  and  C6_10 
REMARK    4  A    between atoms: C7_11  and  C8_12 
REMARK    5  A    between atoms: C7_11  and  C10_15 
REMARK    6  A    between atoms: C10_15  and  N3_16 
REMARK    7  A    between atoms: N3_16  and  C11_17 
ROOT
HETATM    1  C8  UNL     1      22.539   0.622  51.809  1.00  0.00     0.161 C 
HETATM    2  C9  UNL     1      21.446   0.312  52.761  1.00  0.00     0.063 C 
HETATM    3  N2  UNL     1      20.595   0.077  53.481  1.00  0.00    -0.197 NA
ENDROOT
BRANCH   1   4
HETATM    4  C7  UNL     1      23.040   2.005  52.075  1.00  0.00    -0.032 C 
HETATM    5  C6  UNL     1      24.340   2.198  52.365  1.00  0.00     0.121 C 
BRANCH   5   6
HETATM    6  N1  UNL     1      24.995   0.937  52.350  1.00  0.00    -0.273 NA
HETATM    7  C5  UNL     1      26.187   0.752  51.961  1.00  0.00     0.119 C 
BRANCH   7   8
HETATM    8  C4  UNL     1      26.727  -0.591  52.002  1.00  0.00     0.064 C 
HETATM    9  C3  UNL     1      27.539  -0.957  52.969  1.00  0.00     0.156 A 
HETATM   10  O1  UNL     1      28.353  -1.054  54.088  1.00  0.00     0.000 OA
HETATM   11  F2  UNL     1      28.109  -2.156  53.134  1.00  0.00    -0.203 F 
BRANCH  10  12
HETATM   12  C2  UNL     1      28.423   0.127  54.900  1.00  0.00     0.199 C 
HETATM   13  C1  UNL     1      29.258   1.102  54.107  1.00  0.00     0.048 C 
HETATM   14  F1  UNL     1      27.145   0.626  55.082  1.00  0.00    -0.247 F 
ENDBRANCH  10  12
ENDBRANCH   7   8
ENDBRANCH   5   6
BRANCH   4  15
HETATM   15  C10 UNL     1      21.841   2.903  51.932  1.00  0.00     0.156 C 
BRANCH  15  16
HETATM   16  N3  UNL     1      22.206   4.191  52.457  1.00  0.00    -0.386 N 
HETATM   17  H12 UNL     1      22.264   4.253  53.507  1.00  0.00     0.160 HD
BRANCH  16  18
HETATM   18  C11 UNL     1      22.497   5.377  51.761  1.00  0.00     0.029 A 
HETATM   19  C12 UNL     1      23.807   5.811  51.563  1.00  0.00     0.032 A 
HETATM   20  C13 UNL     1      24.116   6.964  50.879  1.00  0.00     0.046 A 
HETATM   21  C14 UNL     1      23.116   7.752  50.350  1.00  0.00     0.138 A 
HETATM   22  F3  UNL     1      23.465   8.866  49.692  1.00  0.00    -0.204 F 
HETATM   23  C15 UNL     1      21.790   7.375  50.513  1.00  0.00     0.074 A 
HETATM   24 CL1  UNL     1      20.527   8.371  49.847  1.00  0.00    -0.081 Cl
HETATM   25  C16 UNL     1      21.562   6.219  51.203  1.00  0.00     0.056 A 
ENDBRANCH  16  18
ENDBRANCH  15  16
ENDBRANCH   4  15
ENDBRANCH   1   4
TORSDOF 7
ENDMDL
MODEL 9
REMARK VINA RESULT:      -6.8      3.770      5.598
REMARK  7 active torsions:
REMARK  status: ('A' for Active; 'I' for Inactive)
REMARK    1  A    between atoms: C2_2  and  O1_4 
REMARK    2  A    between atoms: C4_7  and  C5_8 
REMARK    3  A    between atoms: N1_9  and  C6_10 
REMARK    4  A    between atoms: C7_11  and  C8_12 
REMARK    5  A    between atoms: C7_11  and  C10_15 
REMARK    6  A    between atoms: C10_15  and  N3_16 
REMARK    7  A    between atoms: N3_16  and  C11_17 
ROOT
HETATM    1  C8  UNL     1      27.114   1.356  52.043  1.00  0.00     0.161 C 
HETATM    2  C9  UNL     1      27.865   2.109  53.075  1.00  0.00     0.063 C 
HETATM    3  N2  UNL     1      28.433   2.681  53.881  1.00  0.00    -0.197 NA
ENDROOT
BRANCH   1   4
HETATM    4  C7  UNL     1      26.041   2.233  51.484  1.00  0.00    -0.032 C 
HETATM    5  C6  UNL     1      24.802   2.185  52.007  1.00  0.00     0.121 C 
BRANCH   5   6
HETATM    6  N1  UNL     1      24.796   1.232  53.060  1.00  0.00    -0.273 NA
HETATM    7  C5  UNL     1      24.047   0.210  53.101  1.00  0.00     0.119 C 
BRANCH   7   8
HETATM    8  C4  UNL     1      24.149  -0.678  54.240  1.00  0.00     0.064 C 
HETATM    9  C3  UNL     1      23.072  -1.215  54.769  1.00  0.00     0.156 A 
HETATM   10  O1  UNL     1      21.790  -1.623  55.106  1.00  0.00     0.000 OA
HETATM   11  F2  UNL     1      23.015  -2.047  55.815  1.00  0.00    -0.203 F 
BRANCH  10  12
HETATM   12  C2  UNL     1      20.744  -1.118  54.264  1.00  0.00     0.199 C 
HETATM   13  C1  UNL     1      20.645   0.351  54.594  1.00  0.00     0.048 C 
HETATM   14  F1  UNL     1      21.108  -1.289  52.939  1.00  0.00    -0.247 F 
ENDBRANCH  10  12
ENDBRANCH   7   8
ENDBRANCH   5   6
BRANCH   4  15
HETATM   15  C10 UNL     1      26.695   3.015  50.377  1.00  0.00     0.156 C 
BRANCH  15  16
HETATM   16  N3  UNL     1      26.253   4.377  50.497  1.00  0.00    -0.386 N 
HETATM   17  H12 UNL     1      26.503   4.858  51.401  1.00  0.00     0.160 HD
BRANCH  16  18
HETATM   18  C11 UNL     1      25.533   5.156  49.574  1.00  0.00     0.029 A 
HETATM   19  C12 UNL     1      24.233   4.827  49.190  1.00  0.00     0.032 A 
HETATM   20  C13 UNL     1      23.507   5.578  48.295  1.00  0.00     0.046 A 
HETATM   21  C14 UNL     1      24.052   6.712  47.731  1.00  0.00     0.138 A 
HETATM   22  F3  UNL     1      23.306   7.411  46.864  1.00  0.00    -0.204 F 
HETATM   23  C15 UNL     1      25.342   7.093  48.071  1.00  0.00     0.074 A 
HETATM   24 CL1  UNL     1      26.030   8.525  47.357  1.00  0.00    -0.081 Cl
HETATM   25  C16 UNL     1      25.999   6.299  48.965  1.00  0.00     0.056 A 
ENDBRANCH  16  18
ENDBRANCH  15  16
ENDBRANCH   4  15
ENDBRANCH   1   4
TORSDOF 7
ENDMDL
