MODEL 1
REMARK VINA RESULT:      -9.1      0.000      0.000
REMARK  1 active torsions:
REMARK  status: ('A' for Active; 'I' for Inactive)
REMARK    1  A    between atoms: C3_3  and  C4_4 
ROOT
HETATM    1  C4  UNL     1      23.472   6.010  49.582  1.00  0.00     0.035 C 
HETATM    2  C5  UNL     1      24.683   5.424  49.492  1.00  0.00    -0.053 C 
HETATM    3  C6  UNL     1      25.970   6.143  49.717  1.00  0.00     0.046 C 
HETATM    4  C7  UNL     1      24.873   4.004  49.132  1.00  0.00     0.074 C 
HETATM    5  C8  UNL     1      25.409   3.151  50.212  1.00  0.00    -0.051 A 
HETATM    6  C9  UNL     1      24.624   2.048  50.585  1.00  0.00     0.010 A 
HETATM    7  C10 UNL     1      24.927   1.129  51.561  1.00  0.00     0.033 A 
HETATM    8  C11 UNL     1      26.074   1.185  52.315  1.00  0.00     0.072 A 
HETATM    9  C12 UNL     1      26.844   2.265  51.950  1.00  0.00     0.096 A 
HETATM   10  C13 UNL     1      26.545   3.185  50.975  1.00  0.00     0.046 A 
HETATM   11  O1  UNL     1      28.012   2.365  52.680  1.00  0.00    -0.340 OA
HETATM   12  C14 UNL     1      28.637   1.233  53.198  1.00  0.00     0.279 C 
HETATM   13  C15 UNL     1      27.693   0.476  54.027  1.00  0.00     0.250 C 
HETATM   14  O2  UNL     1      27.690  -0.038  55.179  1.00  0.00    -0.271 OA
HETATM   15  N1  UNL     1      26.465   0.279  53.343  1.00  0.00    -0.286 N 
HETATM   16  C16 UNL     1      25.450  -0.766  53.554  1.00  0.00     0.402 C 
HETATM   17  N2  UNL     1      24.221  -0.178  53.980  1.00  0.00     0.103 N 
HETATM   18  C17 UNL     1      23.156  -1.161  53.971  1.00  0.00     0.297 C 
HETATM   19  C18 UNL     1      21.826  -0.402  54.281  1.00  0.00     0.198 C 
HETATM   20  O3  UNL     1      21.683   0.576  53.312  1.00  0.00    -0.386 OA
HETATM   21  C19 UNL     1      20.534   1.316  53.500  1.00  0.00     0.196 C 
HETATM   22  C20 UNL     1      20.530   2.410  52.450  1.00  0.00     0.018 C 
HETATM   23  C21 UNL     1      20.519   3.717  52.351  1.00  0.00     0.116 C 
HETATM   24  N3  UNL     1      20.523   4.543  51.164  1.00  0.00    -0.256 NA
HETATM   25  C22 UNL     1      21.620   4.586  50.435  1.00  0.00     0.207 C 
HETATM   26  N4  UNL     1      22.437   5.019  49.317  1.00  0.00    -0.351 N 
HETATM   27  H18 UNL     1      24.314   0.151  54.969  1.00  0.00     0.318 HD
HETATM   28  H28 UNL     1      22.148   4.529  48.419  1.00  0.00     0.166 HD
ENDROOT
BRANCH   1  29
HETATM   29  C3  UNL     1      23.032   7.366  49.888  1.00  0.00     0.025 C 
HETATM   30  C2  UNL     1      21.999   8.163  49.992  1.00  0.00    -0.029 C 
HETATM   31  C1  UNL     1      20.515   8.157  49.842  1.00  0.00     0.036 C 
ENDBRANCH   1  29
TORSDOF 1
ENDMDL
MODEL 2
REMARK VINA RESULT:      -8.7      3.192      7.026
REMARK  1 active torsions:
REMARK  status: ('A' for Active; 'I' for Inactive)
REMARK    1  A    between atoms: C3_3  and  C4_4 
ROOT
HETATM    1  C4  UNL     1      25.913   0.363  53.117  1.00  0.00     0.035 C 
HETATM    2  C5  UNL     1      25.853   1.444  52.314  1.00  0.00    -0.053 C 
HETATM    3  C6  UNL     1      26.721   1.635  51.117  1.00  0.00     0.046 C 
HETATM    4  C7  UNL     1      24.934   2.577  52.544  1.00  0.00     0.074 C 
HETATM    5  C8  UNL     1      23.871   2.738  51.531  1.00  0.00    -0.051 A 
HETATM    6  C9  UNL     1      22.549   2.702  52.002  1.00  0.00     0.010 A 
HETATM    7  C10 UNL     1      21.412   2.828  51.240  1.00  0.00     0.033 A 
HETATM    8  C11 UNL     1      21.438   3.010  49.878  1.00  0.00     0.072 A 
HETATM    9  C12 UNL     1      22.734   3.046  49.416  1.00  0.00     0.096 A 
HETATM   10  C13 UNL     1      23.871   2.921  50.175  1.00  0.00     0.046 A 
HETATM   11  O1  UNL     1      22.812   3.227  48.050  1.00  0.00    -0.340 OA
HETATM   12  C14 UNL     1      21.828   3.929  47.358  1.00  0.00     0.279 C 
HETATM   13  C15 UNL     1      20.513   3.336  47.622  1.00  0.00     0.250 C 
HETATM   14  O2  UNL     1      19.524   2.952  46.938  1.00  0.00    -0.271 OA
HETATM   15  N1  UNL     1      20.314   3.149  49.014  1.00  0.00    -0.286 N 
HETATM   16  C16 UNL     1      19.047   3.042  49.757  1.00  0.00     0.402 C 
HETATM   17  N2  UNL     1      18.937   1.753  50.359  1.00  0.00     0.103 N 
HETATM   18  C17 UNL     1      17.815   1.713  51.276  1.00  0.00     0.297 C 
HETATM   19  C18 UNL     1      17.870   0.335  52.012  1.00  0.00     0.198 C 
HETATM   20  O3  UNL     1      19.101   0.263  52.641  1.00  0.00    -0.386 OA
HETATM   21  C19 UNL     1      19.256  -0.929  53.319  1.00  0.00     0.196 C 
HETATM   22  C20 UNL     1      20.664  -0.941  53.883  1.00  0.00     0.018 C 
HETATM   23  C21 UNL     1      21.772  -1.638  53.822  1.00  0.00     0.116 C 
HETATM   24  N3  UNL     1      23.032  -1.412  54.497  1.00  0.00    -0.256 NA
HETATM   25  C22 UNL     1      23.764  -0.381  54.125  1.00  0.00     0.207 C 
HETATM   26  N4  UNL     1      24.919   0.494  54.176  1.00  0.00    -0.351 N 
HETATM   27  H18 UNL     1      18.744   1.037  49.621  1.00  0.00     0.318 HD
HETATM   28  H28 UNL     1      24.876   1.138  55.022  1.00  0.00     0.166 HD
ENDROOT
BRANCH   1  29
HETATM   29  C3  UNL     1      26.729  -0.845  53.118  1.00  0.00     0.025 C 
HETATM   30  C2  UNL     1      27.946  -1.321  53.193  1.00  0.00    -0.029 C 
HETATM   31  C1  UNL     1      29.358  -0.864  53.333  1.00  0.00     0.036 C 
ENDBRANCH   1  29
TORSDOF 1
ENDMDL
MODEL 3
REMARK VINA RESULT:      -8.6      2.654      6.949
REMARK  1 active torsions:
REMARK  status: ('A' for Active; 'I' for Inactive)
REMARK    1  A    between atoms: C3_3  and  C4_4 
ROOT
HETATM    1  C4  UNL     1      25.771   0.160  53.116  1.00  0.00     0.035 C 
HETATM    2  C5  UNL     1      26.021   1.411  52.681  1.00  0.00    -0.053 C 
HETATM    3  C6  UNL     1      27.067   1.742  51.671  1.00  0.00     0.046 C 
HETATM    4  C7  UNL     1      25.303   2.602  53.176  1.00  0.00     0.074 C 
HETATM    5  C8  UNL     1      24.438   3.270  52.182  1.00  0.00    -0.051 A 
HETATM    6  C9  UNL     1      23.079   3.389  52.516  1.00  0.00     0.010 A 
HETATM    7  C10 UNL     1      22.101   3.970  51.744  1.00  0.00     0.033 A 
HETATM    8  C11 UNL     1      22.348   4.520  50.509  1.00  0.00     0.072 A 
HETATM    9  C12 UNL     1      23.680   4.405  50.182  1.00  0.00     0.096 A 
HETATM   10  C13 UNL     1      24.659   3.827  50.951  1.00  0.00     0.046 A 
HETATM   11  O1  UNL     1      23.979   4.946  48.948  1.00  0.00    -0.340 OA
HETATM   12  C14 UNL     1      23.245   6.011  48.431  1.00  0.00     0.279 C 
HETATM   13  C15 UNL     1      21.820   5.666  48.398  1.00  0.00     0.250 C 
HETATM   14  O2  UNL     1      20.882   5.716  47.555  1.00  0.00    -0.271 OA
HETATM   15  N1  UNL     1      21.399   5.139  49.646  1.00  0.00    -0.286 N 
HETATM   16  C16 UNL     1      20.044   5.102  50.221  1.00  0.00     0.402 C 
HETATM   17  N2  UNL     1      19.617   3.751  50.388  1.00  0.00     0.103 N 
HETATM   18  C17 UNL     1      18.391   3.695  51.159  1.00  0.00     0.297 C 
HETATM   19  C18 UNL     1      18.090   2.188  51.439  1.00  0.00     0.198 C 
HETATM   20  O3  UNL     1      19.188   1.674  52.109  1.00  0.00    -0.386 OA
HETATM   21  C19 UNL     1      19.027   0.335  52.398  1.00  0.00     0.196 C 
HETATM   22  C20 UNL     1      20.316  -0.141  53.039  1.00  0.00     0.018 C 
HETATM   23  C21 UNL     1      21.276  -1.014  52.852  1.00  0.00     0.116 C 
HETATM   24  N3  UNL     1      22.450  -1.267  53.659  1.00  0.00    -0.256 NA
HETATM   25  C22 UNL     1      23.403  -0.357  53.679  1.00  0.00     0.207 C 
HETATM   26  N4  UNL     1      24.681   0.196  54.084  1.00  0.00    -0.351 N 
HETATM   27  H18 UNL     1      19.401   3.333  49.453  1.00  0.00     0.318 HD
HETATM   28  H28 UNL     1      24.639   0.566  55.081  1.00  0.00     0.166 HD
ENDROOT
BRANCH   1  29
HETATM   29  C3  UNL     1      26.343  -1.145  52.809  1.00  0.00     0.025 C 
HETATM   30  C2  UNL     1      27.434  -1.869  52.812  1.00  0.00    -0.029 C 
HETATM   31  C1  UNL     1      28.879  -1.778  53.165  1.00  0.00     0.036 C 
ENDBRANCH   1  29
TORSDOF 1
ENDMDL
MODEL 4
REMARK VINA RESULT:      -8.4      3.029      6.606
REMARK  1 active torsions:
REMARK  status: ('A' for Active; 'I' for Inactive)
REMARK    1  A    between atoms: C3_3  and  C4_4 
ROOT
HETATM    1  C4  UNL     1      24.746   3.951  50.755  1.00  0.00     0.035 C 
HETATM    2  C5  UNL     1      23.593   4.500  50.321  1.00  0.00    -0.053 C 
HETATM    3  C6  UNL     1      23.368   4.953  48.919  1.00  0.00     0.046 C 
HETATM    4  C7  UNL     1      22.429   4.740  51.197  1.00  0.00     0.074 C 
HETATM    5  C8  UNL     1      21.238   3.918  50.895  1.00  0.00    -0.051 A 
HETATM    6  C9  UNL     1      20.755   3.112  51.938  1.00  0.00     0.010 A 
HETATM    7  C10 UNL     1      19.668   2.272  51.878  1.00  0.00     0.033 A 
HETATM    8  C11 UNL     1      18.902   2.117  50.748  1.00  0.00     0.072 A 
HETATM    9  C12 UNL     1      19.375   2.908  49.726  1.00  0.00     0.096 A 
HETATM   10  C13 UNL     1      20.459   3.748  49.783  1.00  0.00     0.046 A 
HETATM   11  O1  UNL     1      18.635   2.787  48.567  1.00  0.00    -0.340 OA
HETATM   12  C14 UNL     1      17.278   2.473  48.607  1.00  0.00     0.279 C 
HETATM   13  C15 UNL     1      17.075   1.230  49.359  1.00  0.00     0.250 C 
HETATM   14  O2  UNL     1      16.454   0.145  49.189  1.00  0.00    -0.271 OA
HETATM   15  N1  UNL     1      17.765   1.272  50.598  1.00  0.00    -0.286 N 
HETATM   16  C16 UNL     1      17.492   0.513  51.830  1.00  0.00     0.402 C 
HETATM   17  N2  UNL     1      18.593  -0.342  52.135  1.00  0.00     0.103 N 
HETATM   18  C17 UNL     1      18.440  -0.920  53.456  1.00  0.00     0.297 C 
HETATM   19  C18 UNL     1      19.757  -1.697  53.774  1.00  0.00     0.198 C 
HETATM   20  O3  UNL     1      20.795  -0.785  53.687  1.00  0.00    -0.386 OA
HETATM   21  C19 UNL     1      22.015  -1.377  53.945  1.00  0.00     0.196 C 
HETATM   22  C20 UNL     1      23.079  -0.319  53.727  1.00  0.00     0.018 C 
HETATM   23  C21 UNL     1      24.136  -0.084  52.989  1.00  0.00     0.116 C 
HETATM   24  N3  UNL     1      25.011   1.068  52.985  1.00  0.00    -0.256 NA
HETATM   25  C22 UNL     1      24.541   2.208  52.517  1.00  0.00     0.207 C 
HETATM   26  N4  UNL     1      24.617   3.613  52.167  1.00  0.00    -0.351 N 
HETATM   27  H18 UNL     1      18.612  -1.142  51.461  1.00  0.00     0.318 HD
HETATM   28  H28 UNL     1      24.567   4.227  53.034  1.00  0.00     0.166 HD
ENDROOT
BRANCH   1  29
HETATM   29  C3  UNL     1      26.016   3.640  50.111  1.00  0.00     0.025 C 
HETATM   30  C2  UNL     1      26.973   4.098  49.343  1.00  0.00    -0.029 C 
HETATM   31  C1  UNL     1      27.370   5.327  48.599  1.00  0.00     0.036 C 
ENDBRANCH   1  29
TORSDOF 1
ENDMDL
MODEL 5
REMARK VINA RESULT:      -8.4      3.333      7.096
REMARK  1 active torsions:
REMARK  status: ('A' for Active; 'I' for Inactive)
REMARK    1  A    between atoms: C3_3  and  C4_4 
ROOT
HETATM    1  C4  UNL     1      25.716   2.111  51.665  1.00  0.00     0.035 C 
HETATM    2  C5  UNL     1      25.504   3.106  50.781  1.00  0.00    -0.053 C 
HETATM    3  C6  UNL     1      26.342   3.329  49.568  1.00  0.00     0.046 C 
HETATM    4  C7  UNL     1      24.429   4.108  50.928  1.00  0.00     0.074 C 
HETATM    5  C8  UNL     1      23.360   4.035  49.912  1.00  0.00    -0.051 A 
HETATM    6  C9  UNL     1      22.054   3.844  50.392  1.00  0.00     0.010 A 
HETATM    7  C10 UNL     1      20.915   3.744  49.628  1.00  0.00     0.033 A 
HETATM    8  C11 UNL     1      20.923   3.822  48.256  1.00  0.00     0.072 A 
HETATM    9  C12 UNL     1      22.202   4.011  47.786  1.00  0.00     0.096 A 
HETATM   10  C13 UNL     1      23.341   4.111  48.546  1.00  0.00     0.046 A 
HETATM   11  O1  UNL     1      22.261   4.096  46.409  1.00  0.00    -0.340 OA
HETATM   12  C14 UNL     1      21.190   4.592  45.671  1.00  0.00     0.279 C 
HETATM   13  C15 UNL     1      19.973   3.837  45.987  1.00  0.00     0.250 C 
HETATM   14  O2  UNL     1      19.055   3.261  45.340  1.00  0.00    -0.271 OA
HETATM   15  N1  UNL     1      19.795   3.730  47.391  1.00  0.00    -0.286 N 
HETATM   16  C16 UNL     1      18.553   3.498  48.147  1.00  0.00     0.402 C 
HETATM   17  N2  UNL     1      18.628   2.257  48.847  1.00  0.00     0.103 N 
HETATM   18  C17 UNL     1      17.518   2.124  49.770  1.00  0.00     0.297 C 
HETATM   19  C18 UNL     1      17.769   0.830  50.609  1.00  0.00     0.198 C 
HETATM   20  O3  UNL     1      18.994   0.985  51.235  1.00  0.00    -0.386 OA
HETATM   21  C19 UNL     1      19.317  -0.116  52.002  1.00  0.00     0.196 C 
HETATM   22  C20 UNL     1      20.708   0.120  52.558  1.00  0.00     0.018 C 
HETATM   23  C21 UNL     1      21.905  -0.411  52.544  1.00  0.00     0.116 C 
HETATM   24  N3  UNL     1      23.115   0.047  53.192  1.00  0.00    -0.256 NA
HETATM   25  C22 UNL     1      23.692   1.142  52.738  1.00  0.00     0.207 C 
HETATM   26  N4  UNL     1      24.708   2.177  52.715  1.00  0.00    -0.351 N 
HETATM   27  H18 UNL     1      18.546   1.466  48.166  1.00  0.00     0.318 HD
HETATM   28  H28 UNL     1      24.566   2.870  53.510  1.00  0.00     0.166 HD
ENDROOT
BRANCH   1  29
HETATM   29  C3  UNL     1      26.699   1.037  51.753  1.00  0.00     0.025 C 
HETATM   30  C2  UNL     1      26.995  -0.105  52.320  1.00  0.00    -0.029 C 
HETATM   31  C1  UNL     1      26.452  -1.079  53.309  1.00  0.00     0.036 C 
ENDBRANCH   1  29
TORSDOF 1
ENDMDL
MODEL 6
REMARK VINA RESULT:      -8.1      2.630      8.026
REMARK  1 active torsions:
REMARK  status: ('A' for Active; 'I' for Inactive)
REMARK    1  A    between atoms: C3_3  and  C4_4 
ROOT
HETATM    1  C4  UNL     1      24.567  -0.492  53.781  1.00  0.00     0.035 C 
HETATM    2  C5  UNL     1      23.245  -0.681  53.596  1.00  0.00    -0.053 C 
HETATM    3  C6  UNL     1      22.256  -0.758  54.709  1.00  0.00     0.046 C 
HETATM    4  C7  UNL     1      22.628  -0.860  52.266  1.00  0.00     0.074 C 
HETATM    5  C8  UNL     1      21.736   0.235  51.836  1.00  0.00    -0.051 A 
HETATM    6  C9  UNL     1      22.068   0.876  50.631  1.00  0.00     0.010 A 
HETATM    7  C10 UNL     1      21.382   1.915  50.048  1.00  0.00     0.033 A 
HETATM    8  C11 UNL     1      20.251   2.469  50.598  1.00  0.00     0.072 A 
HETATM    9  C12 UNL     1      19.925   1.841  51.778  1.00  0.00     0.096 A 
HETATM   10  C13 UNL     1      20.607   0.803  52.362  1.00  0.00     0.046 A 
HETATM   11  O1  UNL     1      18.792   2.363  52.369  1.00  0.00    -0.340 OA
HETATM   12  C14 UNL     1      17.777   2.935  51.605  1.00  0.00     0.279 C 
HETATM   13  C15 UNL     1      18.329   3.997  50.757  1.00  0.00     0.250 C 
HETATM   14  O2  UNL     1      18.048   5.198  50.489  1.00  0.00    -0.271 OA
HETATM   15  N1  UNL     1      19.481   3.543  50.065  1.00  0.00    -0.286 N 
HETATM   16  C16 UNL     1      20.064   4.053  48.813  1.00  0.00     0.402 C 
HETATM   17  N2  UNL     1      21.371   4.573  49.055  1.00  0.00     0.103 N 
HETATM   18  C17 UNL     1      22.043   4.866  47.804  1.00  0.00     0.297 C 
HETATM   19  C18 UNL     1      23.513   5.265  48.154  1.00  0.00     0.198 C 
HETATM   20  O3  UNL     1      24.068   4.200  48.843  1.00  0.00    -0.386 OA
HETATM   21  C19 UNL     1      25.374   4.455  49.208  1.00  0.00     0.196 C 
HETATM   22  C20 UNL     1      25.845   3.274  50.034  1.00  0.00     0.018 C 
HETATM   23  C21 UNL     1      26.300   2.993  51.230  1.00  0.00     0.116 C 
HETATM   24  N3  UNL     1      26.689   1.714  51.783  1.00  0.00    -0.256 NA
HETATM   25  C22 UNL     1      25.745   0.827  52.031  1.00  0.00     0.207 C 
HETATM   26  N4  UNL     1      25.233  -0.452  52.485  1.00  0.00    -0.351 N 
HETATM   27  H18 UNL     1      21.297   5.480  49.572  1.00  0.00     0.318 HD
HETATM   28  H28 UNL     1      25.429  -1.217  51.772  1.00  0.00     0.166 HD
ENDROOT
BRANCH   1  29
HETATM   29  C3  UNL     1      25.402  -0.317  54.963  1.00  0.00     0.025 C 
HETATM   30  C2  UNL     1      26.603  -0.031  55.399  1.00  0.00    -0.029 C 
HETATM   31  C1  UNL     1      27.962   0.317  54.895  1.00  0.00     0.036 C 
ENDBRANCH   1  29
TORSDOF 1
ENDMDL
MODEL 7
REMARK VINA RESULT:      -8.1      3.251      5.959
REMARK  1 active torsions:
REMARK  status: ('A' for Active; 'I' for Inactive)
REMARK    1  A    between atoms: C3_3  and  C4_4 
ROOT
HETATM    1  C4  UNL     1      18.442   1.963  49.845  1.00  0.00     0.035 C 
HETATM    2  C5  UNL     1      18.966   2.790  48.918  1.00  0.00    -0.053 C 
HETATM    3  C6  UNL     1      18.389   4.121  48.576  1.00  0.00     0.046 C 
HETATM    4  C7  UNL     1      20.159   2.456  48.114  1.00  0.00     0.074 C 
HETATM    5  C8  UNL     1      21.351   3.284  48.390  1.00  0.00    -0.051 A 
HETATM    6  C9  UNL     1      22.508   2.597  48.795  1.00  0.00     0.010 A 
HETATM    7  C10 UNL     1      23.722   3.164  49.103  1.00  0.00     0.033 A 
HETATM    8  C11 UNL     1      23.953   4.518  49.051  1.00  0.00     0.072 A 
HETATM    9  C12 UNL     1      22.820   5.190  48.653  1.00  0.00     0.096 A 
HETATM   10  C13 UNL     1      21.607   4.628  48.344  1.00  0.00     0.046 A 
HETATM   11  O1  UNL     1      23.003   6.557  48.584  1.00  0.00    -0.340 OA
HETATM   12  C14 UNL     1      24.251   7.104  48.294  1.00  0.00     0.279 C 
HETATM   13  C15 UNL     1      25.250   6.599  49.242  1.00  0.00     0.250 C 
HETATM   14  O2  UNL     1      26.148   7.093  49.979  1.00  0.00    -0.271 OA
HETATM   15  N1  UNL     1      25.174   5.187  49.352  1.00  0.00    -0.286 N 
HETATM   16  C16 UNL     1      26.216   4.239  49.781  1.00  0.00     0.402 C 
HETATM   17  N2  UNL     1      25.813   3.574  50.978  1.00  0.00     0.103 N 
HETATM   18  C17 UNL     1      26.717   2.482  51.283  1.00  0.00     0.297 C 
HETATM   19  C18 UNL     1      26.111   1.710  52.499  1.00  0.00     0.198 C 
HETATM   20  O3  UNL     1      24.846   1.292  52.123  1.00  0.00    -0.386 OA
HETATM   21  C19 UNL     1      24.216   0.600  53.137  1.00  0.00     0.196 C 
HETATM   22  C20 UNL     1      22.815   0.279  52.654  1.00  0.00     0.018 C 
HETATM   23  C21 UNL     1      21.562   0.495  52.971  1.00  0.00     0.116 C 
HETATM   24  N3  UNL     1      20.360   0.050  52.299  1.00  0.00    -0.256 NA
HETATM   25  C22 UNL     1      20.064   0.581  51.129  1.00  0.00     0.207 C 
HETATM   26  N4  UNL     1      19.261   0.760  49.935  1.00  0.00    -0.351 N 
HETATM   27  H18 UNL     1      25.867   4.240  51.784  1.00  0.00     0.318 HD
HETATM   28  H28 UNL     1      19.389  -0.054  49.262  1.00  0.00     0.166 HD
ENDROOT
BRANCH   1  29
HETATM   29  C3  UNL     1      17.288   2.048  50.731  1.00  0.00     0.025 C 
HETATM   30  C2  UNL     1      16.525   2.851  51.429  1.00  0.00    -0.029 C 
HETATM   31  C1  UNL     1      16.371   4.295  51.767  1.00  0.00     0.036 C 
ENDBRANCH   1  29
TORSDOF 1
ENDMDL
MODEL 8
REMARK VINA RESULT:      -7.7      2.700      4.179
REMARK  1 active torsions:
REMARK  status: ('A' for Active; 'I' for Inactive)
REMARK    1  A    between atoms: C3_3  and  C4_4 
ROOT
HETATM    1  C4  UNL     1      24.003   5.719  48.836  1.00  0.00     0.035 C 
HETATM    2  C5  UNL     1      24.565   4.557  49.224  1.00  0.00    -0.053 C 
HETATM    3  C6  UNL     1      25.782   4.473  50.082  1.00  0.00     0.046 C 
HETATM    4  C7  UNL     1      24.054   3.232  48.820  1.00  0.00     0.074 C 
HETATM    5  C8  UNL     1      23.488   2.419  49.915  1.00  0.00    -0.051 A 
HETATM    6  C9  UNL     1      22.152   2.012  49.765  1.00  0.00     0.010 A 
HETATM    7  C10 UNL     1      21.428   1.256  50.656  1.00  0.00     0.033 A 
HETATM    8  C11 UNL     1      21.947   0.794  51.842  1.00  0.00     0.072 A 
HETATM    9  C12 UNL     1      23.256   1.192  51.989  1.00  0.00     0.096 A 
HETATM   10  C13 UNL     1      23.981   1.946  51.101  1.00  0.00     0.046 A 
HETATM   11  O1  UNL     1      23.822   0.750  53.169  1.00  0.00    -0.340 OA
HETATM   12  C14 UNL     1      23.403  -0.433  53.771  1.00  0.00     0.279 C 
HETATM   13  C15 UNL     1      21.954  -0.394  53.996  1.00  0.00     0.250 C 
HETATM   14  O2  UNL     1      21.168  -0.621  54.957  1.00  0.00    -0.271 OA
HETATM   15  N1  UNL     1      21.271   0.009  52.820  1.00  0.00    -0.286 N 
HETATM   16  C16 UNL     1      19.875  -0.250  52.432  1.00  0.00     0.402 C 
HETATM   17  N2  UNL     1      19.156   0.978  52.334  1.00  0.00     0.103 N 
HETATM   18  C17 UNL     1      17.853   0.761  51.735  1.00  0.00     0.297 C 
HETATM   19  C18 UNL     1      17.210   2.167  51.509  1.00  0.00     0.198 C 
HETATM   20  O3  UNL     1      18.076   2.884  50.702  1.00  0.00    -0.386 OA
HETATM   21  C19 UNL     1      17.601   4.154  50.447  1.00  0.00     0.196 C 
HETATM   22  C20 UNL     1      18.666   4.876  49.644  1.00  0.00     0.018 C 
HETATM   23  C21 UNL     1      19.437   5.934  49.707  1.00  0.00     0.116 C 
HETATM   24  N3  UNL     1      20.414   6.410  48.754  1.00  0.00    -0.256 NA
HETATM   25  C22 UNL     1      21.526   5.718  48.599  1.00  0.00     0.207 C 
HETATM   26  N4  UNL     1      22.827   5.436  48.022  1.00  0.00    -0.351 N 
HETATM   27  H18 UNL     1      18.982   1.361  53.293  1.00  0.00     0.318 HD
HETATM   28  H28 UNL     1      22.732   5.045  47.037  1.00  0.00     0.166 HD
ENDROOT
BRANCH   1  29
HETATM   29  C3  UNL     1      24.324   7.121  49.074  1.00  0.00     0.025 C 
HETATM   30  C2  UNL     1      25.057   8.136  48.692  1.00  0.00    -0.029 C 
HETATM   31  C1  UNL     1      26.102   8.495  47.691  1.00  0.00     0.036 C 
ENDBRANCH   1  29
TORSDOF 1
ENDMDL
MODEL 9
REMARK VINA RESULT:      -7.7      5.609      9.124
REMARK  1 active torsions:
REMARK  status: ('A' for Active; 'I' for Inactive)
REMARK    1  A    between atoms: C3_3  and  C4_4 
ROOT
HETATM    1  C4  UNL     1      23.748   5.504  48.260  1.00  0.00     0.035 C 
HETATM    2  C5  UNL     1      24.891   5.333  48.954  1.00  0.00    -0.053 C 
HETATM    3  C6  UNL     1      25.382   4.006  49.426  1.00  0.00     0.046 C 
HETATM    4  C7  UNL     1      25.775   6.447  49.350  1.00  0.00     0.074 C 
HETATM    5  C8  UNL     1      27.098   6.461  48.693  1.00  0.00    -0.051 A 
HETATM    6  C9  UNL     1      27.420   7.617  47.962  1.00  0.00     0.010 A 
HETATM    7  C10 UNL     1      28.588   7.842  47.273  1.00  0.00     0.033 A 
HETATM    8  C11 UNL     1      29.613   6.929  47.216  1.00  0.00     0.072 A 
HETATM    9  C12 UNL     1      29.298   5.798  47.933  1.00  0.00     0.096 A 
HETATM   10  C13 UNL     1      28.133   5.570  48.622  1.00  0.00     0.046 A 
HETATM   11  O1  UNL     1      30.301   4.849  47.906  1.00  0.00    -0.340 OA
HETATM   12  C14 UNL     1      31.638   5.216  47.775  1.00  0.00     0.279 C 
HETATM   13  C15 UNL     1      31.814   6.039  46.574  1.00  0.00     0.250 C 
HETATM   14  O2  UNL     1      32.592   6.058  45.579  1.00  0.00    -0.271 OA
HETATM   15  N1  UNL     1      30.852   7.080  46.529  1.00  0.00    -0.286 N 
HETATM   16  C16 UNL     1      30.921   8.368  45.819  1.00  0.00     0.402 C 
HETATM   17  N2  UNL     1      29.897   8.437  44.826  1.00  0.00     0.103 N 
HETATM   18  C17 UNL     1      29.806   9.777  44.280  1.00  0.00     0.297 C 
HETATM   19  C18 UNL     1      28.561   9.806  43.337  1.00  0.00     0.198 C 
HETATM   20  O3  UNL     1      27.465   9.446  44.102  1.00  0.00    -0.386 OA
HETATM   21  C19 UNL     1      26.305   9.432  43.355  1.00  0.00     0.196 C 
HETATM   22  C20 UNL     1      25.197   8.934  44.262  1.00  0.00     0.018 C 
HETATM   23  C21 UNL     1      24.323   7.962  44.351  1.00  0.00     0.116 C 
HETATM   24  N3  UNL     1      23.334   7.712  45.377  1.00  0.00    -0.256 NA
HETATM   25  C22 UNL     1      23.751   7.326  46.566  1.00  0.00     0.207 C 
HETATM   26  N4  UNL     1      23.581   6.918  47.948  1.00  0.00    -0.351 N 
HETATM   27  H18 UNL     1      30.140   7.806  44.028  1.00  0.00     0.318 HD
HETATM   28  H28 UNL     1      23.346   7.750  48.567  1.00  0.00     0.166 HD
ENDROOT
BRANCH   1  29
HETATM   29  C3  UNL     1      22.717   4.592  47.780  1.00  0.00     0.025 C 
HETATM   30  C2  UNL     1      22.220   3.385  47.875  1.00  0.00    -0.029 C 
HETATM   31  C1  UNL     1      22.437   2.100  48.599  1.00  0.00     0.036 C 
ENDBRANCH   1  29
TORSDOF 1
ENDMDL
