MODEL 1
REMARK VINA RESULT:      -8.0      0.000      0.000
REMARK  2 active torsions:
REMARK  status: ('A' for Active; 'I' for Inactive)
REMARK    1  A    between atoms: C3_3  and  C4_4 
REMARK       I    between atoms: C4_4  and  N1_6 
REMARK    2  A    between atoms: N1_6  and  C5_7 
ROOT
HETATM    1  C5  UNL     1      25.878   2.573  51.853  1.00  0.00     0.021 C 
HETATM    2  C6  UNL     1      26.876   1.950  52.430  1.00  0.00     0.010 C 
HETATM    3  C7  UNL     1      26.820   0.861  53.387  1.00  0.00     0.069 C 
HETATM    4  C8  UNL     1      27.795  -0.214  52.931  1.00  0.00     0.021 C 
HETATM    5  C9  UNL     1      25.492   0.332  53.673  1.00  0.00     0.116 C 
HETATM    6  C10 UNL     1      25.484  -0.424  54.922  1.00  0.00     0.115 C 
HETATM    7  N2  UNL     1      25.488  -1.020  55.939  1.00  0.00    -0.190 NA
HETATM    8  N3  UNL     1      24.314   0.325  53.161  1.00  0.00    -0.281 NA
HETATM    9  C11 UNL     1      23.953   1.006  51.876  1.00  0.00     0.167 C 
HETATM   10  C12 UNL     1      24.380   2.410  51.958  1.00  0.00     0.105 C 
HETATM   11  C13 UNL     1      23.654   3.489  51.337  1.00  0.00     0.026 C 
HETATM   12  C14 UNL     1      22.803   3.452  50.314  1.00  0.00    -0.039 C 
HETATM   13  C15 UNL     1      22.522   2.164  49.682  1.00  0.00     0.050 C 
HETATM   14  C16 UNL     1      22.060   4.587  49.712  1.00  0.00     0.009 C 
HETATM   15  C17 UNL     1      22.167   5.904  49.831  1.00  0.00     0.002 C 
HETATM   16  C18 UNL     1      23.153   6.556  50.677  1.00  0.00     0.017 C 
HETATM   17  C19 UNL     1      23.967   6.118  51.618  1.00  0.00     0.088 C 
HETATM   18  N4  UNL     1      24.012   4.731  52.012  1.00  0.00    -0.368 N 
HETATM   19  H22 UNL     1      24.396   4.654  53.006  1.00  0.00     0.165 HD
ENDROOT
BRANCH   1  20
HETATM   20  N1  UNL     1      26.438   3.581  50.982  1.00  0.00    -0.327 N 
HETATM   21  C4  UNL     1      26.761   3.477  49.600  1.00  0.00     0.245 C 
HETATM   22  O1  UNL     1      26.594   2.427  48.898  1.00  0.00    -0.268 OA
HETATM   23  H6  UNL     1      26.615   4.505  51.480  1.00  0.00     0.169 HD
BRANCH  21  24
HETATM   24  C3  UNL     1      27.320   4.663  48.955  1.00  0.00     0.070 C 
HETATM   25  C2  UNL     1      26.729   5.834  48.751  1.00  0.00    -0.026 C 
HETATM   26  C1  UNL     1      27.286   7.035  48.102  1.00  0.00     0.036 C 
ENDBRANCH  21  24
ENDBRANCH   1  20
TORSDOF 2
ENDMDL
MODEL 2
REMARK VINA RESULT:      -8.0      3.257      5.257
REMARK  2 active torsions:
REMARK  status: ('A' for Active; 'I' for Inactive)
REMARK    1  A    between atoms: C3_3  and  C4_4 
REMARK       I    between atoms: C4_4  and  N1_6 
REMARK    2  A    between atoms: N1_6  and  C5_7 
ROOT
HETATM    1  C5  UNL     1      23.198   0.585  52.759  1.00  0.00     0.021 C 
HETATM    2  C6  UNL     1      23.599  -0.438  53.474  1.00  0.00     0.010 C 
HETATM    3  C7  UNL     1      24.890  -0.639  54.104  1.00  0.00     0.069 C 
HETATM    4  C8  UNL     1      24.648  -1.081  55.539  1.00  0.00     0.021 C 
HETATM    5  C9  UNL     1      25.827   0.474  54.009  1.00  0.00     0.116 C 
HETATM    6  C10 UNL     1      27.195   0.036  54.270  1.00  0.00     0.115 C 
HETATM    7  N2  UNL     1      28.296  -0.333  54.469  1.00  0.00    -0.190 NA
HETATM    8  N3  UNL     1      25.820   1.735  53.764  1.00  0.00    -0.281 NA
HETATM    9  C11 UNL     1      24.585   2.523  53.450  1.00  0.00     0.167 C 
HETATM   10  C12 UNL     1      23.883   1.865  52.340  1.00  0.00     0.105 C 
HETATM   11  C13 UNL     1      23.147   2.590  51.335  1.00  0.00     0.026 C 
HETATM   12  C14 UNL     1      22.618   3.810  51.396  1.00  0.00    -0.039 C 
HETATM   13  C15 UNL     1      22.765   4.577  52.631  1.00  0.00     0.050 C 
HETATM   14  C16 UNL     1      21.881   4.531  50.329  1.00  0.00     0.009 C 
HETATM   15  C17 UNL     1      21.359   4.148  49.171  1.00  0.00     0.002 C 
HETATM   16  C18 UNL     1      21.423   2.784  48.674  1.00  0.00     0.017 C 
HETATM   17  C19 UNL     1      22.108   1.719  49.044  1.00  0.00     0.088 C 
HETATM   18  N4  UNL     1      23.030   1.744  50.153  1.00  0.00    -0.368 N 
HETATM   19  H22 UNL     1      23.750   0.963  50.037  1.00  0.00     0.165 HD
ENDROOT
BRANCH   1  20
HETATM   20  N1  UNL     1      21.837   0.323  52.350  1.00  0.00    -0.327 N 
HETATM   21  C4  UNL     1      20.655   0.343  53.142  1.00  0.00     0.245 C 
HETATM   22  O1  UNL     1      20.626   0.608  54.388  1.00  0.00    -0.268 OA
HETATM   23  H6  UNL     1      21.755   0.091  51.315  1.00  0.00     0.169 HD
BRANCH  21  24
HETATM   24  C3  UNL     1      19.395   0.039  52.467  1.00  0.00     0.070 C 
HETATM   25  C2  UNL     1      19.037   0.357  51.229  1.00  0.00    -0.026 C 
HETATM   26  C1  UNL     1      17.769   0.054  50.541  1.00  0.00     0.036 C 
ENDBRANCH  21  24
ENDBRANCH   1  20
TORSDOF 2
ENDMDL
MODEL 3
REMARK VINA RESULT:      -7.6      1.752      2.064
REMARK  2 active torsions:
REMARK  status: ('A' for Active; 'I' for Inactive)
REMARK    1  A    between atoms: C3_3  and  C4_4 
REMARK       I    between atoms: C4_4  and  N1_6 
REMARK    2  A    between atoms: N1_6  and  C5_7 
ROOT
HETATM    1  C5  UNL     1      23.815   2.303  51.878  1.00  0.00     0.021 C 
HETATM    2  C6  UNL     1      24.668   1.612  52.593  1.00  0.00     0.010 C 
HETATM    3  C7  UNL     1      24.411   0.443  53.412  1.00  0.00     0.069 C 
HETATM    4  C8  UNL     1      25.460  -0.606  53.076  1.00  0.00     0.021 C 
HETATM    5  C9  UNL     1      23.052  -0.084  53.362  1.00  0.00     0.116 C 
HETATM    6  C10 UNL     1      22.780  -0.949  54.507  1.00  0.00     0.115 C 
HETATM    7  N2  UNL     1      22.569  -1.633  55.443  1.00  0.00    -0.190 NA
HETATM    8  N3  UNL     1      22.010  -0.023  52.615  1.00  0.00    -0.281 NA
HETATM    9  C11 UNL     1      21.929   0.778  51.350  1.00  0.00     0.167 C 
HETATM   10  C12 UNL     1      22.328   2.160  51.649  1.00  0.00     0.105 C 
HETATM   11  C13 UNL     1      21.751   3.304  50.990  1.00  0.00     0.026 C 
HETATM   12  C14 UNL     1      21.135   3.375  49.811  1.00  0.00    -0.039 C 
HETATM   13  C15 UNL     1      20.994   2.155  49.019  1.00  0.00     0.050 C 
HETATM   14  C16 UNL     1      20.537   4.573  49.173  1.00  0.00     0.009 C 
HETATM   15  C17 UNL     1      20.616   5.872  49.432  1.00  0.00     0.002 C 
HETATM   16  C18 UNL     1      21.400   6.427  50.522  1.00  0.00     0.017 C 
HETATM   17  C19 UNL     1      21.996   5.891  51.570  1.00  0.00     0.088 C 
HETATM   18  N4  UNL     1      21.957   4.474  51.836  1.00  0.00    -0.368 N 
HETATM   19  H22 UNL     1      22.122   4.301  52.878  1.00  0.00     0.165 HD
ENDROOT
BRANCH   1  20
HETATM   20  N1  UNL     1      24.546   3.374  51.240  1.00  0.00    -0.327 N 
HETATM   21  C4  UNL     1      24.857   3.535  49.861  1.00  0.00     0.245 C 
HETATM   22  O1  UNL     1      24.519   2.717  48.945  1.00  0.00    -0.268 OA
HETATM   23  H6  UNL     1      24.875   4.116  51.929  1.00  0.00     0.169 HD
BRANCH  21  24
HETATM   24  C3  UNL     1      25.617   4.726  49.484  1.00  0.00     0.070 C 
HETATM   25  C2  UNL     1      26.812   4.780  48.908  1.00  0.00    -0.026 C 
HETATM   26  C1  UNL     1      27.584   5.976  48.524  1.00  0.00     0.036 C 
ENDBRANCH  21  24
ENDBRANCH   1  20
TORSDOF 2
ENDMDL
MODEL 4
REMARK VINA RESULT:      -7.4      2.354      6.033
REMARK  2 active torsions:
REMARK  status: ('A' for Active; 'I' for Inactive)
REMARK    1  A    between atoms: C3_3  and  C4_4 
REMARK       I    between atoms: C4_4  and  N1_6 
REMARK    2  A    between atoms: N1_6  and  C5_7 
ROOT
HETATM    1  C5  UNL     1      25.853   3.854  49.753  1.00  0.00     0.021 C 
HETATM    2  C6  UNL     1      26.956   4.096  49.089  1.00  0.00     0.010 C 
HETATM    3  C7  UNL     1      27.351   5.324  48.424  1.00  0.00     0.069 C 
HETATM    4  C8  UNL     1      28.780   5.642  48.837  1.00  0.00     0.021 C 
HETATM    5  C9  UNL     1      26.451   6.458  48.593  1.00  0.00     0.116 C 
HETATM    6  C10 UNL     1      26.686   7.474  47.571  1.00  0.00     0.115 C 
HETATM    7  N2  UNL     1      26.876   8.279  46.732  1.00  0.00    -0.190 NA
HETATM    8  N3  UNL     1      25.506   6.845  49.372  1.00  0.00    -0.281 NA
HETATM    9  C11 UNL     1      24.998   6.048  50.535  1.00  0.00     0.167 C 
HETATM   10  C12 UNL     1      24.642   4.705  50.060  1.00  0.00     0.105 C 
HETATM   11  C13 UNL     1      23.546   3.943  50.602  1.00  0.00     0.026 C 
HETATM   12  C14 UNL     1      22.952   4.051  51.790  1.00  0.00    -0.039 C 
HETATM   13  C15 UNL     1      23.435   5.065  52.725  1.00  0.00     0.050 C 
HETATM   14  C16 UNL     1      21.811   3.256  52.307  1.00  0.00     0.009 C 
HETATM   15  C17 UNL     1      21.223   2.142  51.894  1.00  0.00     0.002 C 
HETATM   16  C18 UNL     1      21.640   1.403  50.713  1.00  0.00     0.017 C 
HETATM   17  C19 UNL     1      22.451   1.686  49.711  1.00  0.00     0.088 C 
HETATM   18  N4  UNL     1      23.147   2.945  49.616  1.00  0.00    -0.368 N 
HETATM   19  H22 UNL     1      23.402   3.137  48.597  1.00  0.00     0.165 HD
ENDROOT
BRANCH   1  20
HETATM   20  N1  UNL     1      25.920   2.491  50.228  1.00  0.00    -0.327 N 
HETATM   21  C4  UNL     1      26.652   1.974  51.333  1.00  0.00     0.245 C 
HETATM   22  O1  UNL     1      27.389   2.674  52.101  1.00  0.00    -0.268 OA
HETATM   23  H6  UNL     1      25.331   1.822  49.646  1.00  0.00     0.169 HD
BRANCH  21  24
HETATM   24  C3  UNL     1      26.539   0.540  51.595  1.00  0.00     0.070 C 
HETATM   25  C2  UNL     1      27.158  -0.167  52.532  1.00  0.00    -0.026 C 
HETATM   26  C1  UNL     1      27.050  -1.613  52.802  1.00  0.00     0.036 C 
ENDBRANCH  21  24
ENDBRANCH   1  20
TORSDOF 2
ENDMDL
MODEL 5
REMARK VINA RESULT:      -7.3      8.233     10.619
REMARK  2 active torsions:
REMARK  status: ('A' for Active; 'I' for Inactive)
REMARK    1  A    between atoms: C3_3  and  C4_4 
REMARK       I    between atoms: C4_4  and  N1_6 
REMARK    2  A    between atoms: N1_6  and  C5_7 
ROOT
HETATM    1  C5  UNL     1      31.280   7.315  46.667  1.00  0.00     0.021 C 
HETATM    2  C6  UNL     1      30.320   8.147  46.345  1.00  0.00     0.010 C 
HETATM    3  C7  UNL     1      29.482   8.934  47.229  1.00  0.00     0.069 C 
HETATM    4  C8  UNL     1      29.458  10.362  46.705  1.00  0.00     0.021 C 
HETATM    5  C9  UNL     1      29.808   8.861  48.649  1.00  0.00     0.116 C 
HETATM    6  C10 UNL     1      28.688   9.309  49.470  1.00  0.00     0.115 C 
HETATM    7  N2  UNL     1      27.771   9.660  50.122  1.00  0.00    -0.190 NA
HETATM    8  N3  UNL     1      30.787   8.521  49.408  1.00  0.00    -0.281 NA
HETATM    9  C11 UNL     1      32.102   8.008  48.904  1.00  0.00     0.167 C 
HETATM   10  C12 UNL     1      31.845   6.880  47.999  1.00  0.00     0.105 C 
HETATM   11  C13 UNL     1      32.726   5.744  47.889  1.00  0.00     0.026 C 
HETATM   12  C14 UNL     1      34.019   5.650  48.192  1.00  0.00    -0.039 C 
HETATM   13  C15 UNL     1      34.706   6.832  48.711  1.00  0.00     0.050 C 
HETATM   14  C16 UNL     1      34.890   4.454  48.081  1.00  0.00     0.009 C 
HETATM   15  C17 UNL     1      34.741   3.277  47.488  1.00  0.00     0.002 C 
HETATM   16  C18 UNL     1      33.550   2.896  46.746  1.00  0.00     0.017 C 
HETATM   17  C19 UNL     1      32.344   3.423  46.642  1.00  0.00     0.088 C 
HETATM   18  N4  UNL     1      31.966   4.625  47.344  1.00  0.00    -0.368 N 
HETATM   19  H22 UNL     1      30.904   4.652  47.460  1.00  0.00     0.165 HD
ENDROOT
BRANCH   1  20
HETATM   20  N1  UNL     1      31.818   6.774  45.440  1.00  0.00    -0.327 N 
HETATM   21  C4  UNL     1      33.049   7.089  44.799  1.00  0.00     0.245 C 
HETATM   22  O1  UNL     1      33.895   7.935  45.237  1.00  0.00    -0.268 OA
HETATM   23  H6  UNL     1      31.179   6.050  44.992  1.00  0.00     0.169 HD
BRANCH  21  24
HETATM   24  C3  UNL     1      33.352   6.385  43.554  1.00  0.00     0.070 C 
HETATM   25  C2  UNL     1      33.232   5.087  43.303  1.00  0.00    -0.026 C 
HETATM   26  C1  UNL     1      33.535   4.370  42.051  1.00  0.00     0.036 C 
ENDBRANCH  21  24
ENDBRANCH   1  20
TORSDOF 2
ENDMDL
MODEL 6
REMARK VINA RESULT:      -7.0      2.456      3.286
REMARK  2 active torsions:
REMARK  status: ('A' for Active; 'I' for Inactive)
REMARK    1  A    between atoms: C3_3  and  C4_4 
REMARK       I    between atoms: C4_4  and  N1_6 
REMARK    2  A    between atoms: N1_6  and  C5_7 
ROOT
HETATM    1  C5  UNL     1      23.684   1.542  51.515  1.00  0.00     0.021 C 
HETATM    2  C6  UNL     1      24.977   1.332  51.560  1.00  0.00     0.010 C 
HETATM    3  C7  UNL     1      25.739   0.652  52.590  1.00  0.00     0.069 C 
HETATM    4  C8  UNL     1      26.668  -0.341  51.908  1.00  0.00     0.021 C 
HETATM    5  C9  UNL     1      24.960   0.047  53.664  1.00  0.00     0.116 C 
HETATM    6  C10 UNL     1      25.793  -0.216  54.834  1.00  0.00     0.115 C 
HETATM    7  N2  UNL     1      26.472  -0.410  55.777  1.00  0.00    -0.190 NA
HETATM    8  N3  UNL     1      23.756  -0.330  53.902  1.00  0.00    -0.281 NA
HETATM    9  C11 UNL     1      22.629  -0.209  52.921  1.00  0.00     0.167 C 
HETATM   10  C12 UNL     1      22.561   1.184  52.461  1.00  0.00     0.105 C 
HETATM   11  C13 UNL     1      21.323   1.845  52.135  1.00  0.00     0.026 C 
HETATM   12  C14 UNL     1      20.152   1.315  51.786  1.00  0.00    -0.039 C 
HETATM   13  C15 UNL     1      20.040  -0.140  51.699  1.00  0.00     0.050 C 
HETATM   14  C16 UNL     1      18.891   2.031  51.474  1.00  0.00     0.009 C 
HETATM   15  C17 UNL     1      18.608   3.305  51.237  1.00  0.00     0.002 C 
HETATM   16  C18 UNL     1      19.604   4.364  51.240  1.00  0.00     0.017 C 
HETATM   17  C19 UNL     1      20.860   4.421  51.642  1.00  0.00     0.088 C 
HETATM   18  N4  UNL     1      21.534   3.286  52.224  1.00  0.00    -0.368 N 
HETATM   19  H22 UNL     1      22.345   3.624  52.831  1.00  0.00     0.165 HD
ENDROOT
BRANCH   1  20
HETATM   20  N1  UNL     1      23.401   2.260  50.293  1.00  0.00    -0.327 N 
HETATM   21  C4  UNL     1      23.732   3.603  49.958  1.00  0.00     0.245 C 
HETATM   22  O1  UNL     1      24.356   4.405  50.727  1.00  0.00    -0.268 OA
HETATM   23  H6  UNL     1      22.877   1.669  49.579  1.00  0.00     0.169 HD
BRANCH  21  24
HETATM   24  C3  UNL     1      23.323   4.081  48.639  1.00  0.00     0.070 C 
HETATM   25  C2  UNL     1      22.373   3.588  47.853  1.00  0.00    -0.026 C 
HETATM   26  C1  UNL     1      21.955   4.065  46.522  1.00  0.00     0.036 C 
ENDBRANCH  21  24
ENDBRANCH   1  20
TORSDOF 2
ENDMDL
MODEL 7
REMARK VINA RESULT:      -7.0      1.853      2.639
REMARK  2 active torsions:
REMARK  status: ('A' for Active; 'I' for Inactive)
REMARK    1  A    between atoms: C3_3  and  C4_4 
REMARK       I    between atoms: C4_4  and  N1_6 
REMARK    2  A    between atoms: N1_6  and  C5_7 
ROOT
HETATM    1  C5  UNL     1      24.188   3.342  50.471  1.00  0.00     0.021 C 
HETATM    2  C6  UNL     1      24.823   2.767  51.463  1.00  0.00     0.010 C 
HETATM    3  C7  UNL     1      24.335   1.740  52.364  1.00  0.00     0.069 C 
HETATM    4  C8  UNL     1      25.391   0.649  52.447  1.00  0.00     0.021 C 
HETATM    5  C9  UNL     1      23.006   1.216  52.074  1.00  0.00     0.116 C 
HETATM    6  C10 UNL     1      22.440   0.541  53.237  1.00  0.00     0.115 C 
HETATM    7  N2  UNL     1      21.989   0.011  54.188  1.00  0.00    -0.190 NA
HETATM    8  N3  UNL     1      22.170   1.164  51.100  1.00  0.00    -0.281 NA
HETATM    9  C11 UNL     1      22.419   1.759  49.747  1.00  0.00     0.167 C 
HETATM   10  C12 UNL     1      22.791   3.169  49.920  1.00  0.00     0.105 C 
HETATM   11  C13 UNL     1      22.429   4.200  48.980  1.00  0.00     0.026 C 
HETATM   12  C14 UNL     1      22.109   4.088  47.692  1.00  0.00    -0.039 C 
HETATM   13  C15 UNL     1      22.109   2.760  47.081  1.00  0.00     0.050 C 
HETATM   14  C16 UNL     1      21.725   5.175  46.758  1.00  0.00     0.009 C 
HETATM   15  C17 UNL     1      21.793   6.498  46.830  1.00  0.00     0.002 C 
HETATM   16  C18 UNL     1      22.322   7.213  47.979  1.00  0.00     0.017 C 
HETATM   17  C19 UNL     1      22.635   6.844  49.207  1.00  0.00     0.088 C 
HETATM   18  N4  UNL     1      22.479   5.486  49.665  1.00  0.00    -0.368 N 
HETATM   19  H22 UNL     1      22.389   5.476  50.730  1.00  0.00     0.165 HD
ENDROOT
BRANCH   1  20
HETATM   20  N1  UNL     1      25.090   4.299  49.872  1.00  0.00    -0.327 N 
HETATM   21  C4  UNL     1      26.386   4.074  49.330  1.00  0.00     0.245 C 
HETATM   22  O1  UNL     1      26.967   2.940  49.294  1.00  0.00    -0.268 OA
HETATM   23  H6  UNL     1      24.692   5.286  49.854  1.00  0.00     0.169 HD
BRANCH  21  24
HETATM   24  C3  UNL     1      27.089   5.232  48.780  1.00  0.00     0.070 C 
HETATM   25  C2  UNL     1      28.358   5.309  48.399  1.00  0.00    -0.026 C 
HETATM   26  C1  UNL     1      29.073   6.473  47.843  1.00  0.00     0.036 C 
ENDBRANCH  21  24
ENDBRANCH   1  20
TORSDOF 2
ENDMDL
MODEL 8
REMARK VINA RESULT:      -7.0      2.802      4.816
REMARK  2 active torsions:
REMARK  status: ('A' for Active; 'I' for Inactive)
REMARK    1  A    between atoms: C3_3  and  C4_4 
REMARK       I    between atoms: C4_4  and  N1_6 
REMARK    2  A    between atoms: N1_6  and  C5_7 
ROOT
HETATM    1  C5  UNL     1      22.994   1.563  51.629  1.00  0.00     0.021 C 
HETATM    2  C6  UNL     1      22.939   0.609  52.524  1.00  0.00     0.010 C 
HETATM    3  C7  UNL     1      24.024  -0.213  53.027  1.00  0.00     0.069 C 
HETATM    4  C8  UNL     1      23.936  -0.228  54.545  1.00  0.00     0.021 C 
HETATM    5  C9  UNL     1      25.357   0.126  52.544  1.00  0.00     0.116 C 
HETATM    6  C10 UNL     1      26.287  -0.981  52.742  1.00  0.00     0.115 C 
HETATM    7  N2  UNL     1      27.024  -1.888  52.894  1.00  0.00    -0.190 NA
HETATM    8  N3  UNL     1      25.973   1.109  51.992  1.00  0.00    -0.281 NA
HETATM    9  C11 UNL     1      25.325   2.414  51.639  1.00  0.00     0.167 C 
HETATM   10  C12 UNL     1      24.136   2.138  50.823  1.00  0.00     0.105 C 
HETATM   11  C13 UNL     1      23.691   3.006  49.762  1.00  0.00     0.026 C 
HETATM   12  C14 UNL     1      23.937   4.302  49.576  1.00  0.00    -0.039 C 
HETATM   13  C15 UNL     1      24.767   5.005  50.552  1.00  0.00     0.050 C 
HETATM   14  C16 UNL     1      23.473   5.160  48.458  1.00  0.00     0.009 C 
HETATM   15  C17 UNL     1      22.567   4.994  47.505  1.00  0.00     0.002 C 
HETATM   16  C18 UNL     1      21.762   3.791  47.363  1.00  0.00     0.017 C 
HETATM   17  C19 UNL     1      21.829   2.590  47.905  1.00  0.00     0.088 C 
HETATM   18  N4  UNL     1      22.854   2.230  48.854  1.00  0.00    -0.368 N 
HETATM   19  H22 UNL     1      22.986   1.170  48.853  1.00  0.00     0.165 HD
ENDROOT
BRANCH   1  20
HETATM   20  N1  UNL     1      21.656   2.084  51.463  1.00  0.00    -0.327 N 
HETATM   21  C4  UNL     1      21.133   3.334  51.898  1.00  0.00     0.245 C 
HETATM   22  O1  UNL     1      21.803   4.217  52.528  1.00  0.00    -0.268 OA
HETATM   23  H6  UNL     1      21.014   1.414  50.944  1.00  0.00     0.169 HD
BRANCH  21  24
HETATM   24  C3  UNL     1      19.730   3.611  51.595  1.00  0.00     0.070 C 
HETATM   25  C2  UNL     1      18.710   2.763  51.620  1.00  0.00    -0.026 C 
HETATM   26  C1  UNL     1      17.292   3.035  51.316  1.00  0.00     0.036 C 
ENDBRANCH  21  24
ENDBRANCH   1  20
TORSDOF 2
ENDMDL
MODEL 9
REMARK VINA RESULT:      -6.8      8.563     11.565
REMARK  2 active torsions:
REMARK  status: ('A' for Active; 'I' for Inactive)
REMARK    1  A    between atoms: C3_3  and  C4_4 
REMARK       I    between atoms: C4_4  and  N1_6 
REMARK    2  A    between atoms: N1_6  and  C5_7 
ROOT
HETATM    1  C5  UNL     1      32.467   8.586  46.690  1.00  0.00     0.021 C 
HETATM    2  C6  UNL     1      31.810   9.712  46.823  1.00  0.00     0.010 C 
HETATM    3  C7  UNL     1      30.771  10.034  47.782  1.00  0.00     0.069 C 
HETATM    4  C8  UNL     1      31.106  11.382  48.401  1.00  0.00     0.021 C 
HETATM    5  C9  UNL     1      30.486   9.012  48.782  1.00  0.00     0.116 C 
HETATM    6  C10 UNL     1      29.181   9.227  49.400  1.00  0.00     0.115 C 
HETATM    7  N2  UNL     1      28.120   9.405  49.881  1.00  0.00    -0.190 NA
HETATM    8  N3  UNL     1      31.034   7.968  49.292  1.00  0.00    -0.281 NA
HETATM    9  C11 UNL     1      32.381   7.446  48.893  1.00  0.00     0.167 C 
HETATM   10  C12 UNL     1      32.399   7.273  47.434  1.00  0.00     0.105 C 
HETATM   11  C13 UNL     1      33.128   6.218  46.776  1.00  0.00     0.026 C 
HETATM   12  C14 UNL     1      34.172   5.517  47.215  1.00  0.00    -0.039 C 
HETATM   13  C15 UNL     1      34.706   5.811  48.543  1.00  0.00     0.050 C 
HETATM   14  C16 UNL     1      34.887   4.423  46.512  1.00  0.00     0.009 C 
HETATM   15  C17 UNL     1      34.871   3.989  45.259  1.00  0.00     0.002 C 
HETATM   16  C18 UNL     1      34.049   4.579  44.215  1.00  0.00     0.017 C 
HETATM   17  C19 UNL     1      33.049   5.440  44.231  1.00  0.00     0.088 C 
HETATM   18  N4  UNL     1      32.544   6.009  45.456  1.00  0.00    -0.368 N 
HETATM   19  H22 UNL     1      31.535   6.330  45.312  1.00  0.00     0.165 HD
ENDROOT
BRANCH   1  20
HETATM   20  N1  UNL     1      33.398   8.751  45.596  1.00  0.00    -0.327 N 
HETATM   21  C4  UNL     1      34.785   9.065  45.654  1.00  0.00     0.245 C 
HETATM   22  O1  UNL     1      35.437   9.254  46.732  1.00  0.00    -0.268 OA
HETATM   23  H6  UNL     1      32.945   8.611  44.644  1.00  0.00     0.169 HD
BRANCH  21  24
HETATM   24  C3  UNL     1      35.497   9.173  44.382  1.00  0.00     0.070 C 
HETATM   25  C2  UNL     1      36.527   9.958  44.091  1.00  0.00    -0.026 C 
HETATM   26  C1  UNL     1      37.251  10.072  42.811  1.00  0.00     0.036 C 
ENDBRANCH  21  24
ENDBRANCH   1  20
TORSDOF 2
ENDMDL
