MODEL 1
REMARK VINA RESULT:      -6.9      0.000      0.000
REMARK  6 active torsions:
REMARK  status: ('A' for Active; 'I' for Inactive)
REMARK    1  A    between atoms: N1_2  and  C2_3 
REMARK    2  A    between atoms: C5_6  and  O1_7 
REMARK    3  A    between atoms: O1_7  and  C6_8 
REMARK    4  A    between atoms: N3_14  and  C9_15 
REMARK    5  A    between atoms: C9_15  and  C10_16 
REMARK    6  A    between atoms: C10_16  and  C11_17 
ROOT
HETATM    1  C6  UNL     1      25.806   0.725  52.997  1.00  0.00     0.327 C 
HETATM    2  C7  UNL     1      27.118   0.425  53.676  1.00  0.00     0.275 C 
HETATM    3  O2  UNL     1      28.196   0.723  53.088  1.00  0.00    -0.268 OA
HETATM    4  N2  UNL     1      26.872  -0.187  54.958  1.00  0.00    -0.275 N 
HETATM    5  C8  UNL     1      25.490  -0.601  54.956  1.00  0.00     0.327 C 
HETATM    6  O3  UNL     1      25.086  -1.156  55.986  1.00  0.00    -0.247 OA
HETATM    7  N3  UNL     1      24.932  -0.233  53.682  1.00  0.00    -0.298 N 
HETATM    8  H8  UNL     1      27.635  -0.259  55.671  1.00  0.00     0.173 HD
ENDROOT
BRANCH   1   9
HETATM    9  O1  UNL     1      25.482   2.035  53.369  1.00  0.00    -0.317 OA
BRANCH   9  10
HETATM   10  C5  UNL     1      24.596   2.832  52.686  1.00  0.00     0.072 A 
HETATM   11  C4  UNL     1      23.797   3.872  53.109  1.00  0.00     0.039 A 
HETATM   12  C3  UNL     1      22.978   4.529  52.217  1.00  0.00     0.032 A 
HETATM   13  C2  UNL     1      22.939   4.166  50.886  1.00  0.00     0.027 A 
HETATM   14  C18 UNL     1      23.727   3.128  50.425  1.00  0.00     0.032 A 
HETATM   15  C17 UNL     1      24.555   2.465  51.337  1.00  0.00     0.039 A 
BRANCH  13  16
HETATM   16  N1  UNL     1      22.078   4.873  50.000  1.00  0.00    -0.394 N 
HETATM   17  C1  UNL     1      20.862   5.461  50.499  1.00  0.00     0.146 C 
HETATM   18  H4  UNL     1      22.345   4.957  48.982  1.00  0.00     0.159 HD
ENDBRANCH  13  16
ENDBRANCH   9  10
ENDBRANCH   1   9
BRANCH   7  19
HETATM   19  C9  UNL     1      23.667  -0.850  53.327  1.00  0.00     0.135 C 
BRANCH  19  20
HETATM   20  C10 UNL     1      22.514  -0.056  53.820  1.00  0.00     0.058 C 
BRANCH  20  21
HETATM   21  C11 UNL     1      21.661   0.580  52.829  1.00  0.00    -0.057 A 
HETATM   22  C12 UNL     1      20.781   1.615  53.108  1.00  0.00     0.007 A 
HETATM   23  C13 UNL     1      19.976   2.211  52.159  1.00  0.00     0.001 A 
HETATM   24  C14 UNL     1      20.026   1.775  50.852  1.00  0.00     0.000 A 
HETATM   25  C15 UNL     1      20.889   0.742  50.528  1.00  0.00     0.001 A 
HETATM   26  C16 UNL     1      21.676   0.174  51.501  1.00  0.00     0.007 A 
ENDBRANCH  20  21
ENDBRANCH  19  20
ENDBRANCH   7  19
TORSDOF 6
ENDMDL
MODEL 2
REMARK VINA RESULT:      -6.8      2.603      6.143
REMARK  6 active torsions:
REMARK  status: ('A' for Active; 'I' for Inactive)
REMARK    1  A    between atoms: N1_2  and  C2_3 
REMARK    2  A    between atoms: C5_6  and  O1_7 
REMARK    3  A    between atoms: O1_7  and  C6_8 
REMARK    4  A    between atoms: N3_14  and  C9_15 
REMARK    5  A    between atoms: C9_15  and  C10_16 
REMARK    6  A    between atoms: C10_16  and  C11_17 
ROOT
HETATM    1  C6  UNL     1      22.997   1.139  52.108  1.00  0.00     0.327 C 
HETATM    2  C7  UNL     1      21.937   0.276  52.742  1.00  0.00     0.275 C 
HETATM    3  O2  UNL     1      22.132  -0.970  52.830  1.00  0.00    -0.268 OA
HETATM    4  N2  UNL     1      20.826   1.096  53.156  1.00  0.00    -0.275 N 
HETATM    5  C8  UNL     1      20.989   2.369  52.497  1.00  0.00     0.327 C 
HETATM    6  O3  UNL     1      20.120   3.219  52.731  1.00  0.00    -0.247 OA
HETATM    7  N3  UNL     1      22.187   2.294  51.703  1.00  0.00    -0.298 N 
HETATM    8  H8  UNL     1      20.103   0.723  53.814  1.00  0.00     0.173 HD
ENDROOT
BRANCH   1   9
HETATM    9  O1  UNL     1      23.866   1.492  53.146  1.00  0.00    -0.317 OA
BRANCH   9  10
HETATM   10  C5  UNL     1      25.183   1.110  53.212  1.00  0.00     0.072 A 
HETATM   11  C4  UNL     1      25.784  -0.117  53.024  1.00  0.00     0.039 A 
HETATM   12  C3  UNL     1      27.150  -0.250  53.147  1.00  0.00     0.032 A 
HETATM   13  C2  UNL     1      27.946   0.835  53.457  1.00  0.00     0.027 A 
HETATM   14  C18 UNL     1      27.378   2.081  53.652  1.00  0.00     0.032 A 
HETATM   15  C17 UNL     1      25.991   2.207  53.527  1.00  0.00     0.039 A 
BRANCH  13  16
HETATM   16  N1  UNL     1      29.353   0.651  53.574  1.00  0.00    -0.394 N 
HETATM   17  C1  UNL     1      29.911  -0.674  53.507  1.00  0.00     0.146 C 
HETATM   18  H4  UNL     1      29.971   1.497  53.709  1.00  0.00     0.159 HD
ENDBRANCH  13  16
ENDBRANCH   9  10
ENDBRANCH   1   9
BRANCH   7  19
HETATM   19  C9  UNL     1      22.363   3.325  50.697  1.00  0.00     0.135 C 
BRANCH  19  20
HETATM   20  C10 UNL     1      23.382   4.323  51.109  1.00  0.00     0.058 C 
BRANCH  20  21
HETATM   21  C11 UNL     1      24.642   4.337  50.385  1.00  0.00    -0.057 A 
HETATM   22  C12 UNL     1      25.429   3.217  50.169  1.00  0.00     0.007 A 
HETATM   23  C13 UNL     1      26.624   3.242  49.480  1.00  0.00     0.001 A 
HETATM   24  C14 UNL     1      27.089   4.434  48.966  1.00  0.00     0.000 A 
HETATM   25  C15 UNL     1      26.335   5.580  49.159  1.00  0.00     0.001 A 
HETATM   26  C16 UNL     1      25.150   5.515  49.850  1.00  0.00     0.007 A 
ENDBRANCH  20  21
ENDBRANCH  19  20
ENDBRANCH   7  19
TORSDOF 6
ENDMDL
MODEL 3
REMARK VINA RESULT:      -6.7      3.213      5.713
REMARK  6 active torsions:
REMARK  status: ('A' for Active; 'I' for Inactive)
REMARK    1  A    between atoms: N1_2  and  C2_3 
REMARK    2  A    between atoms: C5_6  and  O1_7 
REMARK    3  A    between atoms: O1_7  and  C6_8 
REMARK    4  A    between atoms: N3_14  and  C9_15 
REMARK    5  A    between atoms: C9_15  and  C10_16 
REMARK    6  A    between atoms: C10_16  and  C11_17 
ROOT
HETATM    1  C6  UNL     1      24.348   3.200  52.211  1.00  0.00     0.327 C 
HETATM    2  C7  UNL     1      22.852   3.026  52.279  1.00  0.00     0.275 C 
HETATM    3  O2  UNL     1      22.107   4.023  52.059  1.00  0.00    -0.268 OA
HETATM    4  N2  UNL     1      22.536   1.658  52.603  1.00  0.00    -0.275 N 
HETATM    5  C8  UNL     1      23.757   1.058  53.084  1.00  0.00     0.327 C 
HETATM    6  O3  UNL     1      23.687  -0.131  53.418  1.00  0.00    -0.247 OA
HETATM    7  N3  UNL     1      24.780   2.070  53.041  1.00  0.00    -0.298 N 
HETATM    8  H8  UNL     1      21.567   1.287  52.471  1.00  0.00     0.173 HD
ENDROOT
BRANCH   1   9
HETATM    9  O1  UNL     1      24.691   2.983  50.873  1.00  0.00    -0.317 OA
BRANCH   9  10
HETATM   10  C5  UNL     1      25.511   3.809  50.144  1.00  0.00     0.072 A 
HETATM   11  C4  UNL     1      26.687   3.559  49.470  1.00  0.00     0.039 A 
HETATM   12  C3  UNL     1      27.336   4.573  48.800  1.00  0.00     0.032 A 
HETATM   13  C2  UNL     1      26.827   5.857  48.786  1.00  0.00     0.027 A 
HETATM   14  C18 UNL     1      25.649   6.145  49.450  1.00  0.00     0.032 A 
HETATM   15  C17 UNL     1      24.998   5.110  50.129  1.00  0.00     0.039 A 
BRANCH  13  16
HETATM   16  N1  UNL     1      27.531   6.874  48.081  1.00  0.00    -0.394 N 
HETATM   17  C1  UNL     1      28.086   7.991  48.799  1.00  0.00     0.146 C 
HETATM   18  H4  UNL     1      27.636   6.793  47.033  1.00  0.00     0.159 HD
ENDBRANCH  13  16
ENDBRANCH   9  10
ENDBRANCH   1   9
BRANCH   7  19
HETATM   19  C9  UNL     1      25.992   1.798  53.791  1.00  0.00     0.135 C 
BRANCH  19  20
HETATM   20  C10 UNL     1      27.124   1.449  52.896  1.00  0.00     0.058 C 
BRANCH  20  21
HETATM   21  C11 UNL     1      27.627   0.087  52.946  1.00  0.00    -0.057 A 
HETATM   22  C12 UNL     1      26.899  -1.027  52.556  1.00  0.00     0.007 A 
HETATM   23  C13 UNL     1      27.388  -2.317  52.607  1.00  0.00     0.001 A 
HETATM   24  C14 UNL     1      28.667  -2.542  53.068  1.00  0.00     0.000 A 
HETATM   25  C15 UNL     1      29.431  -1.459  53.470  1.00  0.00     0.001 A 
HETATM   26  C16 UNL     1      28.909  -0.189  53.404  1.00  0.00     0.007 A 
ENDBRANCH  20  21
ENDBRANCH  19  20
ENDBRANCH   7  19
TORSDOF 6
ENDMDL
MODEL 4
REMARK VINA RESULT:      -6.7      3.174      7.026
REMARK  6 active torsions:
REMARK  status: ('A' for Active; 'I' for Inactive)
REMARK    1  A    between atoms: N1_2  and  C2_3 
REMARK    2  A    between atoms: C5_6  and  O1_7 
REMARK    3  A    between atoms: O1_7  and  C6_8 
REMARK    4  A    between atoms: N3_14  and  C9_15 
REMARK    5  A    between atoms: C9_15  and  C10_16 
REMARK    6  A    between atoms: C10_16  and  C11_17 
ROOT
HETATM    1  C6  UNL     1      23.665   2.194  51.658  1.00  0.00     0.327 C 
HETATM    2  C7  UNL     1      22.312   2.472  52.261  1.00  0.00     0.275 C 
HETATM    3  O2  UNL     1      21.705   1.542  52.864  1.00  0.00    -0.268 OA
HETATM    4  N2  UNL     1      21.944   3.844  52.017  1.00  0.00    -0.275 N 
HETATM    5  C8  UNL     1      22.838   4.332  50.994  1.00  0.00     0.327 C 
HETATM    6  O3  UNL     1      22.676   5.508  50.644  1.00  0.00    -0.247 OA
HETATM    7  N3  UNL     1      23.722   3.252  50.644  1.00  0.00    -0.298 N 
HETATM    8  H8  UNL     1      21.158   4.289  52.545  1.00  0.00     0.173 HD
ENDROOT
BRANCH   1   9
HETATM    9  O1  UNL     1      24.589   2.444  52.677  1.00  0.00    -0.317 OA
BRANCH   9  10
HETATM   10  C5  UNL     1      25.614   1.593  53.014  1.00  0.00     0.072 A 
HETATM   11  C4  UNL     1      26.542   1.647  54.032  1.00  0.00     0.039 A 
HETATM   12  C3  UNL     1      27.490   0.655  54.164  1.00  0.00     0.032 A 
HETATM   13  C2  UNL     1      27.531  -0.411  53.287  1.00  0.00     0.027 A 
HETATM   14  C18 UNL     1      26.616  -0.499  52.255  1.00  0.00     0.032 A 
HETATM   15  C17 UNL     1      25.659   0.513  52.127  1.00  0.00     0.039 A 
BRANCH  13  16
HETATM   16  N1  UNL     1      28.527  -1.414  53.462  1.00  0.00    -0.394 N 
HETATM   17  C1  UNL     1      29.885  -1.032  53.748  1.00  0.00     0.146 C 
HETATM   18  H4  UNL     1      28.252  -2.430  53.378  1.00  0.00     0.159 HD
ENDBRANCH  13  16
ENDBRANCH   9  10
ENDBRANCH   1   9
BRANCH   7  19
HETATM   19  C9  UNL     1      24.470   3.403  49.409  1.00  0.00     0.135 C 
BRANCH  19  20
HETATM   20  C10 UNL     1      25.921   3.581  49.667  1.00  0.00     0.058 C 
BRANCH  20  21
HETATM   21  C11 UNL     1      26.573   4.740  49.080  1.00  0.00    -0.057 A 
HETATM   22  C12 UNL     1      27.898   4.765  48.674  1.00  0.00     0.007 A 
HETATM   23  C13 UNL     1      28.507   5.872  48.117  1.00  0.00     0.001 A 
HETATM   24  C14 UNL     1      27.783   7.032  47.942  1.00  0.00     0.000 A 
HETATM   25  C15 UNL     1      26.455   7.052  48.335  1.00  0.00     0.001 A 
HETATM   26  C16 UNL     1      25.884   5.930  48.885  1.00  0.00     0.007 A 
ENDBRANCH  20  21
ENDBRANCH  19  20
ENDBRANCH   7  19
TORSDOF 6
ENDMDL
MODEL 5
REMARK VINA RESULT:      -6.6      2.146      5.624
REMARK  6 active torsions:
REMARK  status: ('A' for Active; 'I' for Inactive)
REMARK    1  A    between atoms: N1_2  and  C2_3 
REMARK    2  A    between atoms: C5_6  and  O1_7 
REMARK    3  A    between atoms: O1_7  and  C6_8 
REMARK    4  A    between atoms: N3_14  and  C9_15 
REMARK    5  A    between atoms: C9_15  and  C10_16 
REMARK    6  A    between atoms: C10_16  and  C11_17 
ROOT
HETATM    1  C6  UNL     1      23.276   3.723  51.489  1.00  0.00     0.327 C 
HETATM    2  C7  UNL     1      23.432   5.141  51.004  1.00  0.00     0.275 C 
HETATM    3  O2  UNL     1      23.918   6.008  51.786  1.00  0.00    -0.268 OA
HETATM    4  N2  UNL     1      22.963   5.245  49.645  1.00  0.00    -0.275 N 
HETATM    5  C8  UNL     1      22.202   4.048  49.382  1.00  0.00     0.327 C 
HETATM    6  O3  UNL     1      21.711   3.951  48.250  1.00  0.00    -0.247 OA
HETATM    7  N3  UNL     1      22.227   3.250  50.579  1.00  0.00    -0.298 N 
HETATM    8  H8  UNL     1      23.197   6.081  49.061  1.00  0.00     0.173 HD
ENDROOT
BRANCH   1   9
HETATM    9  O1  UNL     1      24.491   3.092  51.203  1.00  0.00    -0.317 OA
BRANCH   9  10
HETATM   10  C5  UNL     1      25.182   2.310  52.095  1.00  0.00     0.072 A 
HETATM   11  C4  UNL     1      25.284   2.371  53.468  1.00  0.00     0.039 A 
HETATM   12  C3  UNL     1      26.054   1.455  54.152  1.00  0.00     0.032 A 
HETATM   13  C2  UNL     1      26.737   0.459  53.483  1.00  0.00     0.027 A 
HETATM   14  C18 UNL     1      26.658   0.366  52.105  1.00  0.00     0.032 A 
HETATM   15  C17 UNL     1      25.875   1.300  51.420  1.00  0.00     0.039 A 
BRANCH  13  16
HETATM   16  N1  UNL     1      27.520  -0.466  54.229  1.00  0.00    -0.394 N 
HETATM   17  C1  UNL     1      28.895  -0.162  54.530  1.00  0.00     0.146 C 
HETATM   18  H4  UNL     1      27.078  -1.368  54.554  1.00  0.00     0.159 HD
ENDBRANCH  13  16
ENDBRANCH   9  10
ENDBRANCH   1   9
BRANCH   7  19
HETATM   19  C9  UNL     1      21.254   2.176  50.662  1.00  0.00     0.135 C 
BRANCH  19  20
HETATM   20  C10 UNL     1      21.903   0.869  50.931  1.00  0.00     0.058 C 
BRANCH  20  21
HETATM   21  C11 UNL     1      21.874   0.370  52.295  1.00  0.00    -0.057 A 
HETATM   22  C12 UNL     1      22.854  -0.439  52.851  1.00  0.00     0.007 A 
HETATM   23  C13 UNL     1      22.816  -0.907  54.148  1.00  0.00     0.001 A 
HETATM   24  C14 UNL     1      21.756  -0.570  54.963  1.00  0.00     0.000 A 
HETATM   25  C15 UNL     1      20.753   0.235  54.450  1.00  0.00     0.001 A 
HETATM   26  C16 UNL     1      20.826   0.682  53.153  1.00  0.00     0.007 A 
ENDBRANCH  20  21
ENDBRANCH  19  20
ENDBRANCH   7  19
TORSDOF 6
ENDMDL
MODEL 6
REMARK VINA RESULT:      -6.6      3.341      6.023
REMARK  6 active torsions:
REMARK  status: ('A' for Active; 'I' for Inactive)
REMARK    1  A    between atoms: N1_2  and  C2_3 
REMARK    2  A    between atoms: C5_6  and  O1_7 
REMARK    3  A    between atoms: O1_7  and  C6_8 
REMARK    4  A    between atoms: N3_14  and  C9_15 
REMARK    5  A    between atoms: C9_15  and  C10_16 
REMARK    6  A    between atoms: C10_16  and  C11_17 
ROOT
HETATM    1  C6  UNL     1      24.117   3.569  52.066  1.00  0.00     0.327 C 
HETATM    2  C7  UNL     1      22.626   3.768  52.159  1.00  0.00     0.275 C 
HETATM    3  O2  UNL     1      22.160   4.943  52.125  1.00  0.00    -0.268 OA
HETATM    4  N2  UNL     1      21.971   2.490  52.279  1.00  0.00    -0.275 N 
HETATM    5  C8  UNL     1      22.997   1.534  52.616  1.00  0.00     0.327 C 
HETATM    6  O3  UNL     1      22.625   0.363  52.763  1.00  0.00    -0.247 OA
HETATM    7  N3  UNL     1      24.244   2.249  52.694  1.00  0.00    -0.298 N 
HETATM    8  H8  UNL     1      20.940   2.402  52.126  1.00  0.00     0.173 HD
ENDROOT
BRANCH   1   9
HETATM    9  O1  UNL     1      24.400   3.488  50.698  1.00  0.00    -0.317 OA
BRANCH   9  10
HETATM   10  C5  UNL     1      25.241   4.347  50.034  1.00  0.00     0.072 A 
HETATM   11  C4  UNL     1      25.120   5.688  49.735  1.00  0.00     0.039 A 
HETATM   12  C3  UNL     1      26.118   6.340  49.045  1.00  0.00     0.032 A 
HETATM   13  C2  UNL     1      27.258   5.674  48.640  1.00  0.00     0.027 A 
HETATM   14  C18 UNL     1      27.414   4.329  48.923  1.00  0.00     0.032 A 
HETATM   15  C17 UNL     1      26.395   3.674  49.623  1.00  0.00     0.039 A 
BRANCH  13  16
HETATM   16  N1  UNL     1      28.264   6.388  47.930  1.00  0.00    -0.394 N 
HETATM   17  C1  UNL     1      29.628   5.931  47.966  1.00  0.00     0.146 C 
HETATM   18  H4  UNL     1      27.992   7.249  47.383  1.00  0.00     0.159 HD
ENDBRANCH  13  16
ENDBRANCH   9  10
ENDBRANCH   1   9
BRANCH   7  19
HETATM   19  C9  UNL     1      25.343   1.564  53.348  1.00  0.00     0.135 C 
BRANCH  19  20
HETATM   20  C10 UNL     1      26.002   0.593  52.439  1.00  0.00     0.058 C 
BRANCH  20  21
HETATM   21  C11 UNL     1      27.291   0.058  52.846  1.00  0.00    -0.057 A 
HETATM   22  C12 UNL     1      27.617  -1.290  52.824  1.00  0.00     0.007 A 
HETATM   23  C13 UNL     1      28.844  -1.787  53.212  1.00  0.00     0.001 A 
HETATM   24  C14 UNL     1      29.822  -0.921  53.652  1.00  0.00     0.000 A 
HETATM   25  C15 UNL     1      29.540   0.435  53.691  1.00  0.00     0.001 A 
HETATM   26  C16 UNL     1      28.306   0.892  53.297  1.00  0.00     0.007 A 
ENDBRANCH  20  21
ENDBRANCH  19  20
ENDBRANCH   7  19
TORSDOF 6
ENDMDL
MODEL 7
REMARK VINA RESULT:      -6.4      2.235      4.642
REMARK  6 active torsions:
REMARK  status: ('A' for Active; 'I' for Inactive)
REMARK    1  A    between atoms: N1_2  and  C2_3 
REMARK    2  A    between atoms: C5_6  and  O1_7 
REMARK    3  A    between atoms: O1_7  and  C6_8 
REMARK    4  A    between atoms: N3_14  and  C9_15 
REMARK    5  A    between atoms: C9_15  and  C10_16 
REMARK    6  A    between atoms: C10_16  and  C11_17 
ROOT
HETATM    1  C6  UNL     1      25.048   0.388  53.568  1.00  0.00     0.327 C 
HETATM    2  C7  UNL     1      26.323  -0.367  53.293  1.00  0.00     0.275 C 
HETATM    3  O2  UNL     1      26.567  -1.420  53.949  1.00  0.00    -0.268 OA
HETATM    4  N2  UNL     1      27.072   0.304  52.261  1.00  0.00    -0.275 N 
HETATM    5  C8  UNL     1      26.499   1.621  52.129  1.00  0.00     0.327 C 
HETATM    6  O3  UNL     1      27.016   2.358  51.280  1.00  0.00    -0.247 OA
HETATM    7  N3  UNL     1      25.422   1.719  53.078  1.00  0.00    -0.298 N 
HETATM    8  H8  UNL     1      27.862  -0.180  51.773  1.00  0.00     0.173 HD
ENDROOT
BRANCH   1   9
HETATM    9  O1  UNL     1      24.084  -0.186  52.733  1.00  0.00    -0.317 OA
BRANCH   9  10
HETATM   10  C5  UNL     1      22.809  -0.505  53.134  1.00  0.00     0.072 A 
HETATM   11  C4  UNL     1      22.351  -1.270  54.184  1.00  0.00     0.039 A 
HETATM   12  C3  UNL     1      20.999  -1.445  54.382  1.00  0.00     0.032 A 
HETATM   13  C2  UNL     1      20.074  -0.860  53.539  1.00  0.00     0.027 A 
HETATM   14  C18 UNL     1      20.497  -0.085  52.475  1.00  0.00     0.032 A 
HETATM   15  C17 UNL     1      21.871   0.086  52.281  1.00  0.00     0.039 A 
BRANCH  13  16
HETATM   16  N1  UNL     1      18.687  -1.067  53.781  1.00  0.00    -0.394 N 
HETATM   17  C1  UNL     1      17.736  -0.862  52.720  1.00  0.00     0.146 C 
HETATM   18  H4  UNL     1      18.373  -1.371  54.743  1.00  0.00     0.159 HD
ENDBRANCH  13  16
ENDBRANCH   9  10
ENDBRANCH   1   9
BRANCH   7  19
HETATM   19  C9  UNL     1      24.929   3.055  53.363  1.00  0.00     0.135 C 
BRANCH  19  20
HETATM   20  C10 UNL     1      23.600   3.290  52.745  1.00  0.00     0.058 C 
BRANCH  20  21
HETATM   21  C11 UNL     1      23.569   3.728  51.359  1.00  0.00    -0.057 A 
HETATM   22  C12 UNL     1      23.694   5.049  50.957  1.00  0.00     0.007 A 
HETATM   23  C13 UNL     1      23.663   5.453  49.638  1.00  0.00     0.001 A 
HETATM   24  C14 UNL     1      23.500   4.515  48.641  1.00  0.00     0.000 A 
HETATM   25  C15 UNL     1      23.371   3.182  48.997  1.00  0.00     0.001 A 
HETATM   26  C16 UNL     1      23.406   2.819  50.322  1.00  0.00     0.007 A 
ENDBRANCH  20  21
ENDBRANCH  19  20
ENDBRANCH   7  19
TORSDOF 6
ENDMDL
MODEL 8
REMARK VINA RESULT:      -6.0      3.392      5.876
REMARK  6 active torsions:
REMARK  status: ('A' for Active; 'I' for Inactive)
REMARK    1  A    between atoms: N1_2  and  C2_3 
REMARK    2  A    between atoms: C5_6  and  O1_7 
REMARK    3  A    between atoms: O1_7  and  C6_8 
REMARK    4  A    between atoms: N3_14  and  C9_15 
REMARK    5  A    between atoms: C9_15  and  C10_16 
REMARK    6  A    between atoms: C10_16  and  C11_17 
ROOT
HETATM    1  C6  UNL     1      19.690   2.392  52.030  1.00  0.00     0.327 C 
HETATM    2  C7  UNL     1      18.308   2.861  51.654  1.00  0.00     0.275 C 
HETATM    3  O2  UNL     1      17.998   4.072  51.840  1.00  0.00    -0.268 OA
HETATM    4  N2  UNL     1      17.550   1.758  51.116  1.00  0.00    -0.275 N 
HETATM    5  C8  UNL     1      18.272   0.558  51.463  1.00  0.00     0.327 C 
HETATM    6  O3  UNL     1      17.771  -0.508  51.083  1.00  0.00    -0.247 OA
HETATM    7  N3  UNL     1      19.442   0.956  52.199  1.00  0.00    -0.298 N 
HETATM    8  H8  UNL     1      16.661   1.926  50.592  1.00  0.00     0.173 HD
ENDROOT
BRANCH   1   9
HETATM    9  O1  UNL     1      20.484   2.621  50.901  1.00  0.00    -0.317 OA
BRANCH   9  10
HETATM   10  C5  UNL     1      21.854   2.715  50.929  1.00  0.00     0.072 A 
HETATM   11  C4  UNL     1      22.807   2.368  49.996  1.00  0.00     0.039 A 
HETATM   12  C3  UNL     1      24.145   2.562  50.262  1.00  0.00     0.032 A 
HETATM   13  C2  UNL     1      24.562   3.106  51.460  1.00  0.00     0.027 A 
HETATM   14  C18 UNL     1      23.633   3.467  52.420  1.00  0.00     0.032 A 
HETATM   15  C17 UNL     1      22.277   3.265  52.143  1.00  0.00     0.039 A 
BRANCH  13  16
HETATM   16  N1  UNL     1      25.954   3.289  51.692  1.00  0.00    -0.394 N 
HETATM   17  C1  UNL     1      26.759   2.180  52.133  1.00  0.00     0.146 C 
HETATM   18  H4  UNL     1      26.380   4.243  51.536  1.00  0.00     0.159 HD
ENDBRANCH  13  16
ENDBRANCH   9  10
ENDBRANCH   1   9
BRANCH   7  19
HETATM   19  C9  UNL     1      20.128  -0.087  52.939  1.00  0.00     0.135 C 
BRANCH  19  20
HETATM   20  C10 UNL     1      21.506  -0.304  52.430  1.00  0.00     0.058 C 
BRANCH  20  21
HETATM   21  C11 UNL     1      22.552  -0.563  53.405  1.00  0.00    -0.057 A 
HETATM   22  C12 UNL     1      22.336  -1.155  54.640  1.00  0.00     0.007 A 
HETATM   23  C13 UNL     1      23.337  -1.396  55.559  1.00  0.00     0.001 A 
HETATM   24  C14 UNL     1      24.635  -1.038  55.261  1.00  0.00     0.000 A 
HETATM   25  C15 UNL     1      24.897  -0.443  54.038  1.00  0.00     0.001 A 
HETATM   26  C16 UNL     1      23.873  -0.219  53.149  1.00  0.00     0.007 A 
ENDBRANCH  20  21
ENDBRANCH  19  20
ENDBRANCH   7  19
TORSDOF 6
ENDMDL
MODEL 9
REMARK VINA RESULT:      -5.8      2.517      5.521
REMARK  6 active torsions:
REMARK  status: ('A' for Active; 'I' for Inactive)
REMARK    1  A    between atoms: N1_2  and  C2_3 
REMARK    2  A    between atoms: C5_6  and  O1_7 
REMARK    3  A    between atoms: O1_7  and  C6_8 
REMARK    4  A    between atoms: N3_14  and  C9_15 
REMARK    5  A    between atoms: C9_15  and  C10_16 
REMARK    6  A    between atoms: C10_16  and  C11_17 
ROOT
HETATM    1  C6  UNL     1      23.302   2.504  52.151  1.00  0.00     0.327 C 
HETATM    2  C7  UNL     1      23.254   4.008  52.067  1.00  0.00     0.275 C 
HETATM    3  O2  UNL     1      23.645   4.691  53.055  1.00  0.00    -0.268 OA
HETATM    4  N2  UNL     1      22.734   4.407  50.783  1.00  0.00    -0.275 N 
HETATM    5  C8  UNL     1      22.131   3.231  50.202  1.00  0.00     0.327 C 
HETATM    6  O3  UNL     1      21.622   3.375  49.084  1.00  0.00    -0.247 OA
HETATM    7  N3  UNL     1      22.297   2.153  51.141  1.00  0.00    -0.298 N 
HETATM    8  H8  UNL     1      22.837   5.392  50.447  1.00  0.00     0.173 HD
ENDROOT
BRANCH   1   9
HETATM    9  O1  UNL     1      24.581   2.144  51.713  1.00  0.00    -0.317 OA
BRANCH   9  10
HETATM   10  C5  UNL     1      25.537   1.571  52.515  1.00  0.00     0.072 A 
HETATM   11  C4  UNL     1      25.971   1.892  53.783  1.00  0.00     0.039 A 
HETATM   12  C3  UNL     1      26.963   1.152  54.388  1.00  0.00     0.032 A 
HETATM   13  C2  UNL     1      27.542   0.076  53.745  1.00  0.00     0.027 A 
HETATM   14  C18 UNL     1      27.132  -0.276  52.472  1.00  0.00     0.032 A 
HETATM   15  C17 UNL     1      26.126   0.482  51.864  1.00  0.00     0.039 A 
BRANCH  13  16
HETATM   16  N1  UNL     1      28.564  -0.661  54.408  1.00  0.00    -0.394 N 
HETATM   17  C1  UNL     1      29.752  -1.044  53.691  1.00  0.00     0.146 C 
HETATM   18  H4  UNL     1      28.434  -0.918  55.424  1.00  0.00     0.159 HD
ENDBRANCH  13  16
ENDBRANCH   9  10
ENDBRANCH   1   9
BRANCH   7  19
HETATM   19  C9  UNL     1      21.478   0.975  50.926  1.00  0.00     0.135 C 
BRANCH  19  20
HETATM   20  C10 UNL     1      20.965   0.423  52.205  1.00  0.00     0.058 C 
BRANCH  20  21
HETATM   21  C11 UNL     1      19.599  -0.072  52.226  1.00  0.00    -0.057 A 
HETATM   22  C12 UNL     1      18.663   0.182  51.235  1.00  0.00     0.007 A 
HETATM   23  C13 UNL     1      17.368  -0.294  51.265  1.00  0.00     0.001 A 
HETATM   24  C14 UNL     1      16.952  -1.068  52.327  1.00  0.00     0.000 A 
HETATM   25  C15 UNL     1      17.853  -1.347  53.341  1.00  0.00     0.001 A 
HETATM   26  C16 UNL     1      19.135  -0.855  53.275  1.00  0.00     0.007 A 
ENDBRANCH  20  21
ENDBRANCH  19  20
ENDBRANCH   7  19
TORSDOF 6
ENDMDL
