MODEL 1
REMARK VINA RESULT:      -9.7      0.000      0.000
REMARK  5 active torsions:
REMARK  status: ('A' for Active; 'I' for Inactive)
REMARK    1  A    between atoms: C7_11  and  N3_12 
REMARK    2  A    between atoms: N3_12  and  C8_13 
REMARK    3  A    between atoms: N4_23  and  C17_24 
REMARK    4  A    between atoms: C17_24  and  C18_25 
REMARK    5  A    between atoms: C18_25  and  N5_26 
ROOT
HETATM    1  O1  UNL     1      19.144   2.036  49.360  1.00  0.00    -0.271 OA
HETATM    2  C1  UNL     1      19.473   1.238  50.301  1.00  0.00     0.248 C 
HETATM    3  C2  UNL     1      18.445   0.490  51.071  1.00  0.00     0.279 C 
HETATM    4  O2  UNL     1      18.926   0.218  52.376  1.00  0.00    -0.340 OA
HETATM    5  C3  UNL     1      20.265   0.086  52.641  1.00  0.00     0.098 A 
HETATM    6  C4  UNL     1      20.634  -0.500  53.831  1.00  0.00     0.071 A 
HETATM    7  C5  UNL     1      21.966  -0.656  54.146  1.00  0.00     0.075 A 
HETATM    8  N1  UNL     1      22.226  -1.245  55.341  1.00  0.00    -0.241 NA
HETATM    9  C6  UNL     1      23.518  -1.410  55.670  1.00  0.00     0.236 A 
HETATM   10  N2  UNL     1      24.496  -1.014  54.860  1.00  0.00    -0.224 NA
HETATM   11  C7  UNL     1      24.315  -0.429  53.675  1.00  0.00     0.142 A 
HETATM   12  C14 UNL     1      23.014  -0.253  53.325  1.00  0.00     0.041 A 
HETATM   13  C15 UNL     1      22.572   0.313  52.172  1.00  0.00     0.050 A 
HETATM   14  C16 UNL     1      21.260   0.502  51.793  1.00  0.00     0.071 A 
HETATM   15  N4  UNL     1      20.864   1.101  50.576  1.00  0.00    -0.312 N 
ENDROOT
BRANCH  11  16
HETATM   16  N3  UNL     1      25.330  -0.004  52.804  1.00  0.00    -0.340 N 
HETATM   17  H5  UNL     1      25.199   0.032  51.775  1.00  0.00     0.167 HD
BRANCH  16  18
HETATM   18  C8  UNL     1      26.638   0.432  53.128  1.00  0.00     0.035 A 
HETATM   19  C9  UNL     1      26.965   1.758  53.287  1.00  0.00     0.029 A 
HETATM   20  C10 UNL     1      28.230   2.210  53.595  1.00  0.00     0.004 A 
HETATM   21  C11 UNL     1      29.262   1.325  53.763  1.00  0.00     0.024 A 
HETATM   22  C12 UNL     1      28.994   0.001  53.616  1.00  0.00     0.036 A 
HETATM   23 CL1  UNL     1      30.260  -1.160  53.817  1.00  0.00    -0.084 Cl
HETATM   24  C13 UNL     1      27.719  -0.399  53.310  1.00  0.00     0.053 A 
ENDBRANCH  16  18
ENDBRANCH  11  16
BRANCH  15  25
HETATM   25  C17 UNL     1      21.876   1.557  49.646  1.00  0.00     0.162 C 
BRANCH  25  26
HETATM   26  C18 UNL     1      22.334   2.941  50.041  1.00  0.00     0.293 C 
BRANCH  26  27
HETATM   27  N5  UNL     1      23.629   3.298  49.544  1.00  0.00     0.093 N 
HETATM   28  C19 UNL     1      23.662   4.719  49.340  1.00  0.00     0.299 C 
HETATM   29  C20 UNL     1      25.031   5.233  49.054  1.00  0.00    -0.001 C 
HETATM   30  C21 UNL     1      26.121   4.544  49.380  1.00  0.00    -0.027 C 
HETATM   31  C22 UNL     1      26.035   3.229  50.045  1.00  0.00     0.057 C 
HETATM   32  C23 UNL     1      24.653   2.796  50.404  1.00  0.00     0.276 C 
ENDBRANCH  26  27
ENDBRANCH  25  26
ENDBRANCH  15  25
TORSDOF 5
ENDMDL
MODEL 2
REMARK VINA RESULT:      -9.5      2.759      5.194
REMARK  5 active torsions:
REMARK  status: ('A' for Active; 'I' for Inactive)
REMARK    1  A    between atoms: C7_11  and  N3_12 
REMARK    2  A    between atoms: N3_12  and  C8_13 
REMARK    3  A    between atoms: N4_23  and  C17_24 
REMARK    4  A    between atoms: C17_24  and  C18_25 
REMARK    5  A    between atoms: C18_25  and  N5_26 
ROOT
HETATM    1  O1  UNL     1      20.723  -1.278  54.112  1.00  0.00    -0.271 OA
HETATM    2  C1  UNL     1      21.991  -1.194  54.229  1.00  0.00     0.248 C 
HETATM    3  C2  UNL     1      22.711  -1.886  55.331  1.00  0.00     0.279 C 
HETATM    4  O2  UNL     1      23.899  -1.181  55.645  1.00  0.00    -0.340 OA
HETATM    5  C3  UNL     1      24.562  -0.426  54.712  1.00  0.00     0.098 A 
HETATM    6  C4  UNL     1      25.859  -0.054  54.984  1.00  0.00     0.071 A 
HETATM    7  C5  UNL     1      26.570   0.704  54.079  1.00  0.00     0.075 A 
HETATM    8  N1  UNL     1      27.840   1.018  54.440  1.00  0.00    -0.241 NA
HETATM    9  C6  UNL     1      28.554   1.756  53.574  1.00  0.00     0.236 A 
HETATM   10  N2  UNL     1      28.038   2.159  52.416  1.00  0.00    -0.224 NA
HETATM   11  C7  UNL     1      26.801   1.889  51.998  1.00  0.00     0.142 A 
HETATM   12  C14 UNL     1      26.062   1.144  52.861  1.00  0.00     0.041 A 
HETATM   13  C15 UNL     1      24.781   0.737  52.665  1.00  0.00     0.050 A 
HETATM   14  C16 UNL     1      24.012  -0.019  53.522  1.00  0.00     0.071 A 
HETATM   15  N4  UNL     1      22.680  -0.411  53.259  1.00  0.00    -0.312 N 
ENDROOT
BRANCH  11  16
HETATM   16  N3  UNL     1      26.235   2.302  50.781  1.00  0.00    -0.340 N 
HETATM   17  H5  UNL     1      25.869   1.628  50.083  1.00  0.00     0.167 HD
BRANCH  16  18
HETATM   18  C8  UNL     1      26.060   3.622  50.298  1.00  0.00     0.035 A 
HETATM   19  C9  UNL     1      26.842   4.163  49.305  1.00  0.00     0.029 A 
HETATM   20  C10 UNL     1      26.699   5.445  48.821  1.00  0.00     0.004 A 
HETATM   21  C11 UNL     1      25.732   6.274  49.327  1.00  0.00     0.024 A 
HETATM   22  C12 UNL     1      24.930   5.790  50.310  1.00  0.00     0.036 A 
HETATM   23 CL1  UNL     1      23.693   6.792  50.984  1.00  0.00    -0.084 Cl
HETATM   24  C13 UNL     1      25.112   4.506  50.758  1.00  0.00     0.053 A 
ENDBRANCH  16  18
ENDBRANCH  11  16
BRANCH  15  25
HETATM   25  C17 UNL     1      22.054  -0.007  52.018  1.00  0.00     0.162 C 
BRANCH  25  26
HETATM   26  C18 UNL     1      21.484   1.383  52.171  1.00  0.00     0.293 C 
BRANCH  26  27
HETATM   27  N5  UNL     1      21.943   2.322  51.192  1.00  0.00     0.093 N 
HETATM   28  C19 UNL     1      22.390   1.594  50.037  1.00  0.00     0.299 C 
HETATM   29  C20 UNL     1      22.665   2.474  48.866  1.00  0.00    -0.001 C 
HETATM   30  C21 UNL     1      22.148   3.695  48.770  1.00  0.00    -0.027 C 
HETATM   31  C22 UNL     1      21.271   4.249  49.821  1.00  0.00     0.057 C 
HETATM   32  C23 UNL     1      20.939   3.303  50.926  1.00  0.00     0.276 C 
ENDBRANCH  26  27
ENDBRANCH  25  26
ENDBRANCH  15  25
TORSDOF 5
ENDMDL
MODEL 3
REMARK VINA RESULT:      -9.4      2.279      6.078
REMARK  5 active torsions:
REMARK  status: ('A' for Active; 'I' for Inactive)
REMARK    1  A    between atoms: C7_11  and  N3_12 
REMARK    2  A    between atoms: N3_12  and  C8_13 
REMARK    3  A    between atoms: N4_23  and  C17_24 
REMARK    4  A    between atoms: C17_24  and  C18_25 
REMARK    5  A    between atoms: C18_25  and  N5_26 
ROOT
HETATM    1  O1  UNL     1      23.298  -1.409  55.222  1.00  0.00    -0.271 OA
HETATM    2  C1  UNL     1      22.676  -0.702  54.360  1.00  0.00     0.248 C 
HETATM    3  C2  UNL     1      21.195  -0.761  54.240  1.00  0.00     0.279 C 
HETATM    4  O2  UNL     1      20.809  -0.454  52.912  1.00  0.00    -0.340 OA
HETATM    5  C3  UNL     1      21.567   0.355  52.106  1.00  0.00     0.098 A 
HETATM    6  C4  UNL     1      20.979   0.875  50.975  1.00  0.00     0.071 A 
HETATM    7  C5  UNL     1      21.697   1.694  50.130  1.00  0.00     0.075 A 
HETATM    8  N1  UNL     1      21.027   2.155  49.044  1.00  0.00    -0.241 NA
HETATM    9  C6  UNL     1      21.706   2.957  48.206  1.00  0.00     0.236 A 
HETATM   10  N2  UNL     1      22.975   3.283  48.433  1.00  0.00    -0.224 NA
HETATM   11  C7  UNL     1      23.693   2.867  49.478  1.00  0.00     0.142 A 
HETATM   12  C14 UNL     1      23.024   2.054  50.337  1.00  0.00     0.041 A 
HETATM   13  C15 UNL     1      23.533   1.505  51.470  1.00  0.00     0.050 A 
HETATM   14  C16 UNL     1      22.876   0.680  52.357  1.00  0.00     0.071 A 
HETATM   15  N4  UNL     1      23.463   0.139  53.523  1.00  0.00    -0.312 N 
ENDROOT
BRANCH  11  16
HETATM   16  N3  UNL     1      25.032   3.198  49.739  1.00  0.00    -0.340 N 
HETATM   17  H5  UNL     1      25.652   2.592  50.310  1.00  0.00     0.167 HD
BRANCH  16  18
HETATM   18  C8  UNL     1      25.755   4.337  49.309  1.00  0.00     0.035 A 
HETATM   19  C9  UNL     1      25.184   5.583  49.193  1.00  0.00     0.029 A 
HETATM   20  C10 UNL     1      25.860   6.706  48.771  1.00  0.00     0.004 A 
HETATM   21  C11 UNL     1      27.186   6.632  48.433  1.00  0.00     0.024 A 
HETATM   22  C12 UNL     1      27.800   5.425  48.529  1.00  0.00     0.036 A 
HETATM   23 CL1  UNL     1      29.472   5.274  48.115  1.00  0.00    -0.084 Cl
HETATM   24  C13 UNL     1      27.084   4.336  48.954  1.00  0.00     0.053 A 
ENDBRANCH  16  18
ENDBRANCH  11  16
BRANCH  15  25
HETATM   25  C17 UNL     1      24.843   0.450  53.833  1.00  0.00     0.162 C 
BRANCH  25  26
HETATM   26  C18 UNL     1      25.740  -0.630  53.278  1.00  0.00     0.293 C 
BRANCH  26  27
HETATM   27  N5  UNL     1      27.090  -0.577  53.751  1.00  0.00     0.093 N 
HETATM   28  C19 UNL     1      27.869  -1.535  53.016  1.00  0.00     0.299 C 
HETATM   29  C20 UNL     1      29.333  -1.401  53.256  1.00  0.00    -0.001 C 
HETATM   30  C21 UNL     1      29.866  -0.279  53.731  1.00  0.00    -0.027 C 
HETATM   31  C22 UNL     1      29.034   0.900  54.047  1.00  0.00     0.057 C 
HETATM   32  C23 UNL     1      27.590   0.760  53.700  1.00  0.00     0.276 C 
ENDBRANCH  26  27
ENDBRANCH  25  26
ENDBRANCH  15  25
TORSDOF 5
ENDMDL
MODEL 4
REMARK VINA RESULT:      -9.3      1.950      2.807
REMARK  5 active torsions:
REMARK  status: ('A' for Active; 'I' for Inactive)
REMARK    1  A    between atoms: C7_11  and  N3_12 
REMARK    2  A    between atoms: N3_12  and  C8_13 
REMARK    3  A    between atoms: N4_23  and  C17_24 
REMARK    4  A    between atoms: C17_24  and  C18_25 
REMARK    5  A    between atoms: C18_25  and  N5_26 
ROOT
HETATM    1  O1  UNL     1      21.391   6.387  49.554  1.00  0.00    -0.271 OA
HETATM    2  C1  UNL     1      21.188   5.262  50.123  1.00  0.00     0.248 C 
HETATM    3  C2  UNL     1      19.823   4.844  50.541  1.00  0.00     0.279 C 
HETATM    4  O2  UNL     1      19.908   3.965  51.648  1.00  0.00    -0.340 OA
HETATM    5  C3  UNL     1      21.003   3.165  51.855  1.00  0.00     0.098 A 
HETATM    6  C4  UNL     1      20.878   2.114  52.736  1.00  0.00     0.071 A 
HETATM    7  C5  UNL     1      21.948   1.280  52.980  1.00  0.00     0.075 A 
HETATM    8  N1  UNL     1      21.723   0.274  53.863  1.00  0.00    -0.241 NA
HETATM    9  C6  UNL     1      22.751  -0.553  54.116  1.00  0.00     0.236 A 
HETATM   10  N2  UNL     1      23.933  -0.392  53.528  1.00  0.00    -0.224 NA
HETATM   11  C7  UNL     1      24.224   0.572  52.654  1.00  0.00     0.142 A 
HETATM   12  C14 UNL     1      23.197   1.420  52.385  1.00  0.00     0.041 A 
HETATM   13  C15 UNL     1      23.241   2.475  51.531  1.00  0.00     0.050 A 
HETATM   14  C16 UNL     1      22.215   3.348  51.240  1.00  0.00     0.071 A 
HETATM   15  N4  UNL     1      22.325   4.431  50.339  1.00  0.00    -0.312 N 
ENDROOT
BRANCH  11  16
HETATM   16  N3  UNL     1      25.462   0.762  52.021  1.00  0.00    -0.340 N 
HETATM   17  H5  UNL     1      25.555   0.814  50.988  1.00  0.00     0.167 HD
BRANCH  16  18
HETATM   18  C8  UNL     1      26.739   0.912  52.616  1.00  0.00     0.035 A 
HETATM   19  C9  UNL     1      27.257   2.135  52.972  1.00  0.00     0.029 A 
HETATM   20  C10 UNL     1      28.497   2.311  53.546  1.00  0.00     0.004 A 
HETATM   21  C11 UNL     1      29.304   1.233  53.799  1.00  0.00     0.024 A 
HETATM   22  C12 UNL     1      28.841   0.000  53.467  1.00  0.00     0.036 A 
HETATM   23 CL1  UNL     1      29.818  -1.396  53.764  1.00  0.00    -0.084 Cl
HETATM   24  C13 UNL     1      27.599  -0.123  52.898  1.00  0.00     0.053 A 
ENDBRANCH  16  18
ENDBRANCH  11  16
BRANCH  15  25
HETATM   25  C17 UNL     1      23.584   4.667  49.663  1.00  0.00     0.162 C 
BRANCH  25  26
HETATM   26  C18 UNL     1      24.370   5.714  50.416  1.00  0.00     0.293 C 
BRANCH  26  27
HETATM   27  N5  UNL     1      25.745   5.811  50.028  1.00  0.00     0.093 N 
HETATM   28  C19 UNL     1      26.153   4.552  49.473  1.00  0.00     0.299 C 
HETATM   29  C20 UNL     1      27.491   4.611  48.819  1.00  0.00    -0.001 C 
HETATM   30  C21 UNL     1      28.026   5.761  48.420  1.00  0.00    -0.027 C 
HETATM   31  C22 UNL     1      27.323   7.046  48.602  1.00  0.00     0.057 C 
HETATM   32  C23 UNL     1      25.947   6.934  49.168  1.00  0.00     0.276 C 
ENDBRANCH  26  27
ENDBRANCH  25  26
ENDBRANCH  15  25
TORSDOF 5
ENDMDL
MODEL 5
REMARK VINA RESULT:      -9.2      3.598      6.177
REMARK  5 active torsions:
REMARK  status: ('A' for Active; 'I' for Inactive)
REMARK    1  A    between atoms: C7_11  and  N3_12 
REMARK    2  A    between atoms: N3_12  and  C8_13 
REMARK    3  A    between atoms: N4_23  and  C17_24 
REMARK    4  A    between atoms: C17_24  and  C18_25 
REMARK    5  A    between atoms: C18_25  and  N5_26 
ROOT
HETATM    1  O1  UNL     1      28.654   1.702  52.874  1.00  0.00    -0.271 OA
HETATM    2  C1  UNL     1      27.675   1.173  53.499  1.00  0.00     0.248 C 
HETATM    3  C2  UNL     1      27.899   0.191  54.593  1.00  0.00     0.279 C 
HETATM    4  O2  UNL     1      26.795  -0.692  54.679  1.00  0.00    -0.340 OA
HETATM    5  C3  UNL     1      25.534  -0.314  54.296  1.00  0.00     0.098 A 
HETATM    6  C4  UNL     1      24.473  -1.085  54.714  1.00  0.00     0.071 A 
HETATM    7  C5  UNL     1      23.185  -0.749  54.357  1.00  0.00     0.075 A 
HETATM    8  N1  UNL     1      22.210  -1.572  54.820  1.00  0.00    -0.241 NA
HETATM    9  C6  UNL     1      20.945  -1.264  54.486  1.00  0.00     0.236 A 
HETATM   10  N2  UNL     1      20.664  -0.202  53.736  1.00  0.00    -0.224 NA
HETATM   11  C7  UNL     1      21.569   0.647  53.248  1.00  0.00     0.142 A 
HETATM   12  C14 UNL     1      22.855   0.353  53.574  1.00  0.00     0.041 A 
HETATM   13  C15 UNL     1      23.952   1.062  53.203  1.00  0.00     0.050 A 
HETATM   14  C16 UNL     1      25.264   0.785  53.522  1.00  0.00     0.071 A 
HETATM   15  N4  UNL     1      26.365   1.566  53.102  1.00  0.00    -0.312 N 
ENDROOT
BRANCH  11  16
HETATM   16  N3  UNL     1      21.298   1.774  52.456  1.00  0.00    -0.340 N 
HETATM   17  H5  UNL     1      21.176   2.721  52.863  1.00  0.00     0.167 HD
BRANCH  16  18
HETATM   18  C8  UNL     1      21.148   1.843  51.050  1.00  0.00     0.035 A 
HETATM   19  C9  UNL     1      21.672   0.901  50.196  1.00  0.00     0.029 A 
HETATM   20  C10 UNL     1      21.547   0.946  48.825  1.00  0.00     0.004 A 
HETATM   21  C11 UNL     1      20.868   1.973  48.223  1.00  0.00     0.024 A 
HETATM   22  C12 UNL     1      20.329   2.931  49.020  1.00  0.00     0.036 A 
HETATM   23 CL1  UNL     1      19.462   4.250  48.314  1.00  0.00    -0.084 Cl
HETATM   24  C13 UNL     1      20.481   2.842  50.380  1.00  0.00     0.053 A 
ENDBRANCH  16  18
ENDBRANCH  11  16
BRANCH  15  25
HETATM   25  C17 UNL     1      26.133   2.737  52.282  1.00  0.00     0.162 C 
BRANCH  25  26
HETATM   26  C18 UNL     1      26.499   2.430  50.850  1.00  0.00     0.293 C 
BRANCH  26  27
HETATM   27  N5  UNL     1      25.837   3.249  49.881  1.00  0.00     0.093 N 
HETATM   28  C19 UNL     1      24.439   3.304  50.209  1.00  0.00     0.299 C 
HETATM   29  C20 UNL     1      23.694   4.318  49.411  1.00  0.00    -0.001 C 
HETATM   30  C21 UNL     1      24.314   5.328  48.807  1.00  0.00    -0.027 C 
HETATM   31  C22 UNL     1      25.778   5.500  48.894  1.00  0.00     0.057 C 
HETATM   32  C23 UNL     1      26.474   4.524  49.781  1.00  0.00     0.276 C 
ENDBRANCH  26  27
ENDBRANCH  25  26
ENDBRANCH  15  25
TORSDOF 5
ENDMDL
MODEL 6
REMARK VINA RESULT:      -9.1      2.910      6.175
REMARK  5 active torsions:
REMARK  status: ('A' for Active; 'I' for Inactive)
REMARK    1  A    between atoms: C7_11  and  N3_12 
REMARK    2  A    between atoms: N3_12  and  C8_13 
REMARK    3  A    between atoms: N4_23  and  C17_24 
REMARK    4  A    between atoms: C17_24  and  C18_25 
REMARK    5  A    between atoms: C18_25  and  N5_26 
ROOT
HETATM    1  O1  UNL     1      23.758  -0.842  53.817  1.00  0.00    -0.271 OA
HETATM    2  C1  UNL     1      22.981   0.131  53.537  1.00  0.00     0.248 C 
HETATM    3  C2  UNL     1      21.505   0.000  53.668  1.00  0.00     0.279 C 
HETATM    4  O2  UNL     1      20.863   0.870  52.753  1.00  0.00    -0.340 OA
HETATM    5  C3  UNL     1      21.450   2.035  52.327  1.00  0.00     0.098 A 
HETATM    6  C4  UNL     1      20.651   2.977  51.720  1.00  0.00     0.071 A 
HETATM    7  C5  UNL     1      21.191   4.164  51.274  1.00  0.00     0.075 A 
HETATM    8  N1  UNL     1      20.320   5.027  50.691  1.00  0.00    -0.241 NA
HETATM    9  C6  UNL     1      20.823   6.192  50.249  1.00  0.00     0.236 A 
HETATM   10  N2  UNL     1      22.114   6.484  50.378  1.00  0.00    -0.224 NA
HETATM   11  C7  UNL     1      23.024   5.686  50.939  1.00  0.00     0.142 A 
HETATM   12  C14 UNL     1      22.535   4.502  51.392  1.00  0.00     0.041 A 
HETATM   13  C15 UNL     1      23.256   3.525  52.000  1.00  0.00     0.050 A 
HETATM   14  C16 UNL     1      22.785   2.318  52.469  1.00  0.00     0.071 A 
HETATM   15  N4  UNL     1      23.590   1.340  53.095  1.00  0.00    -0.312 N 
ENDROOT
BRANCH  11  16
HETATM   16  N3  UNL     1      24.390   5.973  51.088  1.00  0.00    -0.340 N 
HETATM   17  H5  UNL     1      24.763   6.482  51.912  1.00  0.00     0.167 HD
BRANCH  16  18
HETATM   18  C8  UNL     1      25.455   5.650  50.212  1.00  0.00     0.035 A 
HETATM   19  C9  UNL     1      25.952   4.374  50.081  1.00  0.00     0.029 A 
HETATM   20  C10 UNL     1      26.990   4.032  49.243  1.00  0.00     0.004 A 
HETATM   21  C11 UNL     1      27.601   4.985  48.470  1.00  0.00     0.024 A 
HETATM   22  C12 UNL     1      27.149   6.262  48.560  1.00  0.00     0.036 A 
HETATM   23 CL1  UNL     1      27.882   7.504  47.606  1.00  0.00    -0.084 Cl
HETATM   24  C13 UNL     1      26.112   6.552  49.409  1.00  0.00     0.053 A 
ENDBRANCH  16  18
ENDBRANCH  11  16
BRANCH  15  25
HETATM   25  C17 UNL     1      25.005   1.591  53.269  1.00  0.00     0.162 C 
BRANCH  25  26
HETATM   26  C18 UNL     1      25.761   1.066  52.071  1.00  0.00     0.293 C 
BRANCH  26  27
HETATM   27  N5  UNL     1      27.121   0.709  52.340  1.00  0.00     0.093 N 
HETATM   28  C19 UNL     1      27.686   1.694  53.218  1.00  0.00     0.299 C 
HETATM   29  C20 UNL     1      29.019   1.298  53.755  1.00  0.00    -0.001 C 
HETATM   30  C21 UNL     1      29.420   0.030  53.770  1.00  0.00    -0.027 C 
HETATM   31  C22 UNL     1      28.564  -1.058  53.256  1.00  0.00     0.057 C 
HETATM   32  C23 UNL     1      27.202  -0.634  52.820  1.00  0.00     0.276 C 
ENDBRANCH  26  27
ENDBRANCH  25  26
ENDBRANCH  15  25
TORSDOF 5
ENDMDL
MODEL 7
REMARK VINA RESULT:      -8.9      3.369      7.049
REMARK  5 active torsions:
REMARK  status: ('A' for Active; 'I' for Inactive)
REMARK    1  A    between atoms: C7_11  and  N3_12 
REMARK    2  A    between atoms: N3_12  and  C8_13 
REMARK    3  A    between atoms: N4_23  and  C17_24 
REMARK    4  A    between atoms: C17_24  and  C18_25 
REMARK    5  A    between atoms: C18_25  and  N5_26 
ROOT
HETATM    1  O1  UNL     1      27.648   2.746  51.783  1.00  0.00    -0.271 OA
HETATM    2  C1  UNL     1      26.576   2.727  51.091  1.00  0.00     0.248 C 
HETATM    3  C2  UNL     1      26.603   2.948  49.621  1.00  0.00     0.279 C 
HETATM    4  O2  UNL     1      25.373   3.508  49.197  1.00  0.00    -0.340 OA
HETATM    5  C3  UNL     1      24.201   3.275  49.870  1.00  0.00     0.098 A 
HETATM    6  C4  UNL     1      23.018   3.562  49.227  1.00  0.00     0.071 A 
HETATM    7  C5  UNL     1      21.812   3.346  49.859  1.00  0.00     0.075 A 
HETATM    8  N1  UNL     1      20.704   3.660  49.140  1.00  0.00    -0.241 NA
HETATM    9  C6  UNL     1      19.517   3.457  49.734  1.00  0.00     0.236 A 
HETATM   10  N2  UNL     1      19.433   2.971  50.970  1.00  0.00    -0.224 NA
HETATM   11  C7  UNL     1      20.477   2.642  51.732  1.00  0.00     0.142 A 
HETATM   12  C14 UNL     1      21.687   2.841  51.149  1.00  0.00     0.041 A 
HETATM   13  C15 UNL     1      22.895   2.583  51.715  1.00  0.00     0.050 A 
HETATM   14  C16 UNL     1      24.135   2.774  51.145  1.00  0.00     0.071 A 
HETATM   15  N4  UNL     1      25.358   2.484  51.790  1.00  0.00    -0.312 N 
ENDROOT
BRANCH  11  16
HETATM   16  N3  UNL     1      20.413   2.127  53.036  1.00  0.00    -0.340 N 
HETATM   17  H5  UNL     1      20.277   2.735  53.866  1.00  0.00     0.167 HD
BRANCH  16  18
HETATM   18  C8  UNL     1      20.513   0.777  53.453  1.00  0.00     0.035 A 
HETATM   19  C9  UNL     1      21.667   0.240  53.972  1.00  0.00     0.029 A 
HETATM   20  C10 UNL     1      21.795  -1.070  54.378  1.00  0.00     0.004 A 
HETATM   21  C11 UNL     1      20.736  -1.934  54.279  1.00  0.00     0.024 A 
HETATM   22  C12 UNL     1      19.570  -1.455  53.773  1.00  0.00     0.036 A 
HETATM   23 CL1  UNL     1      18.201  -2.501  53.626  1.00  0.00    -0.084 Cl
HETATM   24  C13 UNL     1      19.493  -0.142  53.382  1.00  0.00     0.053 A 
ENDBRANCH  16  18
ENDBRANCH  11  16
BRANCH  15  25
HETATM   25  C17 UNL     1      25.343   1.953  53.137  1.00  0.00     0.162 C 
BRANCH  25  26
HETATM   26  C18 UNL     1      25.364   0.444  53.084  1.00  0.00     0.293 C 
BRANCH  26  27
HETATM   27  N5  UNL     1      26.532  -0.151  53.659  1.00  0.00     0.093 N 
HETATM   28  C19 UNL     1      27.248  -0.844  52.624  1.00  0.00     0.299 C 
HETATM   29  C20 UNL     1      28.599  -1.298  53.056  1.00  0.00    -0.001 C 
HETATM   30  C21 UNL     1      29.222  -0.754  54.097  1.00  0.00    -0.027 C 
HETATM   31  C22 UNL     1      28.608   0.333  54.885  1.00  0.00     0.057 C 
HETATM   32  C23 UNL     1      27.301   0.827  54.361  1.00  0.00     0.276 C 
ENDBRANCH  26  27
ENDBRANCH  25  26
ENDBRANCH  15  25
TORSDOF 5
ENDMDL
MODEL 8
REMARK VINA RESULT:      -8.8      1.743      5.254
REMARK  5 active torsions:
REMARK  status: ('A' for Active; 'I' for Inactive)
REMARK    1  A    between atoms: C7_11  and  N3_12 
REMARK    2  A    between atoms: N3_12  and  C8_13 
REMARK    3  A    between atoms: N4_23  and  C17_24 
REMARK    4  A    between atoms: C17_24  and  C18_25 
REMARK    5  A    between atoms: C18_25  and  N5_26 
ROOT
HETATM    1  O1  UNL     1      18.596   2.619  49.720  1.00  0.00    -0.271 OA
HETATM    2  C1  UNL     1      19.682   3.289  49.717  1.00  0.00     0.248 C 
HETATM    3  C2  UNL     1      19.728   4.680  49.192  1.00  0.00     0.279 C 
HETATM    4  O2  UNL     1      21.025   4.965  48.699  1.00  0.00    -0.340 OA
HETATM    5  C3  UNL     1      22.142   4.345  49.198  1.00  0.00     0.098 A 
HETATM    6  C4  UNL     1      23.369   4.902  48.920  1.00  0.00     0.071 A 
HETATM    7  C5  UNL     1      24.523   4.319  49.397  1.00  0.00     0.075 A 
HETATM    8  N1  UNL     1      25.681   4.945  49.068  1.00  0.00    -0.241 NA
HETATM    9  C6  UNL     1      26.820   4.395  49.524  1.00  0.00     0.236 A 
HETATM   10  N2  UNL     1      26.810   3.289  50.262  1.00  0.00    -0.224 NA
HETATM   11  C7  UNL     1      25.712   2.623  50.622  1.00  0.00     0.142 A 
HETATM   12  C14 UNL     1      24.550   3.163  50.171  1.00  0.00     0.041 A 
HETATM   13  C15 UNL     1      23.304   2.674  50.403  1.00  0.00     0.050 A 
HETATM   14  C16 UNL     1      22.111   3.204  49.958  1.00  0.00     0.071 A 
HETATM   15  N4  UNL     1      20.843   2.645  50.235  1.00  0.00    -0.312 N 
ENDROOT
BRANCH  11  16
HETATM   16  N3  UNL     1      25.676   1.455  51.400  1.00  0.00    -0.340 N 
HETATM   17  H5  UNL     1      24.830   0.857  51.464  1.00  0.00     0.167 HD
BRANCH  16  18
HETATM   18  C8  UNL     1      26.708   0.898  52.194  1.00  0.00     0.035 A 
HETATM   19  C9  UNL     1      26.912  -0.457  52.308  1.00  0.00     0.029 A 
HETATM   20  C10 UNL     1      27.903  -1.026  53.078  1.00  0.00     0.004 A 
HETATM   21  C11 UNL     1      28.764  -0.238  53.795  1.00  0.00     0.024 A 
HETATM   22  C12 UNL     1      28.607   1.108  53.719  1.00  0.00     0.036 A 
HETATM   23 CL1  UNL     1      29.666   2.151  54.603  1.00  0.00    -0.084 Cl
HETATM   24  C13 UNL     1      27.605   1.627  52.938  1.00  0.00     0.053 A 
ENDBRANCH  16  18
ENDBRANCH  11  16
BRANCH  15  25
HETATM   25  C17 UNL     1      20.756   1.440  51.033  1.00  0.00     0.162 C 
BRANCH  25  26
HETATM   26  C18 UNL     1      20.521   1.809  52.478  1.00  0.00     0.293 C 
BRANCH  26  27
HETATM   27  N5  UNL     1      21.116   0.912  53.421  1.00  0.00     0.093 N 
HETATM   28  C19 UNL     1      20.280  -0.250  53.537  1.00  0.00     0.299 C 
HETATM   29  C20 UNL     1      20.921  -1.353  54.308  1.00  0.00    -0.001 C 
HETATM   30  C21 UNL     1      22.238  -1.416  54.479  1.00  0.00    -0.027 C 
HETATM   31  C22 UNL     1      23.141  -0.394  53.912  1.00  0.00     0.057 C 
HETATM   32  C23 UNL     1      22.472   0.636  53.065  1.00  0.00     0.276 C 
ENDBRANCH  26  27
ENDBRANCH  25  26
ENDBRANCH  15  25
TORSDOF 5
ENDMDL
MODEL 9
REMARK VINA RESULT:      -8.7      2.671      4.914
REMARK  5 active torsions:
REMARK  status: ('A' for Active; 'I' for Inactive)
REMARK    1  A    between atoms: C7_11  and  N3_12 
REMARK    2  A    between atoms: N3_12  and  C8_13 
REMARK    3  A    between atoms: N4_23  and  C17_24 
REMARK    4  A    between atoms: C17_24  and  C18_25 
REMARK    5  A    between atoms: C18_25  and  N5_26 
ROOT
HETATM    1  O1  UNL     1      19.721  -0.758  53.453  1.00  0.00    -0.271 OA
HETATM    2  C1  UNL     1      20.990  -0.850  53.551  1.00  0.00     0.248 C 
HETATM    3  C2  UNL     1      21.622  -1.780  54.524  1.00  0.00     0.279 C 
HETATM    4  O2  UNL     1      22.891  -1.281  54.911  1.00  0.00    -0.340 OA
HETATM    5  C3  UNL     1      23.639  -0.485  54.081  1.00  0.00     0.098 A 
HETATM    6  C4  UNL     1      24.974  -0.320  54.375  1.00  0.00     0.071 A 
HETATM    7  C5  UNL     1      25.770   0.469  53.574  1.00  0.00     0.075 A 
HETATM    8  N1  UNL     1      27.071   0.567  53.948  1.00  0.00    -0.241 NA
HETATM    9  C6  UNL     1      27.868   1.331  53.182  1.00  0.00     0.236 A 
HETATM   10  N2  UNL     1      27.402   1.960  52.107  1.00  0.00    -0.224 NA
HETATM   11  C7  UNL     1      26.139   1.910  51.682  1.00  0.00     0.142 A 
HETATM   12  C14 UNL     1      25.316   1.142  52.445  1.00  0.00     0.041 A 
HETATM   13  C15 UNL     1      23.994   0.930  52.221  1.00  0.00     0.050 A 
HETATM   14  C16 UNL     1      23.140   0.157  52.977  1.00  0.00     0.071 A 
HETATM   15  N4  UNL     1      21.768  -0.024  52.690  1.00  0.00    -0.312 N 
ENDROOT
BRANCH  11  16
HETATM   16  N3  UNL     1      25.624   2.564  50.552  1.00  0.00    -0.340 N 
HETATM   17  H5  UNL     1      25.317   2.048  49.705  1.00  0.00     0.167 HD
BRANCH  16  18
HETATM   18  C8  UNL     1      25.432   3.953  50.354  1.00  0.00     0.035 A 
HETATM   19  C9  UNL     1      24.506   4.686  51.058  1.00  0.00     0.029 A 
HETATM   20  C10 UNL     1      24.293   6.035  50.882  1.00  0.00     0.004 A 
HETATM   21  C11 UNL     1      25.022   6.738  49.959  1.00  0.00     0.024 A 
HETATM   22  C12 UNL     1      25.951   6.063  49.235  1.00  0.00     0.036 A 
HETATM   23 CL1  UNL     1      26.901   6.900  48.056  1.00  0.00    -0.084 Cl
HETATM   24  C13 UNL     1      26.126   4.719  49.447  1.00  0.00     0.053 A 
ENDBRANCH  16  18
ENDBRANCH  11  16
BRANCH  15  25
HETATM   25  C17 UNL     1      21.191   0.633  51.535  1.00  0.00     0.162 C 
BRANCH  25  26
HETATM   26  C18 UNL     1      20.641   1.978  51.944  1.00  0.00     0.293 C 
BRANCH  26  27
HETATM   27  N5  UNL     1      20.544   2.926  50.875  1.00  0.00     0.093 N 
HETATM   28  C19 UNL     1      20.527   4.247  51.439  1.00  0.00     0.299 C 
HETATM   29  C20 UNL     1      20.670   5.319  50.413  1.00  0.00    -0.001 C 
HETATM   30  C21 UNL     1      21.184   5.074  49.211  1.00  0.00    -0.027 C 
HETATM   31  C22 UNL     1      21.643   3.725  48.825  1.00  0.00     0.057 C 
HETATM   32  C23 UNL     1      21.575   2.704  49.912  1.00  0.00     0.276 C 
ENDBRANCH  26  27
ENDBRANCH  25  26
ENDBRANCH  15  25
TORSDOF 5
ENDMDL
