MODEL 1
REMARK VINA RESULT:      -8.3      0.000      0.000
REMARK  2 active torsions:
REMARK  status: ('A' for Active; 'I' for Inactive)
REMARK    1  A    between atoms: C5_6  and  O1_7 
REMARK    2  A    between atoms: O1_7  and  C6_8 
ROOT
HETATM    1  C6  UNL     1      23.952   0.602  51.940  1.00  0.00     0.221 A 
HETATM    2  C7  UNL     1      22.983  -0.270  52.768  1.00  0.00     0.055 A 
HETATM    3 CL1  UNL     1      23.513   1.309  53.462  1.00  0.00    -0.179 Cl
HETATM    4  C8  UNL     1      22.117  -0.901  53.547  1.00  0.00     0.094 C 
HETATM    5  C9  UNL     1      21.430   0.017  54.534  1.00  0.00     0.128 C 
HETATM    6  N1  UNL     1      20.013   0.134  54.079  1.00  0.00    -0.374 N 
HETATM    7  C10 UNL     1      20.212   0.872  52.813  1.00  0.00     0.124 C 
HETATM    8  C11 UNL     1      20.729   0.338  51.648  1.00  0.00     0.051 C 
HETATM    9  C12 UNL     1      21.868   0.630  50.682  1.00  0.00     0.016 C 
HETATM   10  C13 UNL     1      22.821   1.440  51.258  1.00  0.00    -0.000 C 
HETATM   11  C14 UNL     1      22.864   2.917  51.427  1.00  0.00     0.128 C 
HETATM   12  N2  UNL     1      21.761   3.625  51.618  1.00  0.00    -0.253 NA
HETATM   13  C15 UNL     1      20.616   3.371  52.498  1.00  0.00     0.234 C 
HETATM   14  N3  UNL     1      19.876   2.289  52.714  1.00  0.00    -0.225 NA
HETATM   15  H8  UNL     1      19.059   0.263  53.682  1.00  0.00     0.161 HD
ENDROOT
BRANCH   1  16
HETATM   16  O1  UNL     1      24.803   1.326  52.694  1.00  0.00    -0.329 OA
BRANCH  16  17
HETATM   17  C5  UNL     1      26.112   0.952  52.942  1.00  0.00     0.074 A 
HETATM   18  C4  UNL     1      26.698  -0.293  52.918  1.00  0.00     0.037 A 
HETATM   19  C3  UNL     1      28.036  -0.472  53.197  1.00  0.00     0.006 A 
HETATM   20  C2  UNL     1      28.823   0.616  53.512  1.00  0.00     0.042 A 
HETATM   21  C1  UNL     1      28.278   1.878  53.547  1.00  0.00     0.119 A 
HETATM   22  F1  UNL     1      29.125   2.868  53.862  1.00  0.00    -0.206 F 
HETATM   23  C16 UNL     1      26.921   2.037  53.261  1.00  0.00     0.079 A 
ENDBRANCH  16  17
ENDBRANCH   1  16
TORSDOF 2
ENDMDL
MODEL 2
REMARK VINA RESULT:      -7.8      1.697      2.316
REMARK  2 active torsions:
REMARK  status: ('A' for Active; 'I' for Inactive)
REMARK    1  A    between atoms: C5_6  and  O1_7 
REMARK    2  A    between atoms: O1_7  and  C6_8 
ROOT
HETATM    1  C6  UNL     1      24.218   1.343  51.622  1.00  0.00     0.221 A 
HETATM    2  C7  UNL     1      22.778   0.821  51.827  1.00  0.00     0.055 A 
HETATM    3 CL1  UNL     1      23.477   1.910  53.085  1.00  0.00    -0.179 Cl
HETATM    4  C8  UNL     1      21.526   0.481  52.089  1.00  0.00     0.094 C 
HETATM    5  C9  UNL     1      20.847   1.425  53.057  1.00  0.00     0.128 C 
HETATM    6  N1  UNL     1      19.836   2.183  52.260  1.00  0.00    -0.374 N 
HETATM    7  C10 UNL     1      20.735   2.971  51.390  1.00  0.00     0.124 C 
HETATM    8  C11 UNL     1      21.462   2.469  50.326  1.00  0.00     0.051 C 
HETATM    9  C12 UNL     1      22.914   2.424  49.873  1.00  0.00     0.016 C 
HETATM   10  C13 UNL     1      23.775   2.669  50.918  1.00  0.00    -0.000 C 
HETATM   11  C14 UNL     1      24.222   3.951  51.525  1.00  0.00     0.128 C 
HETATM   12  N2  UNL     1      23.424   5.006  51.584  1.00  0.00    -0.253 NA
HETATM   13  C15 UNL     1      22.012   5.101  51.970  1.00  0.00     0.234 C 
HETATM   14  N3  UNL     1      20.940   4.396  51.624  1.00  0.00    -0.225 NA
HETATM   15  H8  UNL     1      19.207   2.752  51.657  1.00  0.00     0.161 HD
ENDROOT
BRANCH   1  16
HETATM   16  O1  UNL     1      24.894   1.525  52.774  1.00  0.00    -0.329 OA
BRANCH  16  17
HETATM   17  C5  UNL     1      26.133   0.962  53.028  1.00  0.00     0.074 A 
HETATM   18  C4  UNL     1      27.284   1.535  53.519  1.00  0.00     0.037 A 
HETATM   19  C3  UNL     1      28.436   0.804  53.708  1.00  0.00     0.006 A 
HETATM   20  C2  UNL     1      28.454  -0.541  53.400  1.00  0.00     0.042 A 
HETATM   21  C1  UNL     1      27.326  -1.154  52.908  1.00  0.00     0.119 A 
HETATM   22  F1  UNL     1      27.445  -2.463  52.642  1.00  0.00    -0.206 F 
HETATM   23  C16 UNL     1      26.169  -0.395  52.725  1.00  0.00     0.079 A 
ENDBRANCH  16  17
ENDBRANCH   1  16
TORSDOF 2
ENDMDL
MODEL 3
REMARK VINA RESULT:      -7.7      2.174      3.238
REMARK  2 active torsions:
REMARK  status: ('A' for Active; 'I' for Inactive)
REMARK    1  A    between atoms: C5_6  and  O1_7 
REMARK    2  A    between atoms: O1_7  and  C6_8 
ROOT
HETATM    1  C6  UNL     1      23.701   1.893  52.371  1.00  0.00     0.221 A 
HETATM    2  C7  UNL     1      23.597   3.378  52.782  1.00  0.00     0.055 A 
HETATM    3 CL1  UNL     1      24.363   2.985  51.197  1.00  0.00    -0.179 Cl
HETATM    4  C8  UNL     1      23.522   4.682  53.000  1.00  0.00     0.094 C 
HETATM    5  C9  UNL     1      23.628   5.501  51.732  1.00  0.00     0.128 C 
HETATM    6  N1  UNL     1      22.272   6.075  51.490  1.00  0.00    -0.374 N 
HETATM    7  C10 UNL     1      21.521   4.838  51.187  1.00  0.00     0.124 C 
HETATM    8  C11 UNL     1      21.147   3.881  52.112  1.00  0.00     0.051 C 
HETATM    9  C12 UNL     1      21.317   2.383  52.317  1.00  0.00     0.016 C 
HETATM   10  C13 UNL     1      22.359   1.888  51.566  1.00  0.00    -0.000 C 
HETATM   11  C14 UNL     1      22.419   1.488  50.135  1.00  0.00     0.128 C 
HETATM   12  N2  UNL     1      21.695   2.103  49.213  1.00  0.00    -0.253 NA
HETATM   13  C15 UNL     1      21.461   3.534  48.996  1.00  0.00     0.234 C 
HETATM   14  N3  UNL     1      21.125   4.522  49.818  1.00  0.00    -0.225 NA
HETATM   15  H8  UNL     1      21.295   6.384  51.306  1.00  0.00     0.161 HD
ENDROOT
BRANCH   1  16
HETATM   16  O1  UNL     1      24.793   1.614  51.632  1.00  0.00    -0.329 OA
BRANCH  16  17
HETATM   17  C5  UNL     1      25.977   1.140  52.169  1.00  0.00     0.074 A 
HETATM   18  C4  UNL     1      26.417  -0.153  52.345  1.00  0.00     0.037 A 
HETATM   19  C3  UNL     1      27.644  -0.433  52.906  1.00  0.00     0.006 A 
HETATM   20  C2  UNL     1      28.466   0.598  53.309  1.00  0.00     0.042 A 
HETATM   21  C1  UNL     1      28.067   1.904  53.152  1.00  0.00     0.119 A 
HETATM   22  F1  UNL     1      28.937   2.833  53.573  1.00  0.00    -0.206 F 
HETATM   23  C16 UNL     1      26.820   2.166  52.581  1.00  0.00     0.079 A 
ENDBRANCH  16  17
ENDBRANCH   1  16
TORSDOF 2
ENDMDL
MODEL 4
REMARK VINA RESULT:      -7.5      2.759      3.812
REMARK  2 active torsions:
REMARK  status: ('A' for Active; 'I' for Inactive)
REMARK    1  A    between atoms: C5_6  and  O1_7 
REMARK    2  A    between atoms: O1_7  and  C6_8 
ROOT
HETATM    1  C6  UNL     1      24.653   2.090  51.248  1.00  0.00     0.221 A 
HETATM    2  C7  UNL     1      23.332   2.744  51.710  1.00  0.00     0.055 A 
HETATM    3 CL1  UNL     1      24.883   3.422  52.335  1.00  0.00    -0.179 Cl
HETATM    4  C8  UNL     1      22.275   3.417  52.138  1.00  0.00     0.094 C 
HETATM    5  C9  UNL     1      22.615   4.813  52.612  1.00  0.00     0.128 C 
HETATM    6  N1  UNL     1      22.044   5.748  51.598  1.00  0.00    -0.374 N 
HETATM    7  C10 UNL     1      22.905   5.425  50.440  1.00  0.00     0.124 C 
HETATM    8  C11 UNL     1      22.827   4.271  49.682  1.00  0.00     0.051 C 
HETATM    9  C12 UNL     1      23.751   3.143  49.246  1.00  0.00     0.016 C 
HETATM   10  C13 UNL     1      24.868   3.071  50.047  1.00  0.00    -0.000 C 
HETATM   11  C14 UNL     1      26.138   3.844  50.012  1.00  0.00     0.128 C 
HETATM   12  N2  UNL     1      26.168   5.110  49.626  1.00  0.00    -0.253 NA
HETATM   13  C15 UNL     1      25.282   6.225  49.977  1.00  0.00     0.234 C 
HETATM   14  N3  UNL     1      23.959   6.340  50.015  1.00  0.00    -0.225 NA
HETATM   15  H8  UNL     1      21.713   6.364  50.827  1.00  0.00     0.161 HD
ENDROOT
BRANCH   1  16
HETATM   16  O1  UNL     1      25.628   2.129  52.178  1.00  0.00    -0.329 OA
BRANCH  16  17
HETATM   17  C5  UNL     1      26.424   1.042  52.495  1.00  0.00     0.074 A 
HETATM   18  C4  UNL     1      26.186  -0.306  52.347  1.00  0.00     0.037 A 
HETATM   19  C3  UNL     1      27.113  -1.253  52.725  1.00  0.00     0.006 A 
HETATM   20  C2  UNL     1      28.316  -0.857  53.269  1.00  0.00     0.042 A 
HETATM   21  C1  UNL     1      28.596   0.479  53.434  1.00  0.00     0.119 A 
HETATM   22  F1  UNL     1      29.793   0.761  53.970  1.00  0.00    -0.206 F 
HETATM   23  C16 UNL     1      27.644   1.422  53.044  1.00  0.00     0.079 A 
ENDBRANCH  16  17
ENDBRANCH   1  16
TORSDOF 2
ENDMDL
MODEL 5
REMARK VINA RESULT:      -7.3      3.936      5.194
REMARK  2 active torsions:
REMARK  status: ('A' for Active; 'I' for Inactive)
REMARK    1  A    between atoms: C5_6  and  O1_7 
REMARK    2  A    between atoms: O1_7  and  C6_8 
ROOT
HETATM    1  C6  UNL     1      23.555   1.782  51.694  1.00  0.00     0.221 A 
HETATM    2  C7  UNL     1      22.660   1.477  50.473  1.00  0.00     0.055 A 
HETATM    3 CL1  UNL     1      21.915   2.312  51.888  1.00  0.00    -0.179 Cl
HETATM    4  C8  UNL     1      21.808   1.315  49.473  1.00  0.00     0.094 C 
HETATM    5  C9  UNL     1      20.624   2.256  49.545  1.00  0.00     0.128 C 
HETATM    6  N1  UNL     1      20.803   3.238  48.436  1.00  0.00    -0.374 N 
HETATM    7  C10 UNL     1      22.002   3.956  48.920  1.00  0.00     0.124 C 
HETATM    8  C11 UNL     1      23.290   3.453  48.922  1.00  0.00     0.051 C 
HETATM    9  C12 UNL     1      24.409   3.223  49.927  1.00  0.00     0.016 C 
HETATM   10  C13 UNL     1      23.934   3.224  51.219  1.00  0.00    -0.000 C 
HETATM   11  C14 UNL     1      23.625   4.353  52.137  1.00  0.00     0.128 C 
HETATM   12  N2  UNL     1      23.168   5.510  51.683  1.00  0.00    -0.253 NA
HETATM   13  C15 UNL     1      22.127   5.789  50.689  1.00  0.00     0.234 C 
HETATM   14  N3  UNL     1      21.893   5.301  49.476  1.00  0.00    -0.225 NA
HETATM   15  H8  UNL     1      21.007   3.957  47.710  1.00  0.00     0.161 HD
ENDROOT
BRANCH   1  16
HETATM   16  O1  UNL     1      22.896   1.740  52.869  1.00  0.00    -0.329 OA
BRANCH  16  17
HETATM   17  C5  UNL     1      22.313   0.591  53.377  1.00  0.00     0.074 A 
HETATM   18  C4  UNL     1      22.889  -0.502  53.984  1.00  0.00     0.037 A 
HETATM   19  C3  UNL     1      22.135  -1.565  54.430  1.00  0.00     0.006 A 
HETATM   20  C2  UNL     1      20.766  -1.551  54.271  1.00  0.00     0.042 A 
HETATM   21  C1  UNL     1      20.149  -0.479  53.671  1.00  0.00     0.119 A 
HETATM   22  F1  UNL     1      18.815  -0.560  53.565  1.00  0.00    -0.206 F 
HETATM   23  C16 UNL     1      20.931   0.589  53.226  1.00  0.00     0.079 A 
ENDBRANCH  16  17
ENDBRANCH   1  16
TORSDOF 2
ENDMDL
MODEL 6
REMARK VINA RESULT:      -7.2      3.279      4.544
REMARK  2 active torsions:
REMARK  status: ('A' for Active; 'I' for Inactive)
REMARK    1  A    between atoms: C5_6  and  O1_7 
REMARK    2  A    between atoms: O1_7  and  C6_8 
ROOT
HETATM    1  C6  UNL     1      24.999   3.839  50.151  1.00  0.00     0.221 A 
HETATM    2  C7  UNL     1      23.902   3.157  49.304  1.00  0.00     0.055 A 
HETATM    3 CL1  UNL     1      23.556   3.480  51.045  1.00  0.00    -0.179 Cl
HETATM    4  C8  UNL     1      22.871   2.615  48.675  1.00  0.00     0.094 C 
HETATM    5  C9  UNL     1      21.556   2.841  49.388  1.00  0.00     0.128 C 
HETATM    6  N1  UNL     1      20.787   3.807  48.549  1.00  0.00    -0.374 N 
HETATM    7  C10 UNL     1      21.624   5.014  48.715  1.00  0.00     0.124 C 
HETATM    8  C11 UNL     1      22.861   5.217  48.132  1.00  0.00     0.051 C 
HETATM    9  C12 UNL     1      24.277   5.552  48.578  1.00  0.00     0.016 C 
HETATM   10  C13 UNL     1      24.458   5.289  49.917  1.00  0.00    -0.000 C 
HETATM   11  C14 UNL     1      24.113   6.095  51.119  1.00  0.00     0.128 C 
HETATM   12  N2  UNL     1      23.048   6.882  51.143  1.00  0.00    -0.253 NA
HETATM   13  C15 UNL     1      21.677   6.629  50.689  1.00  0.00     0.234 C 
HETATM   14  N3  UNL     1      21.186   6.115  49.567  1.00  0.00    -0.225 NA
HETATM   15  H8  UNL     1      20.319   4.547  47.986  1.00  0.00     0.161 HD
ENDROOT
BRANCH   1  16
HETATM   16  O1  UNL     1      25.004   3.449  51.442  1.00  0.00    -0.329 OA
BRANCH  16  17
HETATM   17  C5  UNL     1      25.358   2.176  51.853  1.00  0.00     0.074 A 
HETATM   18  C4  UNL     1      26.490   1.441  51.586  1.00  0.00     0.037 A 
HETATM   19  C3  UNL     1      26.667   0.171  52.092  1.00  0.00     0.006 A 
HETATM   20  C2  UNL     1      25.692  -0.393  52.888  1.00  0.00     0.042 A 
HETATM   21  C1  UNL     1      24.546   0.307  53.180  1.00  0.00     0.119 A 
HETATM   22  F1  UNL     1      23.661  -0.327  53.963  1.00  0.00    -0.206 F 
HETATM   23  C16 UNL     1      24.387   1.592  52.658  1.00  0.00     0.079 A 
ENDBRANCH  16  17
ENDBRANCH   1  16
TORSDOF 2
ENDMDL
MODEL 7
REMARK VINA RESULT:      -7.0      3.791      5.869
REMARK  2 active torsions:
REMARK  status: ('A' for Active; 'I' for Inactive)
REMARK    1  A    between atoms: C5_6  and  O1_7 
REMARK    2  A    between atoms: O1_7  and  C6_8 
ROOT
HETATM    1  C6  UNL     1      22.294   2.604  52.416  1.00  0.00     0.221 A 
HETATM    2  C7  UNL     1      23.820   2.806  52.535  1.00  0.00     0.055 A 
HETATM    3 CL1  UNL     1      23.199   1.781  51.187  1.00  0.00    -0.179 Cl
HETATM    4  C8  UNL     1      25.136   2.944  52.503  1.00  0.00     0.094 C 
HETATM    5  C9  UNL     1      25.729   2.647  51.142  1.00  0.00     0.128 C 
HETATM    6  N1  UNL     1      26.185   3.958  50.591  1.00  0.00    -0.374 N 
HETATM    7  C10 UNL     1      24.878   4.622  50.398  1.00  0.00     0.124 C 
HETATM    8  C11 UNL     1      24.077   5.122  51.407  1.00  0.00     0.051 C 
HETATM    9  C12 UNL     1      22.646   4.956  51.899  1.00  0.00     0.016 C 
HETATM   10  C13 UNL     1      22.083   3.794  51.423  1.00  0.00    -0.000 C 
HETATM   11  C14 UNL     1      21.446   3.491  50.113  1.00  0.00     0.128 C 
HETATM   12  N2  UNL     1      21.856   4.067  48.994  1.00  0.00    -0.253 NA
HETATM   13  C15 UNL     1      23.216   4.292  48.491  1.00  0.00     0.234 C 
HETATM   14  N3  UNL     1      24.312   4.780  49.062  1.00  0.00    -0.225 NA
HETATM   15  H8  UNL     1      26.408   4.898  50.202  1.00  0.00     0.161 HD
ENDROOT
BRANCH   1  16
HETATM   16  O1  UNL     1      21.947   1.399  51.921  1.00  0.00    -0.329 OA
BRANCH  16  17
HETATM   17  C5  UNL     1      21.578   0.325  52.713  1.00  0.00     0.074 A 
HETATM   18  C4  UNL     1      22.353  -0.546  53.444  1.00  0.00     0.037 A 
HETATM   19  C3  UNL     1      21.798  -1.568  54.182  1.00  0.00     0.006 A 
HETATM   20  C2  UNL     1      20.429  -1.738  54.198  1.00  0.00     0.042 A 
HETATM   21  C1  UNL     1      19.617  -0.891  53.482  1.00  0.00     0.119 A 
HETATM   22  F1  UNL     1      18.302  -1.140  53.564  1.00  0.00    -0.206 F 
HETATM   23  C16 UNL     1      20.200   0.139  52.742  1.00  0.00     0.079 A 
ENDBRANCH  16  17
ENDBRANCH   1  16
TORSDOF 2
ENDMDL
MODEL 8
REMARK VINA RESULT:      -7.0      8.791     11.599
REMARK  2 active torsions:
REMARK  status: ('A' for Active; 'I' for Inactive)
REMARK    1  A    between atoms: C5_6  and  O1_7 
REMARK    2  A    between atoms: O1_7  and  C6_8 
ROOT
HETATM    1  C6  UNL     1      30.605   5.814  48.501  1.00  0.00     0.221 A 
HETATM    2  C7  UNL     1      31.604   5.009  47.641  1.00  0.00     0.055 A 
HETATM    3 CL1  UNL     1      30.723   6.379  46.865  1.00  0.00    -0.179 Cl
HETATM    4  C8  UNL     1      32.464   4.429  46.819  1.00  0.00     0.094 C 
HETATM    5  C9  UNL     1      32.853   5.309  45.651  1.00  0.00     0.128 C 
HETATM    6  N1  UNL     1      34.273   5.709  45.884  1.00  0.00    -0.374 N 
HETATM    7  C10 UNL     1      34.105   6.563  47.079  1.00  0.00     0.124 C 
HETATM    8  C11 UNL     1      33.836   6.109  48.357  1.00  0.00     0.051 C 
HETATM    9  C12 UNL     1      32.790   6.338  49.439  1.00  0.00     0.016 C 
HETATM   10  C13 UNL     1      31.647   6.904  48.922  1.00  0.00    -0.000 C 
HETATM   11  C14 UNL     1      31.325   8.320  48.603  1.00  0.00     0.128 C 
HETATM   12  N2  UNL     1      32.254   9.165  48.183  1.00  0.00    -0.253 NA
HETATM   13  C15 UNL     1      33.309   8.985  47.180  1.00  0.00     0.234 C 
HETATM   14  N3  UNL     1      34.195   8.016  46.977  1.00  0.00    -0.225 NA
HETATM   15  H8  UNL     1      35.230   6.039  46.124  1.00  0.00     0.161 HD
ENDROOT
BRANCH   1  16
HETATM   16  O1  UNL     1      29.555   6.290  47.803  1.00  0.00    -0.329 OA
BRANCH  16  17
HETATM   17  C5  UNL     1      28.237   6.103  48.185  1.00  0.00     0.074 A 
HETATM   18  C4  UNL     1      27.179   6.983  48.178  1.00  0.00     0.037 A 
HETATM   19  C3  UNL     1      25.921   6.609  48.601  1.00  0.00     0.006 A 
HETATM   20  C2  UNL     1      25.702   5.323  49.048  1.00  0.00     0.042 A 
HETATM   21  C1  UNL     1      26.731   4.412  49.070  1.00  0.00     0.119 A 
HETATM   22  F1  UNL     1      26.414   3.189  49.520  1.00  0.00    -0.206 F 
HETATM   23  C16 UNL     1      27.996   4.811  48.637  1.00  0.00     0.079 A 
ENDBRANCH  16  17
ENDBRANCH   1  16
TORSDOF 2
ENDMDL
MODEL 9
REMARK VINA RESULT:      -7.0      3.375      5.054
REMARK  2 active torsions:
REMARK  status: ('A' for Active; 'I' for Inactive)
REMARK    1  A    between atoms: C5_6  and  O1_7 
REMARK    2  A    between atoms: O1_7  and  C6_8 
ROOT
HETATM    1  C6  UNL     1      21.119   2.906  52.086  1.00  0.00     0.221 A 
HETATM    2  C7  UNL     1      22.460   3.592  52.424  1.00  0.00     0.055 A 
HETATM    3 CL1  UNL     1      22.492   2.141  51.353  1.00  0.00    -0.179 Cl
HETATM    4  C8  UNL     1      23.662   4.119  52.601  1.00  0.00     0.094 C 
HETATM    5  C9  UNL     1      24.650   3.713  51.529  1.00  0.00     0.128 C 
HETATM    6  N1  UNL     1      24.899   4.934  50.707  1.00  0.00    -0.374 N 
HETATM    7  C10 UNL     1      23.570   5.097  50.081  1.00  0.00     0.124 C 
HETATM    8  C11 UNL     1      22.431   5.545  50.724  1.00  0.00     0.051 C 
HETATM    9  C12 UNL     1      21.008   5.064  50.964  1.00  0.00     0.016 C 
HETATM   10  C13 UNL     1      20.894   3.707  50.760  1.00  0.00    -0.000 C 
HETATM   11  C14 UNL     1      20.725   2.926  49.506  1.00  0.00     0.128 C 
HETATM   12  N2  UNL     1      21.264   3.323  48.364  1.00  0.00    -0.253 NA
HETATM   13  C15 UNL     1      22.609   3.835  48.083  1.00  0.00     0.234 C 
HETATM   14  N3  UNL     1      23.359   4.756  48.677  1.00  0.00    -0.225 NA
HETATM   15  H8  UNL     1      24.980   5.779  50.104  1.00  0.00     0.161 HD
ENDROOT
BRANCH   1  16
HETATM   16  O1  UNL     1      21.223   1.572  51.918  1.00  0.00    -0.329 OA
BRANCH  16  17
HETATM   17  C5  UNL     1      21.646   0.708  52.913  1.00  0.00     0.074 A 
HETATM   18  C4  UNL     1      20.975   0.225  54.013  1.00  0.00     0.037 A 
HETATM   19  C3  UNL     1      21.570  -0.640  54.905  1.00  0.00     0.006 A 
HETATM   20  C2  UNL     1      22.875  -1.040  54.706  1.00  0.00     0.042 A 
HETATM   21  C1  UNL     1      23.582  -0.583  53.620  1.00  0.00     0.119 A 
HETATM   22  F1  UNL     1      24.841  -1.032  53.515  1.00  0.00    -0.206 F 
HETATM   23  C16 UNL     1      22.960   0.292  52.728  1.00  0.00     0.079 A 
ENDBRANCH  16  17
ENDBRANCH   1  16
TORSDOF 2
ENDMDL
