MODEL 1
REMARK VINA RESULT:      -8.9      0.000      0.000
REMARK  3 active torsions:
REMARK  status: ('A' for Active; 'I' for Inactive)
REMARK    1  A    between atoms: C5_6  and  C6_7 
REMARK    2  A    between atoms: C6_7  and  C7_9 
REMARK    3  A    between atoms: C21_27  and  N6_28 
ROOT
HETATM    1  N1  UNL     1      28.771   7.832  48.416  1.00  0.00    -0.191 NA
HETATM    2  C1  UNL     1      27.940   7.045  48.583  1.00  0.00     0.099 C 
HETATM    3  C2  UNL     1      26.914   6.046  48.776  1.00  0.00     0.044 A 
HETATM    4  C3  UNL     1      27.172   4.739  49.127  1.00  0.00     0.023 A 
HETATM    5  C4  UNL     1      26.160   3.828  49.299  1.00  0.00     0.017 A 
HETATM    6  C5  UNL     1      24.854   4.245  49.112  1.00  0.00     0.011 A 
HETATM    7  C22 UNL     1      24.599   5.550  48.762  1.00  0.00     0.017 A 
HETATM    8  C23 UNL     1      25.621   6.486  48.585  1.00  0.00     0.023 A 
ENDROOT
BRANCH   6   9
HETATM    9  C6  UNL     1      23.808   3.253  49.302  1.00  0.00     0.180 C 
HETATM   10  O1  UNL     1      23.520   2.479  48.373  1.00  0.00    -0.291 OA
BRANCH   9  11
HETATM   11  C7  UNL     1      23.044   3.099  50.563  1.00  0.00     0.121 A 
HETATM   12  C8  UNL     1      23.583   3.778  51.702  1.00  0.00     0.027 A 
HETATM   13  C9  UNL     1      23.640   2.397  51.721  1.00  0.00     0.047 A 
HETATM   14  N2  UNL     1      23.948   1.115  52.253  1.00  0.00    -0.190 N 
HETATM   15  C10 UNL     1      23.055   0.321  53.018  1.00  0.00     0.727 A 
HETATM   16  H4  UNL     1      24.852   0.614  52.145  1.00  0.00     0.184 HD
HETATM   17  N3  UNL     1      23.354  -0.506  54.013  1.00  0.00    -0.075 NA
HETATM   18  N4  UNL     1      21.789   0.502  52.607  1.00  0.00    -0.062 NA
HETATM   19  C11 UNL     1      22.367  -1.183  54.627  1.00  0.00     0.139 A 
HETATM   20  C12 UNL     1      21.029  -1.072  54.283  1.00  0.00     0.053 A 
HETATM   21  C13 UNL     1      20.830  -0.190  53.243  1.00  0.00     0.089 A 
HETATM   22  C14 UNL     1      19.491   0.065  52.730  1.00  0.00     0.022 A 
HETATM   23  C15 UNL     1      18.687  -1.054  52.681  1.00  0.00     0.017 A 
HETATM   24  C18 UNL     1      19.086   1.315  52.332  1.00  0.00     0.068 A 
HETATM   25  C16 UNL     1      17.403  -0.801  52.184  1.00  0.00     0.020 A 
HETATM   26  C17 UNL     1      16.945   0.433  51.772  1.00  0.00     0.117 A 
HETATM   27  N5  UNL     1      17.831   1.465  51.866  1.00  0.00    -0.260 NA
HETATM   28  C19 UNL     1      20.019   2.416  52.433  1.00  0.00     0.030 C 
HETATM   29  C20 UNL     1      20.992   3.059  51.821  1.00  0.00     0.012 C 
HETATM   30  C21 UNL     1      21.587   2.781  50.493  1.00  0.00     0.266 C 
BRANCH  30  31
HETATM   31  N6  UNL     1      20.936   3.735  49.577  1.00  0.00     0.088 N 
HETATM   32  H13 UNL     1      21.429   3.623  48.661  1.00  0.00     0.313 HD
HETATM   33  H14 UNL     1      19.965   3.373  49.449  1.00  0.00     0.313 HD
ENDBRANCH  30  31
ENDBRANCH   9  11
ENDBRANCH   6   9
TORSDOF 3
ENDMDL
MODEL 2
REMARK VINA RESULT:      -8.8      3.151      7.007
REMARK  3 active torsions:
REMARK  status: ('A' for Active; 'I' for Inactive)
REMARK    1  A    between atoms: C5_6  and  C6_7 
REMARK    2  A    between atoms: C6_7  and  C7_9 
REMARK    3  A    between atoms: C21_27  and  N6_28 
ROOT
HETATM    1  N1  UNL     1      30.501  -0.381  53.497  1.00  0.00    -0.191 NA
HETATM    2  C1  UNL     1      29.353  -0.237  53.454  1.00  0.00     0.099 C 
HETATM    3  C2  UNL     1      27.924  -0.040  53.381  1.00  0.00     0.044 A 
HETATM    4  C3  UNL     1      27.207  -0.050  52.205  1.00  0.00     0.023 A 
HETATM    5  C4  UNL     1      25.847   0.142  52.190  1.00  0.00     0.017 A 
HETATM    6  C5  UNL     1      25.194   0.350  53.392  1.00  0.00     0.011 A 
HETATM    7  C22 UNL     1      25.913   0.359  54.565  1.00  0.00     0.017 A 
HETATM    8  C23 UNL     1      27.296   0.164  54.592  1.00  0.00     0.023 A 
ENDROOT
BRANCH   6   9
HETATM    9  C6  UNL     1      23.756   0.551  53.338  1.00  0.00     0.180 C 
HETATM   10  O1  UNL     1      22.999  -0.295  53.844  1.00  0.00    -0.291 OA
BRANCH   9  11
HETATM   11  C7  UNL     1      23.115   1.728  52.704  1.00  0.00     0.121 A 
HETATM   12  C8  UNL     1      21.687   1.781  52.792  1.00  0.00     0.027 A 
HETATM   13  C9  UNL     1      22.222   1.559  51.536  1.00  0.00     0.047 A 
HETATM   14  N2  UNL     1      22.197   1.326  50.134  1.00  0.00    -0.190 N 
HETATM   15  C10 UNL     1      22.276   2.341  49.145  1.00  0.00     0.727 A 
HETATM   16  H4  UNL     1      22.118   0.398  49.674  1.00  0.00     0.184 HD
HETATM   17  N3  UNL     1      21.691   2.360  47.953  1.00  0.00    -0.075 NA
HETATM   18  N4  UNL     1      23.059   3.350  49.563  1.00  0.00    -0.062 NA
HETATM   19  C11 UNL     1      21.885   3.414  47.140  1.00  0.00     0.139 A 
HETATM   20  C12 UNL     1      22.671   4.506  47.471  1.00  0.00     0.053 A 
HETATM   21  C13 UNL     1      23.230   4.385  48.725  1.00  0.00     0.089 A 
HETATM   22  C14 UNL     1      24.093   5.429  49.258  1.00  0.00     0.022 A 
HETATM   23  C15 UNL     1      24.931   5.996  48.321  1.00  0.00     0.017 A 
HETATM   24  C18 UNL     1      24.063   5.798  50.581  1.00  0.00     0.068 A 
HETATM   25  C16 UNL     1      25.761   6.996  48.843  1.00  0.00     0.020 A 
HETATM   26  C17 UNL     1      25.771   7.405  50.160  1.00  0.00     0.117 A 
HETATM   27  N5  UNL     1      24.899   6.772  50.993  1.00  0.00    -0.260 NA
HETATM   28  C19 UNL     1      23.138   5.132  51.471  1.00  0.00     0.030 C 
HETATM   29  C20 UNL     1      22.963   4.088  52.253  1.00  0.00     0.012 C 
HETATM   30  C21 UNL     1      23.907   2.982  52.538  1.00  0.00     0.266 C 
BRANCH  30  31
HETATM   31  N6  UNL     1      24.522   3.331  53.832  1.00  0.00     0.088 N 
HETATM   32  H13 UNL     1      25.549   3.393  53.644  1.00  0.00     0.313 HD
HETATM   33  H14 UNL     1      24.190   4.298  54.041  1.00  0.00     0.313 HD
ENDBRANCH  30  31
ENDBRANCH   9  11
ENDBRANCH   6   9
TORSDOF 3
ENDMDL
MODEL 3
REMARK VINA RESULT:      -8.8      3.284      5.718
REMARK  3 active torsions:
REMARK  status: ('A' for Active; 'I' for Inactive)
REMARK    1  A    between atoms: C5_6  and  C6_7 
REMARK    2  A    between atoms: C6_7  and  C7_9 
REMARK    3  A    between atoms: C21_27  and  N6_28 
ROOT
HETATM    1  N1  UNL     1      21.813   8.223  44.694  1.00  0.00    -0.191 NA
HETATM    2  C1  UNL     1      22.164   7.724  45.677  1.00  0.00     0.099 C 
HETATM    3  C2  UNL     1      22.620   7.086  46.891  1.00  0.00     0.044 A 
HETATM    4  C3  UNL     1      23.944   6.997  47.259  1.00  0.00     0.023 A 
HETATM    5  C4  UNL     1      24.326   6.380  48.425  1.00  0.00     0.017 A 
HETATM    6  C5  UNL     1      23.346   5.839  49.240  1.00  0.00     0.011 A 
HETATM    7  C22 UNL     1      22.025   5.931  48.869  1.00  0.00     0.017 A 
HETATM    8  C23 UNL     1      21.626   6.556  47.686  1.00  0.00     0.023 A 
ENDROOT
BRANCH   6   9
HETATM    9  C6  UNL     1      23.787   5.194  50.466  1.00  0.00     0.180 C 
HETATM   10  O1  UNL     1      23.824   5.845  51.524  1.00  0.00    -0.291 OA
BRANCH   9  11
HETATM   11  C7  UNL     1      24.204   3.773  50.540  1.00  0.00     0.121 A 
HETATM   12  C8  UNL     1      23.573   2.891  49.605  1.00  0.00     0.027 A 
HETATM   13  C9  UNL     1      23.236   2.726  50.936  1.00  0.00     0.047 A 
HETATM   14  N2  UNL     1      22.567   2.142  52.046  1.00  0.00    -0.190 N 
HETATM   15  C10 UNL     1      23.089   1.091  52.844  1.00  0.00     0.727 A 
HETATM   16  H4  UNL     1      21.628   2.413  52.400  1.00  0.00     0.184 HD
HETATM   17  N3  UNL     1      22.416   0.113  53.438  1.00  0.00    -0.075 NA
HETATM   18  N4  UNL     1      24.425   1.192  52.946  1.00  0.00    -0.062 NA
HETATM   19  C11 UNL     1      23.086  -0.802  54.163  1.00  0.00     0.139 A 
HETATM   20  C12 UNL     1      24.461  -0.792  54.333  1.00  0.00     0.053 A 
HETATM   21  C13 UNL     1      25.059   0.262  53.677  1.00  0.00     0.089 A 
HETATM   22  C14 UNL     1      26.502   0.451  53.734  1.00  0.00     0.022 A 
HETATM   23  C15 UNL     1      27.056   0.167  54.965  1.00  0.00     0.017 A 
HETATM   24  C18 UNL     1      27.227   0.878  52.650  1.00  0.00     0.068 A 
HETATM   25  C16 UNL     1      28.442   0.355  55.013  1.00  0.00     0.020 A 
HETATM   26  C17 UNL     1      29.218   0.781  53.955  1.00  0.00     0.117 A 
HETATM   27  N5  UNL     1      28.559   1.030  52.789  1.00  0.00    -0.260 NA
HETATM   28  C19 UNL     1      26.536   1.142  51.407  1.00  0.00     0.030 C 
HETATM   29  C20 UNL     1      25.873   2.047  50.718  1.00  0.00     0.012 C 
HETATM   30  C21 UNL     1      25.545   3.440  51.103  1.00  0.00     0.266 C 
BRANCH  30  31
HETATM   31  N6  UNL     1      26.562   4.270  50.431  1.00  0.00     0.088 N 
HETATM   32  H13 UNL     1      27.300   3.602  50.110  1.00  0.00     0.313 HD
HETATM   33  H14 UNL     1      26.092   4.640  49.576  1.00  0.00     0.313 HD
ENDBRANCH  30  31
ENDBRANCH   9  11
ENDBRANCH   6   9
TORSDOF 3
ENDMDL
MODEL 4
REMARK VINA RESULT:      -8.7      3.810      6.915
REMARK  3 active torsions:
REMARK  status: ('A' for Active; 'I' for Inactive)
REMARK    1  A    between atoms: C5_6  and  C6_7 
REMARK    2  A    between atoms: C6_7  and  C7_9 
REMARK    3  A    between atoms: C21_27  and  N6_28 
ROOT
HETATM    1  N1  UNL     1      30.291  -1.633  53.856  1.00  0.00    -0.191 NA
HETATM    2  C1  UNL     1      29.412  -0.928  53.593  1.00  0.00     0.099 C 
HETATM    3  C2  UNL     1      28.313  -0.058  53.240  1.00  0.00     0.044 A 
HETATM    4  C3  UNL     1      27.129  -0.502  52.693  1.00  0.00     0.023 A 
HETATM    5  C4  UNL     1      26.114   0.367  52.376  1.00  0.00     0.017 A 
HETATM    6  C5  UNL     1      26.298   1.717  52.614  1.00  0.00     0.011 A 
HETATM    7  C22 UNL     1      27.482   2.157  53.161  1.00  0.00     0.017 A 
HETATM    8  C23 UNL     1      28.521   1.282  53.488  1.00  0.00     0.023 A 
ENDROOT
BRANCH   6   9
HETATM    9  C6  UNL     1      25.203   2.607  52.265  1.00  0.00     0.180 C 
HETATM   10  O1  UNL     1      24.449   3.032  53.157  1.00  0.00    -0.291 OA
BRANCH   9  11
HETATM   11  C7  UNL     1      24.920   3.054  50.880  1.00  0.00     0.121 A 
HETATM   12  C8  UNL     1      26.010   2.947  49.959  1.00  0.00     0.027 A 
HETATM   13  C9  UNL     1      25.621   4.226  50.311  1.00  0.00     0.047 A 
HETATM   14  N2  UNL     1      25.662   5.647  50.305  1.00  0.00    -0.190 N 
HETATM   15  C10 UNL     1      24.886   6.475  49.452  1.00  0.00     0.727 A 
HETATM   16  H4  UNL     1      26.258   6.240  50.915  1.00  0.00     0.184 HD
HETATM   17  N3  UNL     1      25.228   7.646  48.927  1.00  0.00    -0.075 NA
HETATM   18  N4  UNL     1      23.687   5.918  49.214  1.00  0.00    -0.062 NA
HETATM   19  C11 UNL     1      24.353   8.294  48.136  1.00  0.00     0.139 A 
HETATM   20  C12 UNL     1      23.092   7.811  47.826  1.00  0.00     0.053 A 
HETATM   21  C13 UNL     1      22.841   6.593  48.420  1.00  0.00     0.089 A 
HETATM   22  C14 UNL     1      21.567   5.917  48.219  1.00  0.00     0.022 A 
HETATM   23  C15 UNL     1      20.480   6.766  48.192  1.00  0.00     0.017 A 
HETATM   24  C18 UNL     1      21.476   4.554  48.076  1.00  0.00     0.068 A 
HETATM   25  C16 UNL     1      19.259   6.108  48.002  1.00  0.00     0.020 A 
HETATM   26  C17 UNL     1      19.112   4.745  47.852  1.00  0.00     0.117 A 
HETATM   27  N5  UNL     1      20.258   4.008  47.897  1.00  0.00    -0.260 NA
HETATM   28  C19 UNL     1      22.688   3.766  48.120  1.00  0.00     0.030 C 
HETATM   29  C20 UNL     1      23.539   3.146  48.910  1.00  0.00     0.012 C 
HETATM   30  C21 UNL     1      23.511   3.038  50.388  1.00  0.00     0.266 C 
BRANCH  30  31
HETATM   31  N6  UNL     1      22.928   1.711  50.660  1.00  0.00     0.088 N 
HETATM   32  H13 UNL     1      22.844   1.651  51.701  1.00  0.00     0.313 HD
HETATM   33  H14 UNL     1      21.957   1.755  50.277  1.00  0.00     0.313 HD
ENDBRANCH  30  31
ENDBRANCH   9  11
ENDBRANCH   6   9
TORSDOF 3
ENDMDL
MODEL 5
REMARK VINA RESULT:      -8.6      2.943      8.655
REMARK  3 active torsions:
REMARK  status: ('A' for Active; 'I' for Inactive)
REMARK    1  A    between atoms: C5_6  and  C6_7 
REMARK    2  A    between atoms: C6_7  and  C7_9 
REMARK    3  A    between atoms: C21_27  and  N6_28 
ROOT
HETATM    1  N1  UNL     1      22.292  -2.016  55.334  1.00  0.00    -0.191 NA
HETATM    2  C1  UNL     1      22.445  -1.179  54.548  1.00  0.00     0.099 C 
HETATM    3  C2  UNL     1      22.649  -0.121  53.586  1.00  0.00     0.044 A 
HETATM    4  C3  UNL     1      23.875   0.447  53.319  1.00  0.00     0.023 A 
HETATM    5  C4  UNL     1      24.016   1.451  52.393  1.00  0.00     0.017 A 
HETATM    6  C5  UNL     1      22.891   1.894  51.720  1.00  0.00     0.011 A 
HETATM    7  C22 UNL     1      21.668   1.324  51.988  1.00  0.00     0.017 A 
HETATM    8  C23 UNL     1      21.513   0.301  52.927  1.00  0.00     0.023 A 
ENDROOT
BRANCH   6   9
HETATM    9  C6  UNL     1      23.077   2.958  50.747  1.00  0.00     0.180 C 
HETATM   10  O1  UNL     1      23.248   2.673  49.550  1.00  0.00    -0.291 OA
BRANCH   9  11
HETATM   11  C7  UNL     1      23.075   4.399  51.098  1.00  0.00     0.121 A 
HETATM   12  C8  UNL     1      22.430   4.736  52.331  1.00  0.00     0.027 A 
HETATM   13  C9  UNL     1      21.804   5.152  51.170  1.00  0.00     0.047 A 
HETATM   14  N2  UNL     1      20.796   5.781  50.389  1.00  0.00    -0.190 N 
HETATM   15  C10 UNL     1      20.848   7.122  49.929  1.00  0.00     0.727 A 
HETATM   16  H4  UNL     1      19.913   5.338  50.067  1.00  0.00     0.184 HD
HETATM   17  N3  UNL     1      19.834   7.963  49.761  1.00  0.00    -0.075 NA
HETATM   18  N4  UNL     1      22.114   7.482  49.659  1.00  0.00    -0.062 NA
HETATM   19  C11 UNL     1      20.075   9.206  49.309  1.00  0.00     0.139 A 
HETATM   20  C12 UNL     1      21.341   9.680  49.001  1.00  0.00     0.053 A 
HETATM   21  C13 UNL     1      22.318   8.730  49.210  1.00  0.00     0.089 A 
HETATM   22  C14 UNL     1      23.717   9.032  48.942  1.00  0.00     0.022 A 
HETATM   23  C15 UNL     1      23.918   9.809  47.821  1.00  0.00     0.017 A 
HETATM   24  C18 UNL     1      24.731   8.570  49.745  1.00  0.00     0.068 A 
HETATM   25  C16 UNL     1      25.266  10.091  47.568  1.00  0.00     0.020 A 
HETATM   26  C17 UNL     1      26.321   9.654  48.341  1.00  0.00     0.117 A 
HETATM   27  N5  UNL     1      26.000   8.892  49.424  1.00  0.00    -0.260 NA
HETATM   28  C19 UNL     1      24.397   7.764  50.898  1.00  0.00     0.030 C 
HETATM   29  C20 UNL     1      24.152   6.541  51.320  1.00  0.00     0.012 C 
HETATM   30  C21 UNL     1      24.138   5.283  50.537  1.00  0.00     0.266 C 
BRANCH  30  31
HETATM   31  N6  UNL     1      25.453   4.664  50.789  1.00  0.00     0.088 N 
HETATM   32  H13 UNL     1      25.475   4.465  51.816  1.00  0.00     0.313 HD
HETATM   33  H14 UNL     1      25.420   3.742  50.300  1.00  0.00     0.313 HD
ENDBRANCH  30  31
ENDBRANCH   9  11
ENDBRANCH   6   9
TORSDOF 3
ENDMDL
MODEL 6
REMARK VINA RESULT:      -8.6      1.757      3.746
REMARK  3 active torsions:
REMARK  status: ('A' for Active; 'I' for Inactive)
REMARK    1  A    between atoms: C5_6  and  C6_7 
REMARK    2  A    between atoms: C6_7  and  C7_9 
REMARK    3  A    between atoms: C21_27  and  N6_28 
ROOT
HETATM    1  N1  UNL     1      29.380   8.090  46.380  1.00  0.00    -0.191 NA
HETATM    2  C1  UNL     1      28.580   7.678  47.108  1.00  0.00     0.099 C 
HETATM    3  C2  UNL     1      27.577   7.143  48.000  1.00  0.00     0.044 A 
HETATM    4  C3  UNL     1      27.507   5.818  48.369  1.00  0.00     0.023 A 
HETATM    5  C4  UNL     1      26.532   5.360  49.222  1.00  0.00     0.017 A 
HETATM    6  C5  UNL     1      25.604   6.262  49.712  1.00  0.00     0.011 A 
HETATM    7  C22 UNL     1      25.677   7.584  49.342  1.00  0.00     0.017 A 
HETATM    8  C23 UNL     1      26.664   8.061  48.476  1.00  0.00     0.023 A 
ENDROOT
BRANCH   6   9
HETATM    9  C6  UNL     1      24.587   5.742  50.611  1.00  0.00     0.180 C 
HETATM   10  O1  UNL     1      24.289   6.380  51.636  1.00  0.00    -0.291 OA
BRANCH   9  11
HETATM   11  C7  UNL     1      23.862   4.469  50.380  1.00  0.00     0.121 A 
HETATM   12  C8  UNL     1      23.495   4.201  49.023  1.00  0.00     0.027 A 
HETATM   13  C9  UNL     1      22.463   4.479  49.899  1.00  0.00     0.047 A 
HETATM   14  N2  UNL     1      21.113   4.679  50.298  1.00  0.00    -0.190 N 
HETATM   15  C10 UNL     1      20.270   3.670  50.833  1.00  0.00     0.727 A 
HETATM   16  H4  UNL     1      20.590   5.575  50.245  1.00  0.00     0.184 HD
HETATM   17  N3  UNL     1      18.958   3.540  50.674  1.00  0.00    -0.075 NA
HETATM   18  N4  UNL     1      20.981   2.801  51.570  1.00  0.00    -0.062 NA
HETATM   19  C11 UNL     1      18.321   2.513  51.265  1.00  0.00     0.139 A 
HETATM   20  C12 UNL     1      18.957   1.560  52.045  1.00  0.00     0.053 A 
HETATM   21  C13 UNL     1      20.312   1.788  52.144  1.00  0.00     0.089 A 
HETATM   22  C14 UNL     1      21.160   0.898  52.924  1.00  0.00     0.022 A 
HETATM   23  C15 UNL     1      20.578   0.448  54.091  1.00  0.00     0.017 A 
HETATM   24  C18 UNL     1      22.426   0.553  52.519  1.00  0.00     0.068 A 
HETATM   25  C16 UNL     1      21.402  -0.404  54.837  1.00  0.00     0.020 A 
HETATM   26  C17 UNL     1      22.678  -0.782  54.476  1.00  0.00     0.117 A 
HETATM   27  N5  UNL     1      23.147  -0.274  53.302  1.00  0.00    -0.260 NA
HETATM   28  C19 UNL     1      22.930   1.086  51.273  1.00  0.00     0.030 C 
HETATM   29  C20 UNL     1      23.545   2.106  50.710  1.00  0.00     0.012 C 
HETATM   30  C21 UNL     1      24.040   3.348  51.349  1.00  0.00     0.266 C 
BRANCH  30  31
HETATM   31  N6  UNL     1      25.482   3.121  51.553  1.00  0.00     0.088 N 
HETATM   32  H13 UNL     1      25.640   2.110  51.336  1.00  0.00     0.313 HD
HETATM   33  H14 UNL     1      25.955   3.673  50.803  1.00  0.00     0.313 HD
ENDBRANCH  30  31
ENDBRANCH   9  11
ENDBRANCH   6   9
TORSDOF 3
ENDMDL
MODEL 7
REMARK VINA RESULT:      -8.5      2.579      8.900
REMARK  3 active torsions:
REMARK  status: ('A' for Active; 'I' for Inactive)
REMARK    1  A    between atoms: C5_6  and  C6_7 
REMARK    2  A    between atoms: C6_7  and  C7_9 
REMARK    3  A    between atoms: C21_27  and  N6_28 
ROOT
HETATM    1  N1  UNL     1      21.859  -2.017  53.872  1.00  0.00    -0.191 NA
HETATM    2  C1  UNL     1      22.153  -0.947  53.542  1.00  0.00     0.099 C 
HETATM    3  C2  UNL     1      22.507   0.385  53.108  1.00  0.00     0.044 A 
HETATM    4  C3  UNL     1      21.596   1.307  52.643  1.00  0.00     0.023 A 
HETATM    5  C4  UNL     1      21.985   2.562  52.243  1.00  0.00     0.017 A 
HETATM    6  C5  UNL     1      23.327   2.894  52.313  1.00  0.00     0.011 A 
HETATM    7  C22 UNL     1      24.233   1.971  52.778  1.00  0.00     0.017 A 
HETATM    8  C23 UNL     1      23.849   0.692  53.189  1.00  0.00     0.023 A 
ENDROOT
BRANCH   6   9
HETATM    9  C6  UNL     1      23.702   4.230  51.880  1.00  0.00     0.180 C 
HETATM   10  O1  UNL     1      23.703   5.164  52.701  1.00  0.00    -0.291 OA
BRANCH   9  11
HETATM   11  C7  UNL     1      24.094   4.562  50.489  1.00  0.00     0.121 A 
HETATM   12  C8  UNL     1      24.184   3.452  49.589  1.00  0.00     0.027 A 
HETATM   13  C9  UNL     1      25.373   4.068  49.932  1.00  0.00     0.047 A 
HETATM   14  N2  UNL     1      26.779   4.279  49.925  1.00  0.00    -0.190 N 
HETATM   15  C10 UNL     1      27.458   5.173  49.056  1.00  0.00     0.727 A 
HETATM   16  H4  UNL     1      27.467   3.810  50.546  1.00  0.00     0.184 HD
HETATM   17  N3  UNL     1      28.672   5.034  48.536  1.00  0.00    -0.075 NA
HETATM   18  N4  UNL     1      26.698   6.249  48.795  1.00  0.00    -0.062 NA
HETATM   19  C11 UNL     1      29.157   5.994  47.727  1.00  0.00     0.139 A 
HETATM   20  C12 UNL     1      28.458   7.143  47.393  1.00  0.00     0.053 A 
HETATM   21  C13 UNL     1      27.214   7.187  47.984  1.00  0.00     0.089 A 
HETATM   22  C14 UNL     1      26.323   8.316  47.759  1.00  0.00     0.022 A 
HETATM   23  C15 UNL     1      26.966   9.536  47.709  1.00  0.00     0.017 A 
HETATM   24  C18 UNL     1      24.966   8.161  47.616  1.00  0.00     0.068 A 
HETATM   25  C16 UNL     1      26.102  10.617  47.497  1.00  0.00     0.020 A 
HETATM   26  C17 UNL     1      24.735  10.517  47.346  1.00  0.00     0.117 A 
HETATM   27  N5  UNL     1      24.213   9.260  47.414  1.00  0.00    -0.260 NA
HETATM   28  C19 UNL     1      24.405   6.830  47.684  1.00  0.00     0.030 C 
HETATM   29  C20 UNL     1      23.944   5.898  48.492  1.00  0.00     0.012 C 
HETATM   30  C21 UNL     1      23.829   5.935  49.969  1.00  0.00     0.266 C 
BRANCH  30  31
HETATM   31  N6  UNL     1      22.420   6.279  50.232  1.00  0.00     0.088 N 
HETATM   32  H13 UNL     1      22.446   7.007  50.983  1.00  0.00     0.313 HD
HETATM   33  H14 UNL     1      22.086   6.750  49.362  1.00  0.00     0.313 HD
ENDBRANCH  30  31
ENDBRANCH   9  11
ENDBRANCH   6   9
TORSDOF 3
ENDMDL
MODEL 8
REMARK VINA RESULT:      -8.4      3.750      5.887
REMARK  3 active torsions:
REMARK  status: ('A' for Active; 'I' for Inactive)
REMARK    1  A    between atoms: C5_6  and  C6_7 
REMARK    2  A    between atoms: C6_7  and  C7_9 
REMARK    3  A    between atoms: C21_27  and  N6_28 
ROOT
HETATM    1  N1  UNL     1      28.092  -1.471  53.416  1.00  0.00    -0.191 NA
HETATM    2  C1  UNL     1      27.096  -0.925  53.193  1.00  0.00     0.099 C 
HETATM    3  C2  UNL     1      25.866  -0.219  52.918  1.00  0.00     0.044 A 
HETATM    4  C3  UNL     1      25.769   0.844  52.047  1.00  0.00     0.023 A 
HETATM    5  C4  UNL     1      24.573   1.480  51.820  1.00  0.00     0.017 A 
HETATM    6  C5  UNL     1      23.447   1.033  52.489  1.00  0.00     0.011 A 
HETATM    7  C22 UNL     1      23.547  -0.029  53.357  1.00  0.00     0.017 A 
HETATM    8  C23 UNL     1      24.758  -0.684  53.595  1.00  0.00     0.023 A 
ENDROOT
BRANCH   6   9
HETATM    9  C6  UNL     1      22.199   1.730  52.225  1.00  0.00     0.180 C 
HETATM   10  O1  UNL     1      22.066   2.911  52.591  1.00  0.00    -0.291 OA
BRANCH   9  11
HETATM   11  C7  UNL     1      21.045   1.111  51.529  1.00  0.00     0.121 A 
HETATM   12  C8  UNL     1      21.370   0.276  50.412  1.00  0.00     0.027 A 
HETATM   13  C9  UNL     1      20.733   1.470  50.128  1.00  0.00     0.047 A 
HETATM   14  N2  UNL     1      20.148   2.468  49.301  1.00  0.00    -0.190 N 
HETATM   15  C10 UNL     1      18.769   2.543  48.977  1.00  0.00     0.727 A 
HETATM   16  H4  UNL     1      20.655   3.250  48.842  1.00  0.00     0.184 HD
HETATM   17  N3  UNL     1      18.223   2.970  47.844  1.00  0.00    -0.075 NA
HETATM   18  N4  UNL     1      18.017   2.111  50.003  1.00  0.00    -0.062 NA
HETATM   19  C11 UNL     1      16.884   2.972  47.717  1.00  0.00     0.139 A 
HETATM   20  C12 UNL     1      16.017   2.548  48.711  1.00  0.00     0.053 A 
HETATM   21  C13 UNL     1      16.684   2.126  49.840  1.00  0.00     0.089 A 
HETATM   22  C14 UNL     1      15.950   1.644  51.001  1.00  0.00     0.022 A 
HETATM   23  C15 UNL     1      14.790   2.342  51.261  1.00  0.00     0.017 A 
HETATM   24  C18 UNL     1      16.393   0.588  51.760  1.00  0.00     0.068 A 
HETATM   25  C16 UNL     1      14.092   1.875  52.381  1.00  0.00     0.020 A 
HETATM   26  C17 UNL     1      14.491   0.820  53.176  1.00  0.00     0.117 A 
HETATM   27  N5  UNL     1      15.655   0.206  52.821  1.00  0.00    -0.260 NA
HETATM   28  C19 UNL     1      17.626  -0.070  51.388  1.00  0.00     0.030 C 
HETATM   29  C20 UNL     1      18.936  -0.049  51.515  1.00  0.00     0.012 C 
HETATM   30  C21 UNL     1      19.771   0.907  52.279  1.00  0.00     0.266 C 
BRANCH  30  31
HETATM   31  N6  UNL     1      20.072   0.220  53.548  1.00  0.00     0.088 N 
HETATM   32  H13 UNL     1      21.064   0.466  53.770  1.00  0.00     0.313 HD
HETATM   33  H14 UNL     1      19.473   0.690  54.263  1.00  0.00     0.313 HD
ENDBRANCH  30  31
ENDBRANCH   9  11
ENDBRANCH   6   9
TORSDOF 3
ENDMDL
MODEL 9
REMARK VINA RESULT:      -8.1      3.757      6.275
REMARK  3 active torsions:
REMARK  status: ('A' for Active; 'I' for Inactive)
REMARK    1  A    between atoms: C5_6  and  C6_7 
REMARK    2  A    between atoms: C6_7  and  C7_9 
REMARK    3  A    between atoms: C21_27  and  N6_28 
ROOT
HETATM    1  N1  UNL     1      18.371  10.743  47.315  1.00  0.00    -0.191 NA
HETATM    2  C1  UNL     1      19.236  10.184  47.843  1.00  0.00     0.099 C 
HETATM    3  C2  UNL     1      20.322   9.476  48.480  1.00  0.00     0.044 A 
HETATM    4  C3  UNL     1      21.624   9.501  48.028  1.00  0.00     0.023 A 
HETATM    5  C4  UNL     1      22.621   8.810  48.671  1.00  0.00     0.017 A 
HETATM    6  C5  UNL     1      22.297   8.073  49.797  1.00  0.00     0.011 A 
HETATM    7  C22 UNL     1      20.998   8.050  50.245  1.00  0.00     0.017 A 
HETATM    8  C23 UNL     1      19.975   8.749  49.600  1.00  0.00     0.023 A 
ENDROOT
BRANCH   6   9
HETATM    9  C6  UNL     1      23.378   7.354  50.450  1.00  0.00     0.180 C 
HETATM   10  O1  UNL     1      24.146   7.962  51.216  1.00  0.00    -0.291 OA
BRANCH   9  11
HETATM   11  C7  UNL     1      23.632   5.905  50.260  1.00  0.00     0.121 A 
HETATM   12  C8  UNL     1      22.931   5.290  49.173  1.00  0.00     0.027 A 
HETATM   13  C9  UNL     1      22.542   4.922  50.447  1.00  0.00     0.047 A 
HETATM   14  N2  UNL     1      21.780   4.224  51.424  1.00  0.00    -0.190 N 
HETATM   15  C10 UNL     1      22.159   2.990  52.014  1.00  0.00     0.727 A 
HETATM   16  H4  UNL     1      20.869   4.531  51.816  1.00  0.00     0.184 HD
HETATM   17  N3  UNL     1      21.364   2.003  52.411  1.00  0.00    -0.075 NA
HETATM   18  N4  UNL     1      23.494   2.915  52.142  1.00  0.00    -0.062 NA
HETATM   19  C11 UNL     1      21.906   0.899  52.956  1.00  0.00     0.139 A 
HETATM   20  C12 UNL     1      23.268   0.719  53.135  1.00  0.00     0.053 A 
HETATM   21  C13 UNL     1      23.999   1.799  52.690  1.00  0.00     0.089 A 
HETATM   22  C14 UNL     1      25.452   1.806  52.792  1.00  0.00     0.022 A 
HETATM   23  C15 UNL     1      25.936   1.238  53.951  1.00  0.00     0.017 A 
HETATM   24  C18 UNL     1      26.251   2.340  51.811  1.00  0.00     0.068 A 
HETATM   25  C16 UNL     1      27.333   1.252  54.043  1.00  0.00     0.020 A 
HETATM   26  C17 UNL     1      28.180   1.774  53.088  1.00  0.00     0.117 A 
HETATM   27  N5  UNL     1      27.587   2.310  51.985  1.00  0.00    -0.260 NA
HETATM   28  C19 UNL     1      25.628   2.908  50.635  1.00  0.00     0.030 C 
HETATM   29  C20 UNL     1      25.091   3.996  50.123  1.00  0.00     0.012 C 
HETATM   30  C21 UNL     1      24.911   5.321  50.760  1.00  0.00     0.266 C 
BRANCH  30  31
HETATM   31  N6  UNL     1      26.033   6.138  50.261  1.00  0.00     0.088 N 
HETATM   32  H13 UNL     1      26.688   5.463  49.805  1.00  0.00     0.313 HD
HETATM   33  H14 UNL     1      25.625   6.729  49.503  1.00  0.00     0.313 HD
ENDBRANCH  30  31
ENDBRANCH   9  11
ENDBRANCH   6   9
TORSDOF 3
ENDMDL
