MODEL 1
REMARK VINA RESULT:      -7.1      0.000      0.000
REMARK  9 active torsions:
REMARK  status: ('A' for Active; 'I' for Inactive)
REMARK    1  A    between atoms: O1_2  and  C2_3 
REMARK    2  A    between atoms: C5_6  and  O2_7 
REMARK    3  A    between atoms: O2_7  and  C6_8 
REMARK    4  A    between atoms: C6_8  and  C7_9 
REMARK    5  A    between atoms: C12_16  and  O3_17 
REMARK    6  A    between atoms: O3_17  and  C13_18 
REMARK    7  A    between atoms: C13_18  and  C14_19 
REMARK    8  A    between atoms: C14_19  and  C15_20 
REMARK    9  A    between atoms: C15_20  and  N2_21 
ROOT
HETATM    1  C2  UNL     1      22.587   2.470  52.148  1.00  0.00     0.102 A 
HETATM    2  C3  UNL     1      21.489   1.669  52.355  1.00  0.00     0.056 A 
HETATM    3  C4  UNL     1      21.448   0.478  53.058  1.00  0.00     0.029 A 
HETATM    4  C5  UNL     1      20.311  -0.324  53.258  1.00  0.00     0.082 A 
HETATM    5  C8  UNL     1      20.616  -1.437  53.999  1.00  0.00     0.057 A 
HETATM    6  C9  UNL     1      21.820  -1.826  54.529  1.00  0.00     0.120 A 
HETATM    7  N1  UNL     1      22.841  -0.994  54.284  1.00  0.00    -0.260 NA
HETATM    8  C10 UNL     1      22.707   0.139  53.572  1.00  0.00     0.072 A 
HETATM    9  C11 UNL     1      23.863   0.867  53.422  1.00  0.00     0.072 A 
HETATM   10  C12 UNL     1      23.772   2.036  52.701  1.00  0.00     0.104 A 
ENDROOT
BRANCH  10  11
HETATM   11  O3  UNL     1      24.884   2.839  52.496  1.00  0.00    -0.348 OA
BRANCH  11  12
HETATM   12  C13 UNL     1      25.554   2.749  51.262  1.00  0.00     0.177 C 
BRANCH  12  13
HETATM   13  C14 UNL     1      26.676   1.727  51.307  1.00  0.00     0.046 C 
BRANCH  13  14
HETATM   14  C15 UNL     1      27.387   1.949  52.648  1.00  0.00     0.119 C 
BRANCH  14  15
HETATM   15  N2  UNL     1      27.970   0.739  53.071  1.00  0.00    -0.412 N 
HETATM   16  C16 UNL     1      27.122  -0.345  53.406  1.00  0.00     0.117 C 
HETATM   17  C17 UNL     1      27.801  -1.595  52.926  1.00  0.00     0.019 C 
HETATM   18  C18 UNL     1      29.241  -1.717  53.238  1.00  0.00     0.003 C 
HETATM   19  C19 UNL     1      29.972  -0.531  53.720  1.00  0.00     0.019 C 
HETATM   20  C20 UNL     1      29.255   0.775  53.662  1.00  0.00     0.117 C 
ENDBRANCH  14  15
ENDBRANCH  13  14
ENDBRANCH  12  13
ENDBRANCH  11  12
ENDBRANCH  10  11
BRANCH   1  21
HETATM   21  O1  UNL     1      22.486   3.644  51.420  1.00  0.00    -0.353 OA
HETATM   22  C1  UNL     1      21.728   4.703  51.971  1.00  0.00     0.210 C 
ENDBRANCH   1  21
BRANCH   4  23
HETATM   23  O2  UNL     1      19.269   0.241  52.660  1.00  0.00    -0.348 OA
BRANCH  23  24
HETATM   24  C6  UNL     1      18.323  -0.249  51.811  1.00  0.00     0.207 C 
BRANCH  24  25
HETATM   25  C7  UNL     1      18.251   0.521  50.523  1.00  0.00     0.248 C 
HETATM   26  F1  UNL     1      19.403   0.692  49.847  1.00  0.00    -0.253 F 
ENDBRANCH  24  25
ENDBRANCH  23  24
ENDBRANCH   4  23
TORSDOF 9
ENDMDL
MODEL 2
REMARK VINA RESULT:      -7.0      3.466      7.441
REMARK  9 active torsions:
REMARK  status: ('A' for Active; 'I' for Inactive)
REMARK    1  A    between atoms: O1_2  and  C2_3 
REMARK    2  A    between atoms: C5_6  and  O2_7 
REMARK    3  A    between atoms: O2_7  and  C6_8 
REMARK    4  A    between atoms: C6_8  and  C7_9 
REMARK    5  A    between atoms: C12_16  and  O3_17 
REMARK    6  A    between atoms: O3_17  and  C13_18 
REMARK    7  A    between atoms: C13_18  and  C14_19 
REMARK    8  A    between atoms: C14_19  and  C15_20 
REMARK    9  A    between atoms: C15_20  and  N2_21 
ROOT
HETATM    1  C2  UNL     1      23.228  -0.312  53.575  1.00  0.00     0.102 A 
HETATM    2  C3  UNL     1      24.586  -0.113  53.667  1.00  0.00     0.056 A 
HETATM    3  C4  UNL     1      25.352   0.757  52.912  1.00  0.00     0.029 A 
HETATM    4  C5  UNL     1      26.741   0.945  53.025  1.00  0.00     0.082 A 
HETATM    5  C8  UNL     1      27.187   1.881  52.127  1.00  0.00     0.057 A 
HETATM    6  C9  UNL     1      26.480   2.602  51.200  1.00  0.00     0.120 A 
HETATM    7  N1  UNL     1      25.164   2.352  51.171  1.00  0.00    -0.260 NA
HETATM    8  C10 UNL     1      24.571   1.461  51.986  1.00  0.00     0.072 A 
HETATM    9  C11 UNL     1      23.213   1.336  51.814  1.00  0.00     0.072 A 
HETATM   10  C12 UNL     1      22.565   0.437  52.629  1.00  0.00     0.104 A 
ENDROOT
BRANCH  10  11
HETATM   11  O3  UNL     1      21.195   0.241  52.531  1.00  0.00    -0.348 OA
BRANCH  11  12
HETATM   12  C13 UNL     1      20.355   1.370  52.575  1.00  0.00     0.177 C 
BRANCH  12  13
HETATM   13  C14 UNL     1      19.398   1.401  51.397  1.00  0.00     0.046 C 
BRANCH  13  14
HETATM   14  C15 UNL     1      19.518   2.810  50.800  1.00  0.00     0.119 C 
BRANCH  14  15
HETATM   15  N2  UNL     1      20.513   2.810  49.804  1.00  0.00    -0.412 N 
HETATM   16  C16 UNL     1      20.989   4.052  49.319  1.00  0.00     0.117 C 
HETATM   17  C17 UNL     1      22.463   3.890  49.078  1.00  0.00     0.019 C 
HETATM   18  C18 UNL     1      22.878   2.660  48.370  1.00  0.00     0.003 C 
HETATM   19  C19 UNL     1      21.905   1.565  48.205  1.00  0.00     0.019 C 
HETATM   20  C20 UNL     1      20.619   1.686  48.952  1.00  0.00     0.117 C 
ENDBRANCH  14  15
ENDBRANCH  13  14
ENDBRANCH  12  13
ENDBRANCH  11  12
ENDBRANCH  10  11
BRANCH   1  21
HETATM   21  O1  UNL     1      22.584  -1.221  54.398  1.00  0.00    -0.353 OA
HETATM   22  C1  UNL     1      23.190  -1.541  55.636  1.00  0.00     0.210 C 
ENDBRANCH   1  21
BRANCH   4  23
HETATM   23  O2  UNL     1      27.212   0.148  53.977  1.00  0.00    -0.348 OA
BRANCH  23  24
HETATM   24  C6  UNL     1      28.419   0.085  54.605  1.00  0.00     0.207 C 
BRANCH  24  25
HETATM   25  C7  UNL     1      29.431  -0.709  53.828  1.00  0.00     0.248 C 
HETATM   26  F1  UNL     1      30.534  -0.057  53.416  1.00  0.00    -0.253 F 
ENDBRANCH  24  25
ENDBRANCH  23  24
ENDBRANCH   4  23
TORSDOF 9
ENDMDL
MODEL 3
REMARK VINA RESULT:      -6.8      4.590      7.563
REMARK  9 active torsions:
REMARK  status: ('A' for Active; 'I' for Inactive)
REMARK    1  A    between atoms: O1_2  and  C2_3 
REMARK    2  A    between atoms: C5_6  and  O2_7 
REMARK    3  A    between atoms: O2_7  and  C6_8 
REMARK    4  A    between atoms: C6_8  and  C7_9 
REMARK    5  A    between atoms: C12_16  and  O3_17 
REMARK    6  A    between atoms: O3_17  and  C13_18 
REMARK    7  A    between atoms: C13_18  and  C14_19 
REMARK    8  A    between atoms: C14_19  and  C15_20 
REMARK    9  A    between atoms: C15_20  and  N2_21 
ROOT
HETATM    1  C2  UNL     1      24.490   5.100  49.456  1.00  0.00     0.102 A 
HETATM    2  C3  UNL     1      25.247   6.136  48.961  1.00  0.00     0.056 A 
HETATM    3  C4  UNL     1      26.591   6.101  48.634  1.00  0.00     0.029 A 
HETATM    4  C5  UNL     1      27.345   7.174  48.128  1.00  0.00     0.082 A 
HETATM    5  C8  UNL     1      28.648   6.803  47.910  1.00  0.00     0.057 A 
HETATM    6  C9  UNL     1      29.251   5.588  48.116  1.00  0.00     0.120 A 
HETATM    7  N1  UNL     1      28.447   4.631  48.599  1.00  0.00    -0.260 NA
HETATM    8  C10 UNL     1      27.146   4.835  48.867  1.00  0.00     0.072 A 
HETATM    9  C11 UNL     1      26.478   3.739  49.358  1.00  0.00     0.072 A 
HETATM   10  C12 UNL     1      25.142   3.902  49.644  1.00  0.00     0.104 A 
ENDROOT
BRANCH  10  11
HETATM   11  O3  UNL     1      24.384   2.853  50.142  1.00  0.00    -0.348 OA
BRANCH  11  12
HETATM   12  C13 UNL     1      24.307   2.689  51.538  1.00  0.00     0.177 C 
BRANCH  12  13
HETATM   13  C14 UNL     1      25.070   1.459  51.999  1.00  0.00     0.046 C 
BRANCH  13  14
HETATM   14  C15 UNL     1      25.832   1.890  53.259  1.00  0.00     0.119 C 
BRANCH  14  15
HETATM   15  N2  UNL     1      27.071   1.223  53.304  1.00  0.00    -0.412 N 
HETATM   16  C16 UNL     1      28.257   1.993  53.370  1.00  0.00     0.117 C 
HETATM   17  C17 UNL     1      29.205   1.258  54.275  1.00  0.00     0.019 C 
HETATM   18  C18 UNL     1      29.332  -0.196  54.043  1.00  0.00     0.003 C 
HETATM   19  C19 UNL     1      28.350  -0.872  53.176  1.00  0.00     0.019 C 
HETATM   20  C20 UNL     1      27.161  -0.078  52.754  1.00  0.00     0.117 C 
ENDBRANCH  14  15
ENDBRANCH  13  14
ENDBRANCH  12  13
ENDBRANCH  11  12
ENDBRANCH  10  11
BRANCH   1  21
HETATM   21  O1  UNL     1      23.145   5.274  49.743  1.00  0.00    -0.353 OA
HETATM   22  C1  UNL     1      22.250   5.428  48.659  1.00  0.00     0.210 C 
ENDBRANCH   1  21
BRANCH   4  23
HETATM   23  O2  UNL     1      26.563   8.240  48.013  1.00  0.00    -0.348 OA
BRANCH  23  24
HETATM   24  C6  UNL     1      26.548   9.439  48.659  1.00  0.00     0.207 C 
BRANCH  24  25
HETATM   25  C7  UNL     1      27.099   9.349  50.054  1.00  0.00     0.248 C 
HETATM   26  F1  UNL     1      28.436   9.435  50.190  1.00  0.00    -0.253 F 
ENDBRANCH  24  25
ENDBRANCH  23  24
ENDBRANCH   4  23
TORSDOF 9
ENDMDL
MODEL 4
REMARK VINA RESULT:      -6.8      3.189      8.076
REMARK  9 active torsions:
REMARK  status: ('A' for Active; 'I' for Inactive)
REMARK    1  A    between atoms: O1_2  and  C2_3 
REMARK    2  A    between atoms: C5_6  and  O2_7 
REMARK    3  A    between atoms: O2_7  and  C6_8 
REMARK    4  A    between atoms: C6_8  and  C7_9 
REMARK    5  A    between atoms: C12_16  and  O3_17 
REMARK    6  A    between atoms: O3_17  and  C13_18 
REMARK    7  A    between atoms: C13_18  and  C14_19 
REMARK    8  A    between atoms: C14_19  and  C15_20 
REMARK    9  A    between atoms: C15_20  and  N2_21 
ROOT
HETATM    1  C2  UNL     1      22.483   0.412  53.403  1.00  0.00     0.102 A 
HETATM    2  C3  UNL     1      23.829   0.218  53.194  1.00  0.00     0.056 A 
HETATM    3  C4  UNL     1      24.679   1.018  52.452  1.00  0.00     0.029 A 
HETATM    4  C5  UNL     1      26.054   0.800  52.254  1.00  0.00     0.082 A 
HETATM    5  C8  UNL     1      26.601   1.781  51.467  1.00  0.00     0.057 A 
HETATM    6  C9  UNL     1      25.999   2.872  50.894  1.00  0.00     0.120 A 
HETATM    7  N1  UNL     1      24.688   2.992  51.143  1.00  0.00    -0.260 NA
HETATM    8  C10 UNL     1      24.003   2.112  51.895  1.00  0.00     0.072 A 
HETATM    9  C11 UNL     1      22.666   2.395  52.042  1.00  0.00     0.072 A 
HETATM   10  C12 UNL     1      21.927   1.522  52.807  1.00  0.00     0.104 A 
ENDROOT
BRANCH  10  11
HETATM   11  O3  UNL     1      20.571   1.724  53.013  1.00  0.00    -0.348 OA
BRANCH  11  12
HETATM   12  C13 UNL     1      19.713   1.685  51.897  1.00  0.00     0.177 C 
BRANCH  12  13
HETATM   13  C14 UNL     1      19.352   0.259  51.519  1.00  0.00     0.046 C 
BRANCH  13  14
HETATM   14  C15 UNL     1      17.818   0.206  51.513  1.00  0.00     0.119 C 
BRANCH  14  15
HETATM   15  N2  UNL     1      17.388  -0.889  52.287  1.00  0.00    -0.412 N 
HETATM   16  C16 UNL     1      15.998  -1.112  52.436  1.00  0.00     0.117 C 
HETATM   17  C17 UNL     1      15.791  -2.600  52.421  1.00  0.00     0.019 C 
HETATM   18  C18 UNL     1      16.716  -3.396  53.254  1.00  0.00     0.003 C 
HETATM   19  C19 UNL     1      17.925  -2.752  53.798  1.00  0.00     0.019 C 
HETATM   20  C20 UNL     1      18.246  -1.384  53.297  1.00  0.00     0.117 C 
ENDBRANCH  14  15
ENDBRANCH  13  14
ENDBRANCH  12  13
ENDBRANCH  11  12
ENDBRANCH  10  11
BRANCH   1  21
HETATM   21  O1  UNL     1      21.746  -0.473  54.173  1.00  0.00    -0.353 OA
HETATM   22  C1  UNL     1      22.442  -1.290  55.094  1.00  0.00     0.210 C 
ENDBRANCH   1  21
BRANCH   4  23
HETATM   23  O2  UNL     1      26.416  -0.306  52.894  1.00  0.00    -0.348 OA
BRANCH  23  24
HETATM   24  C6  UNL     1      27.515  -1.103  52.794  1.00  0.00     0.207 C 
BRANCH  24  25
HETATM   25  C7  UNL     1      28.719  -0.513  53.474  1.00  0.00     0.248 C 
HETATM   26  F1  UNL     1      29.605  -1.374  54.007  1.00  0.00    -0.253 F 
ENDBRANCH  24  25
ENDBRANCH  23  24
ENDBRANCH   4  23
TORSDOF 9
ENDMDL
MODEL 5
REMARK VINA RESULT:      -6.7      2.978      6.861
REMARK  9 active torsions:
REMARK  status: ('A' for Active; 'I' for Inactive)
REMARK    1  A    between atoms: O1_2  and  C2_3 
REMARK    2  A    between atoms: C5_6  and  O2_7 
REMARK    3  A    between atoms: O2_7  and  C6_8 
REMARK    4  A    between atoms: C6_8  and  C7_9 
REMARK    5  A    between atoms: C12_16  and  O3_17 
REMARK    6  A    between atoms: O3_17  and  C13_18 
REMARK    7  A    between atoms: C13_18  and  C14_19 
REMARK    8  A    between atoms: C14_19  and  C15_20 
REMARK    9  A    between atoms: C15_20  and  N2_21 
ROOT
HETATM    1  C2  UNL     1      25.321   3.282  51.160  1.00  0.00     0.102 A 
HETATM    2  C3  UNL     1      26.085   2.278  51.705  1.00  0.00     0.056 A 
HETATM    3  C4  UNL     1      25.645   1.240  52.508  1.00  0.00     0.029 A 
HETATM    4  C5  UNL     1      26.447   0.223  53.054  1.00  0.00     0.082 A 
HETATM    5  C8  UNL     1      25.697  -0.648  53.802  1.00  0.00     0.057 A 
HETATM    6  C9  UNL     1      24.349  -0.638  54.056  1.00  0.00     0.120 A 
HETATM    7  N1  UNL     1      23.673   0.371  53.490  1.00  0.00    -0.260 NA
HETATM    8  C10 UNL     1      24.263   1.309  52.729  1.00  0.00     0.072 A 
HETATM    9  C11 UNL     1      23.413   2.268  52.232  1.00  0.00     0.072 A 
HETATM   10  C12 UNL     1      23.974   3.247  51.445  1.00  0.00     0.104 A 
ENDROOT
BRANCH  10  11
HETATM   11  O3  UNL     1      23.196   4.257  50.897  1.00  0.00    -0.348 OA
BRANCH  11  12
HETATM   12  C13 UNL     1      22.029   4.647  51.581  1.00  0.00     0.177 C 
BRANCH  12  13
HETATM   13  C14 UNL     1      20.883   4.918  50.622  1.00  0.00     0.046 C 
BRANCH  13  14
HETATM   14  C15 UNL     1      19.698   4.098  51.148  1.00  0.00     0.119 C 
BRANCH  14  15
HETATM   15  N2  UNL     1      19.944   2.730  50.928  1.00  0.00    -0.412 N 
HETATM   16  C16 UNL     1      20.010   2.256  49.595  1.00  0.00     0.117 C 
HETATM   17  C17 UNL     1      21.087   1.209  49.556  1.00  0.00     0.019 C 
HETATM   18  C18 UNL     1      21.068   0.213  50.648  1.00  0.00     0.003 C 
HETATM   19  C19 UNL     1      20.218   0.459  51.827  1.00  0.00     0.019 C 
HETATM   20  C20 UNL     1      19.587   1.805  51.938  1.00  0.00     0.117 C 
ENDBRANCH  14  15
ENDBRANCH  13  14
ENDBRANCH  12  13
ENDBRANCH  11  12
ENDBRANCH  10  11
BRANCH   1  21
HETATM   21  O1  UNL     1      25.894   4.266  50.369  1.00  0.00    -0.353 OA
HETATM   22  C1  UNL     1      26.811   3.863  49.370  1.00  0.00     0.210 C 
ENDBRANCH   1  21
BRANCH   4  23
HETATM   23  O2  UNL     1      27.707   0.413  52.681  1.00  0.00    -0.348 OA
BRANCH  23  24
HETATM   24  C6  UNL     1      28.875   0.442  53.380  1.00  0.00     0.207 C 
BRANCH  24  25
HETATM   25  C7  UNL     1      29.040   1.708  54.173  1.00  0.00     0.248 C 
HETATM   26  F1  UNL     1      28.833   2.868  53.523  1.00  0.00    -0.253 F 
ENDBRANCH  24  25
ENDBRANCH  23  24
ENDBRANCH   4  23
TORSDOF 9
ENDMDL
MODEL 6
REMARK VINA RESULT:      -6.7      4.378      7.333
REMARK  9 active torsions:
REMARK  status: ('A' for Active; 'I' for Inactive)
REMARK    1  A    between atoms: O1_2  and  C2_3 
REMARK    2  A    between atoms: C5_6  and  O2_7 
REMARK    3  A    between atoms: O2_7  and  C6_8 
REMARK    4  A    between atoms: C6_8  and  C7_9 
REMARK    5  A    between atoms: C12_16  and  O3_17 
REMARK    6  A    between atoms: O3_17  and  C13_18 
REMARK    7  A    between atoms: C13_18  and  C14_19 
REMARK    8  A    between atoms: C14_19  and  C15_20 
REMARK    9  A    between atoms: C15_20  and  N2_21 
ROOT
HETATM    1  C2  UNL     1      24.732   4.943  49.640  1.00  0.00     0.102 A 
HETATM    2  C3  UNL     1      25.307   6.022  49.009  1.00  0.00     0.056 A 
HETATM    3  C4  UNL     1      26.617   6.132  48.579  1.00  0.00     0.029 A 
HETATM    4  C5  UNL     1      27.183   7.247  47.935  1.00  0.00     0.082 A 
HETATM    5  C8  UNL     1      28.505   7.029  47.643  1.00  0.00     0.057 A 
HETATM    6  C9  UNL     1      29.280   5.925  47.892  1.00  0.00     0.120 A 
HETATM    7  N1  UNL     1      28.648   4.917  48.509  1.00  0.00    -0.260 NA
HETATM    8  C10 UNL     1      27.353   4.974  48.863  1.00  0.00     0.072 A 
HETATM    9  C11 UNL     1      26.875   3.846  49.487  1.00  0.00     0.072 A 
HETATM   10  C12 UNL     1      25.552   3.860  49.866  1.00  0.00     0.104 A 
ENDROOT
BRANCH  10  11
HETATM   11  O3  UNL     1      24.978   2.769  50.501  1.00  0.00    -0.348 OA
BRANCH  11  12
HETATM   12  C13 UNL     1      25.662   2.193  51.588  1.00  0.00     0.177 C 
BRANCH  12  13
HETATM   13  C14 UNL     1      24.838   2.250  52.861  1.00  0.00     0.046 C 
BRANCH  13  14
HETATM   14  C15 UNL     1      24.607   0.791  53.274  1.00  0.00     0.119 C 
BRANCH  14  15
HETATM   15  N2  UNL     1      25.846   0.186  53.556  1.00  0.00    -0.412 N 
HETATM   16  C16 UNL     1      26.083  -1.130  53.090  1.00  0.00     0.117 C 
HETATM   17  C17 UNL     1      27.525  -1.192  52.672  1.00  0.00     0.019 C 
HETATM   18  C18 UNL     1      28.502  -0.600  53.609  1.00  0.00     0.003 C 
HETATM   19  C19 UNL     1      28.014   0.246  54.714  1.00  0.00     0.019 C 
HETATM   20  C20 UNL     1      26.571   0.622  54.690  1.00  0.00     0.117 C 
ENDBRANCH  14  15
ENDBRANCH  13  14
ENDBRANCH  12  13
ENDBRANCH  11  12
ENDBRANCH  10  11
BRANCH   1  21
HETATM   21  O1  UNL     1      23.399   4.966  50.018  1.00  0.00    -0.353 OA
HETATM   22  C1  UNL     1      23.047   5.721  51.162  1.00  0.00     0.210 C 
ENDBRANCH   1  21
BRANCH   4  23
HETATM   23  O2  UNL     1      26.258   8.189  47.802  1.00  0.00    -0.348 OA
BRANCH  23  24
HETATM   24  C6  UNL     1      26.018   9.106  46.823  1.00  0.00     0.207 C 
BRANCH  24  25
HETATM   25  C7  UNL     1      24.806   8.766  46.001  1.00  0.00     0.248 C 
HETATM   26  F1  UNL     1      24.291   7.532  46.152  1.00  0.00    -0.253 F 
ENDBRANCH  24  25
ENDBRANCH  23  24
ENDBRANCH   4  23
TORSDOF 9
ENDMDL
MODEL 7
REMARK VINA RESULT:      -6.7      4.236      5.895
REMARK  9 active torsions:
REMARK  status: ('A' for Active; 'I' for Inactive)
REMARK    1  A    between atoms: O1_2  and  C2_3 
REMARK    2  A    between atoms: C5_6  and  O2_7 
REMARK    3  A    between atoms: O2_7  and  C6_8 
REMARK    4  A    between atoms: C6_8  and  C7_9 
REMARK    5  A    between atoms: C12_16  and  O3_17 
REMARK    6  A    between atoms: O3_17  and  C13_18 
REMARK    7  A    between atoms: C13_18  and  C14_19 
REMARK    8  A    between atoms: C14_19  and  C15_20 
REMARK    9  A    between atoms: C15_20  and  N2_21 
ROOT
HETATM    1  C2  UNL     1      24.228   3.085  51.381  1.00  0.00     0.102 A 
HETATM    2  C3  UNL     1      23.945   1.995  52.169  1.00  0.00     0.056 A 
HETATM    3  C4  UNL     1      24.807   0.966  52.507  1.00  0.00     0.029 A 
HETATM    4  C5  UNL     1      24.495  -0.139  53.318  1.00  0.00     0.082 A 
HETATM    5  C8  UNL     1      25.576  -0.973  53.453  1.00  0.00     0.057 A 
HETATM    6  C9  UNL     1      26.836  -0.855  52.925  1.00  0.00     0.120 A 
HETATM    7  N1  UNL     1      27.034   0.234  52.168  1.00  0.00    -0.260 NA
HETATM    8  C10 UNL     1      26.074   1.147  51.937  1.00  0.00     0.072 A 
HETATM    9  C11 UNL     1      26.458   2.197  51.136  1.00  0.00     0.072 A 
HETATM   10  C12 UNL     1      25.507   3.157  50.875  1.00  0.00     0.104 A 
ENDROOT
BRANCH  10  11
HETATM   11  O3  UNL     1      25.800   4.254  50.079  1.00  0.00    -0.348 OA
BRANCH  11  12
HETATM   12  C13 UNL     1      26.925   4.187  49.236  1.00  0.00     0.177 C 
BRANCH  12  13
HETATM   13  C14 UNL     1      27.261   5.543  48.642  1.00  0.00     0.046 C 
BRANCH  13  14
HETATM   14  C15 UNL     1      28.743   5.473  48.254  1.00  0.00     0.119 C 
BRANCH  14  15
HETATM   15  N2  UNL     1      29.324   6.747  48.400  1.00  0.00    -0.412 N 
HETATM   16  C16 UNL     1      28.694   7.856  47.785  1.00  0.00     0.117 C 
HETATM   17  C17 UNL     1      28.844   9.019  48.725  1.00  0.00     0.019 C 
HETATM   18  C18 UNL     1      30.187   9.218  49.307  1.00  0.00     0.003 C 
HETATM   19  C19 UNL     1      31.190   8.144  49.180  1.00  0.00     0.019 C 
HETATM   20  C20 UNL     1      30.714   6.835  48.648  1.00  0.00     0.117 C 
ENDBRANCH  14  15
ENDBRANCH  13  14
ENDBRANCH  12  13
ENDBRANCH  11  12
ENDBRANCH  10  11
BRANCH   1  21
HETATM   21  O1  UNL     1      23.265   4.046  51.121  1.00  0.00    -0.353 OA
HETATM   22  C1  UNL     1      22.618   4.652  52.223  1.00  0.00     0.210 C 
ENDBRANCH   1  21
BRANCH   4  23
HETATM   23  O2  UNL     1      23.231  -0.047  53.712  1.00  0.00    -0.348 OA
BRANCH  23  24
HETATM   24  C6  UNL     1      22.196  -0.932  53.687  1.00  0.00     0.207 C 
BRANCH  24  25
HETATM   25  C7  UNL     1      20.888  -0.300  54.070  1.00  0.00     0.248 C 
HETATM   26  F1  UNL     1      20.874   0.444  55.192  1.00  0.00    -0.253 F 
ENDBRANCH  24  25
ENDBRANCH  23  24
ENDBRANCH   4  23
TORSDOF 9
ENDMDL
MODEL 8
REMARK VINA RESULT:      -6.7      3.105      6.615
REMARK  9 active torsions:
REMARK  status: ('A' for Active; 'I' for Inactive)
REMARK    1  A    between atoms: O1_2  and  C2_3 
REMARK    2  A    between atoms: C5_6  and  O2_7 
REMARK    3  A    between atoms: O2_7  and  C6_8 
REMARK    4  A    between atoms: C6_8  and  C7_9 
REMARK    5  A    between atoms: C12_16  and  O3_17 
REMARK    6  A    between atoms: O3_17  and  C13_18 
REMARK    7  A    between atoms: C13_18  and  C14_19 
REMARK    8  A    between atoms: C14_19  and  C15_20 
REMARK    9  A    between atoms: C15_20  and  N2_21 
ROOT
HETATM    1  C2  UNL     1      21.635   3.880  52.028  1.00  0.00     0.102 A 
HETATM    2  C3  UNL     1      22.903   3.354  52.117  1.00  0.00     0.056 A 
HETATM    3  C4  UNL     1      23.247   2.078  52.525  1.00  0.00     0.029 A 
HETATM    4  C5  UNL     1      24.553   1.562  52.606  1.00  0.00     0.082 A 
HETATM    5  C8  UNL     1      24.543   0.263  53.047  1.00  0.00     0.057 A 
HETATM    6  C9  UNL     1      23.479  -0.530  53.391  1.00  0.00     0.120 A 
HETATM    7  N1  UNL     1      22.278   0.053  53.278  1.00  0.00    -0.260 NA
HETATM    8  C10 UNL     1      22.117   1.321  52.861  1.00  0.00     0.072 A 
HETATM    9  C11 UNL     1      20.812   1.750  52.808  1.00  0.00     0.072 A 
HETATM   10  C12 UNL     1      20.601   3.042  52.384  1.00  0.00     0.104 A 
ENDROOT
BRANCH  10  11
HETATM   11  O3  UNL     1      19.320   3.566  52.296  1.00  0.00    -0.348 OA
BRANCH  11  12
HETATM   12  C13 UNL     1      18.367   2.873  51.526  1.00  0.00     0.177 C 
BRANCH  12  13
HETATM   13  C14 UNL     1      18.257   3.446  50.124  1.00  0.00     0.046 C 
BRANCH  13  14
HETATM   14  C15 UNL     1      18.606   2.293  49.174  1.00  0.00     0.119 C 
BRANCH  14  15
HETATM   15  N2  UNL     1      19.943   2.426  48.752  1.00  0.00    -0.412 N 
HETATM   16  C16 UNL     1      20.228   3.264  47.647  1.00  0.00     0.117 C 
HETATM   17  C17 UNL     1      21.529   3.952  47.945  1.00  0.00     0.019 C 
HETATM   18  C18 UNL     1      22.616   3.096  48.466  1.00  0.00     0.003 C 
HETATM   19  C19 UNL     1      22.295   1.734  48.928  1.00  0.00     0.019 C 
HETATM   20  C20 UNL     1      20.851   1.378  49.034  1.00  0.00     0.117 C 
ENDBRANCH  14  15
ENDBRANCH  13  14
ENDBRANCH  12  13
ENDBRANCH  11  12
ENDBRANCH  10  11
BRANCH   1  21
HETATM   21  O1  UNL     1      21.431   5.182  51.602  1.00  0.00    -0.353 OA
HETATM   22  C1  UNL     1      22.555   5.919  51.159  1.00  0.00     0.210 C 
ENDBRANCH   1  21
BRANCH   4  23
HETATM   23  O2  UNL     1      25.415   2.498  52.231  1.00  0.00    -0.348 OA
BRANCH  23  24
HETATM   24  C6  UNL     1      26.432   2.497  51.324  1.00  0.00     0.207 C 
BRANCH  24  25
HETATM   25  C7  UNL     1      26.192   3.453  50.189  1.00  0.00     0.248 C 
HETATM   26  F1  UNL     1      26.945   3.293  49.085  1.00  0.00    -0.253 F 
ENDBRANCH  24  25
ENDBRANCH  23  24
ENDBRANCH   4  23
TORSDOF 9
ENDMDL
MODEL 9
REMARK VINA RESULT:      -6.7      3.108      5.913
REMARK  9 active torsions:
REMARK  status: ('A' for Active; 'I' for Inactive)
REMARK    1  A    between atoms: O1_2  and  C2_3 
REMARK    2  A    between atoms: C5_6  and  O2_7 
REMARK    3  A    between atoms: O2_7  and  C6_8 
REMARK    4  A    between atoms: C6_8  and  C7_9 
REMARK    5  A    between atoms: C12_16  and  O3_17 
REMARK    6  A    between atoms: O3_17  and  C13_18 
REMARK    7  A    between atoms: C13_18  and  C14_19 
REMARK    8  A    between atoms: C14_19  and  C15_20 
REMARK    9  A    between atoms: C15_20  and  N2_21 
ROOT
HETATM    1  C2  UNL     1      25.794   2.659  50.974  1.00  0.00     0.102 A 
HETATM    2  C3  UNL     1      24.851   1.853  51.568  1.00  0.00     0.056 A 
HETATM    3  C4  UNL     1      23.553   1.638  51.140  1.00  0.00     0.029 A 
HETATM    4  C5  UNL     1      22.606   0.807  51.764  1.00  0.00     0.082 A 
HETATM    5  C8  UNL     1      21.415   0.817  51.084  1.00  0.00     0.057 A 
HETATM    6  C9  UNL     1      21.072   1.498  49.944  1.00  0.00     0.120 A 
HETATM    7  N1  UNL     1      22.043   2.262  49.426  1.00  0.00    -0.260 NA
HETATM    8  C10 UNL     1      23.267   2.361  49.975  1.00  0.00     0.072 A 
HETATM    9  C11 UNL     1      24.134   3.192  49.306  1.00  0.00     0.072 A 
HETATM   10  C12 UNL     1      25.399   3.321  49.832  1.00  0.00     0.104 A 
ENDROOT
BRANCH  10  11
HETATM   11  O3  UNL     1      26.345   4.135  49.228  1.00  0.00    -0.348 OA
BRANCH  11  12
HETATM   12  C13 UNL     1      25.953   5.423  48.817  1.00  0.00     0.177 C 
BRANCH  12  13
HETATM   13  C14 UNL     1      25.681   6.330  50.004  1.00  0.00     0.046 C 
BRANCH  13  14
HETATM   14  C15 UNL     1      24.286   6.922  49.766  1.00  0.00     0.119 C 
BRANCH  14  15
HETATM   15  N2  UNL     1      23.377   6.349  50.676  1.00  0.00    -0.412 N 
HETATM   16  C16 UNL     1      22.019   6.747  50.622  1.00  0.00     0.117 C 
HETATM   17  C17 UNL     1      21.194   5.523  50.903  1.00  0.00     0.019 C 
HETATM   18  C18 UNL     1      21.630   4.691  52.043  1.00  0.00     0.003 C 
HETATM   19  C19 UNL     1      22.959   4.926  52.635  1.00  0.00     0.019 C 
HETATM   20  C20 UNL     1      23.869   5.856  51.907  1.00  0.00     0.117 C 
ENDBRANCH  14  15
ENDBRANCH  13  14
ENDBRANCH  12  13
ENDBRANCH  11  12
ENDBRANCH  10  11
BRANCH   1  21
HETATM   21  O1  UNL     1      27.065   2.785  51.512  1.00  0.00    -0.353 OA
HETATM   22  C1  UNL     1      27.380   2.016  52.656  1.00  0.00     0.210 C 
ENDBRANCH   1  21
BRANCH   4  23
HETATM   23  O2  UNL     1      23.153   0.255  52.841  1.00  0.00    -0.348 OA
BRANCH  23  24
HETATM   24  C6  UNL     1      22.855  -0.872  53.545  1.00  0.00     0.207 C 
BRANCH  24  25
HETATM   25  C7  UNL     1      22.019  -0.588  54.761  1.00  0.00     0.248 C 
HETATM   26  F1  UNL     1      20.898   0.133  54.577  1.00  0.00    -0.253 F 
ENDBRANCH  24  25
ENDBRANCH  23  24
ENDBRANCH   4  23
TORSDOF 9
ENDMDL
