MODEL 1
REMARK VINA RESULT:      -5.8      0.000      0.000
REMARK  7 active torsions:
REMARK  status: ('A' for Active; 'I' for Inactive)
REMARK    1  A    between atoms: O1_2  and  C2_3 
REMARK    2  A    between atoms: C2_3  and  C3_4 
REMARK    3  A    between atoms: C3_4  and  O2_5 
REMARK    4  A    between atoms: O2_5  and  C4_6 
REMARK    5  A    between atoms: C4_6  and  C5_7 
REMARK    6  A    between atoms: C5_7  and  C6_8 
REMARK    7  A    between atoms: C6_8  and  N1_9 
ROOT
HETATM    1  C3  UNL     1      23.128   1.267  51.472  1.00  0.00     0.234 C 
ENDROOT
BRANCH   1   2
HETATM    2  C2  UNL     1      21.872   0.946  52.137  1.00  0.00     0.091 C 
HETATM    3  C11 UNL     1      21.700   0.354  53.299  1.00  0.00     0.043 C 
HETATM    4  C12 UNL     1      20.432   0.021  53.989  1.00  0.00     0.081 C 
HETATM    5  N3  UNL     1      22.826  -0.050  54.073  1.00  0.00    -0.352 N 
HETATM    6  C13 UNL     1      20.417  -1.487  54.141  1.00  0.00     0.156 C 
HETATM    7  N2  UNL     1      21.588  -1.862  54.912  1.00  0.00    -0.284 NA
HETATM    8  C14 UNL     1      22.702  -1.217  54.893  1.00  0.00     0.201 C 
HETATM    9  H25 UNL     1      23.748   0.479  54.063  1.00  0.00     0.166 HD
BRANCH   2  10
HETATM   10  O1  UNL     1      20.516   1.082  51.909  1.00  0.00    -0.356 OA
HETATM   11  C1  UNL     1      20.044   1.282  50.573  1.00  0.00     0.209 C 
ENDBRANCH   2  10
ENDBRANCH   1   2
BRANCH   1  12
HETATM   12  O2  UNL     1      24.004   1.856  52.359  1.00  0.00    -0.385 OA
BRANCH  12  13
HETATM   13  C4  UNL     1      24.852   2.768  51.747  1.00  0.00     0.169 C 
BRANCH  13  14
HETATM   14  C5  UNL     1      26.108   2.036  51.337  1.00  0.00     0.046 C 
BRANCH  14  15
HETATM   15  C6  UNL     1      27.191   2.170  52.413  1.00  0.00     0.119 C 
BRANCH  15  16
HETATM   16  N1  UNL     1      27.522   0.834  52.790  1.00  0.00    -0.408 N 
HETATM   17  C7  UNL     1      26.823  -0.185  52.082  1.00  0.00     0.143 C 
HETATM   18  C8  UNL     1      26.676  -1.369  52.997  1.00  0.00     0.187 C 
HETATM   19  O3  UNL     1      25.941  -1.017  54.113  1.00  0.00    -0.388 OA
HETATM   20  C9  UNL     1      26.407   0.105  54.766  1.00  0.00     0.187 C 
HETATM   21  C10 UNL     1      27.718   0.604  54.177  1.00  0.00     0.143 C 
ENDBRANCH  15  16
ENDBRANCH  14  15
ENDBRANCH  13  14
ENDBRANCH  12  13
ENDBRANCH   1  12
TORSDOF 7
ENDMDL
MODEL 2
REMARK VINA RESULT:      -5.8      3.458      6.239
REMARK  7 active torsions:
REMARK  status: ('A' for Active; 'I' for Inactive)
REMARK    1  A    between atoms: O1_2  and  C2_3 
REMARK    2  A    between atoms: C2_3  and  C3_4 
REMARK    3  A    between atoms: C3_4  and  O2_5 
REMARK    4  A    between atoms: O2_5  and  C4_6 
REMARK    5  A    between atoms: C4_6  and  C5_7 
REMARK    6  A    between atoms: C5_7  and  C6_8 
REMARK    7  A    between atoms: C6_8  and  N1_9 
ROOT
HETATM    1  C3  UNL     1      24.586   2.767  52.961  1.00  0.00     0.234 C 
ENDROOT
BRANCH   1   2
HETATM    2  C2  UNL     1      25.219   1.576  53.509  1.00  0.00     0.091 C 
HETATM    3  C11 UNL     1      26.456   1.443  53.940  1.00  0.00     0.043 C 
HETATM    4  C12 UNL     1      27.116   0.240  54.500  1.00  0.00     0.081 C 
HETATM    5  N3  UNL     1      27.351   2.550  53.908  1.00  0.00    -0.352 N 
HETATM    6  C13 UNL     1      28.271  -0.080  53.572  1.00  0.00     0.156 C 
HETATM    7  N2  UNL     1      29.146   1.078  53.547  1.00  0.00    -0.284 NA
HETATM    8  C14 UNL     1      28.744   2.291  53.697  1.00  0.00     0.201 C 
HETATM    9  H25 UNL     1      27.025   3.554  54.033  1.00  0.00     0.166 HD
BRANCH   2  10
HETATM   10  O1  UNL     1      24.890   0.263  53.788  1.00  0.00    -0.356 OA
HETATM   11  C1  UNL     1      23.624  -0.249  53.362  1.00  0.00     0.209 C 
ENDBRANCH   2  10
ENDBRANCH   1   2
BRANCH   1  12
HETATM   12  O2  UNL     1      25.147   3.093  51.744  1.00  0.00    -0.385 OA
BRANCH  12  13
HETATM   13  C4  UNL     1      24.294   2.843  50.678  1.00  0.00     0.169 C 
BRANCH  13  14
HETATM   14  C5  UNL     1      24.882   3.492  49.448  1.00  0.00     0.046 C 
BRANCH  14  15
HETATM   15  C6  UNL     1      26.320   3.955  49.711  1.00  0.00     0.119 C 
BRANCH  15  16
HETATM   16  N1  UNL     1      26.576   4.973  48.744  1.00  0.00    -0.408 N 
HETATM   17  C7  UNL     1      27.947   5.318  48.578  1.00  0.00     0.143 C 
HETATM   18  C8  UNL     1      28.016   6.766  48.178  1.00  0.00     0.187 C 
HETATM   19  O3  UNL     1      27.473   7.559  49.171  1.00  0.00    -0.388 OA
HETATM   20  C9  UNL     1      26.209   7.178  49.572  1.00  0.00     0.187 C 
HETATM   21  C10 UNL     1      25.655   6.053  48.710  1.00  0.00     0.143 C 
ENDBRANCH  15  16
ENDBRANCH  14  15
ENDBRANCH  13  14
ENDBRANCH  12  13
ENDBRANCH   1  12
TORSDOF 7
ENDMDL
MODEL 3
REMARK VINA RESULT:      -5.6      2.224      6.217
REMARK  7 active torsions:
REMARK  status: ('A' for Active; 'I' for Inactive)
REMARK    1  A    between atoms: O1_2  and  C2_3 
REMARK    2  A    between atoms: C2_3  and  C3_4 
REMARK    3  A    between atoms: C3_4  and  O2_5 
REMARK    4  A    between atoms: O2_5  and  C4_6 
REMARK    5  A    between atoms: C4_6  and  C5_7 
REMARK    6  A    between atoms: C5_7  and  C6_8 
REMARK    7  A    between atoms: C6_8  and  N1_9 
ROOT
HETATM    1  C3  UNL     1      24.677   2.213  52.477  1.00  0.00     0.234 C 
ENDROOT
BRANCH   1   2
HETATM    2  C2  UNL     1      25.319   1.231  53.339  1.00  0.00     0.091 C 
HETATM    3  C11 UNL     1      26.484   1.324  53.944  1.00  0.00     0.043 C 
HETATM    4  C12 UNL     1      27.152   0.336  54.824  1.00  0.00     0.081 C 
HETATM    5  N3  UNL     1      27.277   2.498  53.797  1.00  0.00    -0.352 N 
HETATM    6  C13 UNL     1      28.456  -0.025  54.140  1.00  0.00     0.156 C 
HETATM    7  N2  UNL     1      29.224   1.197  53.986  1.00  0.00    -0.284 NA
HETATM    8  C14 UNL     1      28.703   2.362  53.827  1.00  0.00     0.201 C 
HETATM    9  H25 UNL     1      26.853   3.464  53.666  1.00  0.00     0.166 HD
BRANCH   2  10
HETATM   10  O1  UNL     1      25.064  -0.032  53.842  1.00  0.00    -0.356 OA
HETATM   11  C1  UNL     1      23.747  -0.580  53.727  1.00  0.00     0.209 C 
ENDBRANCH   2  10
ENDBRANCH   1   2
BRANCH   1  12
HETATM   12  O2  UNL     1      24.310   3.325  53.205  1.00  0.00    -0.385 OA
BRANCH  12  13
HETATM   13  C4  UNL     1      23.329   4.077  52.575  1.00  0.00     0.169 C 
BRANCH  13  14
HETATM   14  C5  UNL     1      22.291   3.126  52.027  1.00  0.00     0.046 C 
BRANCH  14  15
HETATM   15  C6  UNL     1      20.887   3.731  52.136  1.00  0.00     0.119 C 
BRANCH  15  16
HETATM   16  N1  UNL     1      20.028   2.643  52.474  1.00  0.00    -0.408 N 
HETATM   17  C7  UNL     1      20.689   1.477  52.953  1.00  0.00     0.143 C 
HETATM   18  C8  UNL     1      19.862   0.282  52.565  1.00  0.00     0.187 C 
HETATM   19  O3  UNL     1      19.761   0.203  51.189  1.00  0.00    -0.388 OA
HETATM   20  C9  UNL     1      19.330   1.367  50.586  1.00  0.00     0.187 C 
HETATM   21  C10 UNL     1      18.926   2.421  51.606  1.00  0.00     0.143 C 
ENDBRANCH  15  16
ENDBRANCH  14  15
ENDBRANCH  13  14
ENDBRANCH  12  13
ENDBRANCH   1  12
TORSDOF 7
ENDMDL
MODEL 4
REMARK VINA RESULT:      -5.5      3.190      6.322
REMARK  7 active torsions:
REMARK  status: ('A' for Active; 'I' for Inactive)
REMARK    1  A    between atoms: O1_2  and  C2_3 
REMARK    2  A    between atoms: C2_3  and  C3_4 
REMARK    3  A    between atoms: C3_4  and  O2_5 
REMARK    4  A    between atoms: O2_5  and  C4_6 
REMARK    5  A    between atoms: C4_6  and  C5_7 
REMARK    6  A    between atoms: C5_7  and  C6_8 
REMARK    7  A    between atoms: C6_8  and  N1_9 
ROOT
HETATM    1  C3  UNL     1      24.767   2.304  52.468  1.00  0.00     0.234 C 
ENDROOT
BRANCH   1   2
HETATM    2  C2  UNL     1      25.348   1.316  53.365  1.00  0.00     0.091 C 
HETATM    3  C11 UNL     1      26.513   1.363  53.976  1.00  0.00     0.043 C 
HETATM    4  C12 UNL     1      27.119   0.367  54.891  1.00  0.00     0.081 C 
HETATM    5  N3  UNL     1      27.372   2.485  53.798  1.00  0.00    -0.352 N 
HETATM    6  C13 UNL     1      28.404  -0.088  54.229  1.00  0.00     0.156 C 
HETATM    7  N2  UNL     1      29.241   1.083  54.043  1.00  0.00    -0.284 NA
HETATM    8  C14 UNL     1      28.787   2.270  53.843  1.00  0.00     0.201 C 
HETATM    9  H25 UNL     1      27.003   3.468  53.634  1.00  0.00     0.166 HD
BRANCH   2  10
HETATM   10  O1  UNL     1      25.019   0.086  53.905  1.00  0.00    -0.356 OA
HETATM   11  C1  UNL     1      23.742  -0.490  53.613  1.00  0.00     0.209 C 
ENDBRANCH   2  10
ENDBRANCH   1   2
BRANCH   1  12
HETATM   12  O2  UNL     1      25.275   2.156  51.195  1.00  0.00    -0.385 OA
BRANCH  12  13
HETATM   13  C4  UNL     1      25.818   3.330  50.695  1.00  0.00     0.169 C 
BRANCH  13  14
HETATM   14  C5  UNL     1      25.064   3.696  49.438  1.00  0.00     0.046 C 
BRANCH  14  15
HETATM   15  C6  UNL     1      24.785   5.202  49.390  1.00  0.00     0.119 C 
BRANCH  15  16
HETATM   16  N1  UNL     1      23.964   5.475  50.525  1.00  0.00    -0.408 N 
HETATM   17  C7  UNL     1      22.596   5.102  50.385  1.00  0.00     0.143 C 
HETATM   18  C8  UNL     1      21.771   6.044  51.217  1.00  0.00     0.187 C 
HETATM   19  O3  UNL     1      21.929   7.339  50.764  1.00  0.00    -0.388 OA
HETATM   20  C9  UNL     1      23.244   7.743  50.650  1.00  0.00     0.187 C 
HETATM   21  C10 UNL     1      24.208   6.701  51.197  1.00  0.00     0.143 C 
ENDBRANCH  15  16
ENDBRANCH  14  15
ENDBRANCH  13  14
ENDBRANCH  12  13
ENDBRANCH   1  12
TORSDOF 7
ENDMDL
MODEL 5
REMARK VINA RESULT:      -5.4      2.616      4.095
REMARK  7 active torsions:
REMARK  status: ('A' for Active; 'I' for Inactive)
REMARK    1  A    between atoms: O1_2  and  C2_3 
REMARK    2  A    between atoms: C2_3  and  C3_4 
REMARK    3  A    between atoms: C3_4  and  O2_5 
REMARK    4  A    between atoms: O2_5  and  C4_6 
REMARK    5  A    between atoms: C4_6  and  C5_7 
REMARK    6  A    between atoms: C5_7  and  C6_8 
REMARK    7  A    between atoms: C6_8  and  N1_9 
ROOT
HETATM    1  C3  UNL     1      22.289   1.730  52.722  1.00  0.00     0.234 C 
ENDROOT
BRANCH   1   2
HETATM    2  C2  UNL     1      21.692   1.225  51.493  1.00  0.00     0.091 C 
HETATM    3  C11 UNL     1      22.062   1.469  50.254  1.00  0.00     0.043 C 
HETATM    4  C12 UNL     1      21.467   0.965  48.994  1.00  0.00     0.081 C 
HETATM    5  N3  UNL     1      23.178   2.315  49.992  1.00  0.00    -0.352 N 
HETATM    6  C13 UNL     1      20.998   2.187  48.230  1.00  0.00     0.156 C 
HETATM    7  N2  UNL     1      22.155   3.034  48.003  1.00  0.00    -0.284 NA
HETATM    8  C14 UNL     1      23.163   3.107  48.799  1.00  0.00     0.201 C 
HETATM    9  H25 UNL     1      24.014   2.379  50.644  1.00  0.00     0.166 HD
BRANCH   2  10
HETATM   10  O1  UNL     1      20.648   0.404  51.110  1.00  0.00    -0.356 OA
HETATM   11  C1  UNL     1      19.593   0.129  52.037  1.00  0.00     0.209 C 
ENDBRANCH   2  10
ENDBRANCH   1   2
BRANCH   1  12
HETATM   12  O2  UNL     1      23.602   1.321  52.822  1.00  0.00    -0.385 OA
BRANCH  12  13
HETATM   13  C4  UNL     1      23.727   0.057  53.380  1.00  0.00     0.169 C 
BRANCH  13  14
HETATM   14  C5  UNL     1      25.125  -0.442  53.098  1.00  0.00     0.046 C 
BRANCH  14  15
HETATM   15  C6  UNL     1      26.003  -0.335  54.349  1.00  0.00     0.119 C 
BRANCH  15  16
HETATM   16  N1  UNL     1      27.297   0.039  53.876  1.00  0.00    -0.408 N 
HETATM   17  C7  UNL     1      28.281   0.224  54.888  1.00  0.00     0.143 C 
HETATM   18  C8  UNL     1      29.258   1.260  54.403  1.00  0.00     0.187 C 
HETATM   19  O3  UNL     1      28.607   2.460  54.189  1.00  0.00    -0.388 OA
HETATM   20  C9  UNL     1      27.491   2.363  53.383  1.00  0.00     0.187 C 
HETATM   21  C10 UNL     1      27.329   0.966  52.802  1.00  0.00     0.143 C 
ENDBRANCH  15  16
ENDBRANCH  14  15
ENDBRANCH  13  14
ENDBRANCH  12  13
ENDBRANCH   1  12
TORSDOF 7
ENDMDL
MODEL 6
REMARK VINA RESULT:      -5.3      3.808      5.808
REMARK  7 active torsions:
REMARK  status: ('A' for Active; 'I' for Inactive)
REMARK    1  A    between atoms: O1_2  and  C2_3 
REMARK    2  A    between atoms: C2_3  and  C3_4 
REMARK    3  A    between atoms: C3_4  and  O2_5 
REMARK    4  A    between atoms: O2_5  and  C4_6 
REMARK    5  A    between atoms: C4_6  and  C5_7 
REMARK    6  A    between atoms: C5_7  and  C6_8 
REMARK    7  A    between atoms: C6_8  and  N1_9 
ROOT
HETATM    1  C3  UNL     1      24.780   3.563  49.914  1.00  0.00     0.234 C 
ENDROOT
BRANCH   1   2
HETATM    2  C2  UNL     1      24.936   5.003  50.065  1.00  0.00     0.091 C 
HETATM    3  C11 UNL     1      24.119   5.847  50.659  1.00  0.00     0.043 C 
HETATM    4  C12 UNL     1      24.262   7.314  50.822  1.00  0.00     0.081 C 
HETATM    5  N3  UNL     1      22.916   5.380  51.261  1.00  0.00    -0.352 N 
HETATM    6  C13 UNL     1      23.075   7.935  50.113  1.00  0.00     0.156 C 
HETATM    7  N2  UNL     1      21.871   7.417  50.736  1.00  0.00    -0.284 NA
HETATM    8  C14 UNL     1      21.778   6.249  51.267  1.00  0.00     0.201 C 
HETATM    9  H25 UNL     1      22.833   4.416  51.702  1.00  0.00     0.166 HD
BRANCH   2  10
HETATM   10  O1  UNL     1      25.842   5.989  49.722  1.00  0.00    -0.356 OA
HETATM   11  C1  UNL     1      26.893   5.687  48.799  1.00  0.00     0.209 C 
ENDBRANCH   2  10
ENDBRANCH   1   2
BRANCH   1  12
HETATM   12  O2  UNL     1      25.027   2.925  51.111  1.00  0.00    -0.385 OA
BRANCH  12  13
HETATM   13  C4  UNL     1      24.080   1.954  51.405  1.00  0.00     0.169 C 
BRANCH  13  14
HETATM   14  C5  UNL     1      24.735   0.913  52.281  1.00  0.00     0.046 C 
BRANCH  14  15
HETATM   15  C6  UNL     1      25.509   1.575  53.426  1.00  0.00     0.119 C 
BRANCH  15  16
HETATM   16  N1  UNL     1      26.768   0.905  53.472  1.00  0.00    -0.408 N 
HETATM   17  C7  UNL     1      27.110   0.346  54.736  1.00  0.00     0.143 C 
HETATM   18  C8  UNL     1      28.609   0.366  54.863  1.00  0.00     0.187 C 
HETATM   19  O3  UNL     1      29.071   1.667  54.811  1.00  0.00    -0.388 OA
HETATM   20  C9  UNL     1      28.619   2.385  53.722  1.00  0.00     0.187 C 
HETATM   21  C10 UNL     1      27.831   1.515  52.755  1.00  0.00     0.143 C 
ENDBRANCH  15  16
ENDBRANCH  14  15
ENDBRANCH  13  14
ENDBRANCH  12  13
ENDBRANCH   1  12
TORSDOF 7
ENDMDL
MODEL 7
REMARK VINA RESULT:      -5.2      1.952      5.349
REMARK  7 active torsions:
REMARK  status: ('A' for Active; 'I' for Inactive)
REMARK    1  A    between atoms: O1_2  and  C2_3 
REMARK    2  A    between atoms: C2_3  and  C3_4 
REMARK    3  A    between atoms: C3_4  and  O2_5 
REMARK    4  A    between atoms: O2_5  and  C4_6 
REMARK    5  A    between atoms: C4_6  and  C5_7 
REMARK    6  A    between atoms: C5_7  and  C6_8 
REMARK    7  A    between atoms: C6_8  and  N1_9 
ROOT
HETATM    1  C3  UNL     1      24.099   4.085  51.184  1.00  0.00     0.234 C 
ENDROOT
BRANCH   1   2
HETATM    2  C2  UNL     1      25.258   3.217  51.030  1.00  0.00     0.091 C 
HETATM    3  C11 UNL     1      25.727   2.334  51.886  1.00  0.00     0.043 C 
HETATM    4  C12 UNL     1      26.904   1.444  51.745  1.00  0.00     0.081 C 
HETATM    5  N3  UNL     1      25.079   2.134  53.138  1.00  0.00    -0.352 N 
HETATM    6  C13 UNL     1      27.854   1.820  52.865  1.00  0.00     0.156 C 
HETATM    7  N2  UNL     1      27.152   1.626  54.120  1.00  0.00    -0.284 NA
HETATM    8  C14 UNL     1      25.881   1.766  54.266  1.00  0.00     0.201 C 
HETATM    9  H25 UNL     1      24.030   2.246  53.264  1.00  0.00     0.166 HD
BRANCH   2  10
HETATM   10  O1  UNL     1      26.238   2.954  50.091  1.00  0.00    -0.356 OA
HETATM   11  C1  UNL     1      26.784   4.031  49.324  1.00  0.00     0.209 C 
ENDBRANCH   2  10
ENDBRANCH   1   2
BRANCH   1  12
HETATM   12  O2  UNL     1      23.027   3.372  51.676  1.00  0.00    -0.385 OA
BRANCH  12  13
HETATM   13  C4  UNL     1      22.253   2.808  50.671  1.00  0.00     0.169 C 
BRANCH  13  14
HETATM   14  C5  UNL     1      21.994   1.366  51.035  1.00  0.00     0.046 C 
BRANCH  14  15
HETATM   15  C6  UNL     1      21.518   1.247  52.487  1.00  0.00     0.119 C 
BRANCH  15  16
HETATM   16  N1  UNL     1      21.475  -0.152  52.762  1.00  0.00    -0.408 N 
HETATM   17  C7  UNL     1      20.386  -0.576  53.575  1.00  0.00     0.143 C 
HETATM   18  C8  UNL     1      20.832  -1.778  54.361  1.00  0.00     0.187 C 
HETATM   19  O3  UNL     1      21.895  -1.441  55.178  1.00  0.00    -0.388 OA
HETATM   20  C9  UNL     1      22.936  -0.816  54.524  1.00  0.00     0.187 C 
HETATM   21  C10 UNL     1      22.722  -0.780  53.018  1.00  0.00     0.143 C 
ENDBRANCH  15  16
ENDBRANCH  14  15
ENDBRANCH  13  14
ENDBRANCH  12  13
ENDBRANCH   1  12
TORSDOF 7
ENDMDL
MODEL 8
REMARK VINA RESULT:      -5.2      2.749      6.315
REMARK  7 active torsions:
REMARK  status: ('A' for Active; 'I' for Inactive)
REMARK    1  A    between atoms: O1_2  and  C2_3 
REMARK    2  A    between atoms: C2_3  and  C3_4 
REMARK    3  A    between atoms: C3_4  and  O2_5 
REMARK    4  A    between atoms: O2_5  and  C4_6 
REMARK    5  A    between atoms: C4_6  and  C5_7 
REMARK    6  A    between atoms: C5_7  and  C6_8 
REMARK    7  A    between atoms: C6_8  and  N1_9 
ROOT
HETATM    1  C3  UNL     1      24.853   1.803  51.891  1.00  0.00     0.234 C 
ENDROOT
BRANCH   1   2
HETATM    2  C2  UNL     1      25.312   1.034  53.039  1.00  0.00     0.091 C 
HETATM    3  C11 UNL     1      26.331   1.293  53.832  1.00  0.00     0.043 C 
HETATM    4  C12 UNL     1      26.811   0.523  55.003  1.00  0.00     0.081 C 
HETATM    5  N3  UNL     1      27.132   2.451  53.616  1.00  0.00    -0.352 N 
HETATM    6  C13 UNL     1      28.228   0.095  54.675  1.00  0.00     0.156 C 
HETATM    7  N2  UNL     1      29.006   1.297  54.438  1.00  0.00    -0.284 NA
HETATM    8  C14 UNL     1      28.522   2.386  53.952  1.00  0.00     0.201 C 
HETATM    9  H25 UNL     1      26.738   3.353  53.216  1.00  0.00     0.166 HD
BRANCH   2  10
HETATM   10  O1  UNL     1      24.966  -0.118  53.720  1.00  0.00    -0.356 OA
HETATM   11  C1  UNL     1      23.620  -0.598  53.651  1.00  0.00     0.209 C 
ENDBRANCH   2  10
ENDBRANCH   1   2
BRANCH   1  12
HETATM   12  O2  UNL     1      24.218   2.954  52.306  1.00  0.00    -0.385 OA
BRANCH  12  13
HETATM   13  C4  UNL     1      24.326   3.986  51.385  1.00  0.00     0.169 C 
BRANCH  13  14
HETATM   14  C5  UNL     1      23.293   3.760  50.307  1.00  0.00     0.046 C 
BRANCH  14  15
HETATM   15  C6  UNL     1      22.127   4.744  50.455  1.00  0.00     0.119 C 
BRANCH  15  16
HETATM   16  N1  UNL     1      20.944   3.959  50.318  1.00  0.00    -0.408 N 
HETATM   17  C7  UNL     1      19.723   4.689  50.376  1.00  0.00     0.143 C 
HETATM   18  C8  UNL     1      18.668   3.786  50.952  1.00  0.00     0.187 C 
HETATM   19  O3  UNL     1      19.020   3.403  52.232  1.00  0.00    -0.388 OA
HETATM   20  C9  UNL     1      20.290   2.872  52.336  1.00  0.00     0.187 C 
HETATM   21  C10 UNL     1      20.947   2.700  50.974  1.00  0.00     0.143 C 
ENDBRANCH  15  16
ENDBRANCH  14  15
ENDBRANCH  13  14
ENDBRANCH  12  13
ENDBRANCH   1  12
TORSDOF 7
ENDMDL
MODEL 9
REMARK VINA RESULT:      -5.1      3.578      6.748
REMARK  7 active torsions:
REMARK  status: ('A' for Active; 'I' for Inactive)
REMARK    1  A    between atoms: O1_2  and  C2_3 
REMARK    2  A    between atoms: C2_3  and  C3_4 
REMARK    3  A    between atoms: C3_4  and  O2_5 
REMARK    4  A    between atoms: O2_5  and  C4_6 
REMARK    5  A    between atoms: C4_6  and  C5_7 
REMARK    6  A    between atoms: C5_7  and  C6_8 
REMARK    7  A    between atoms: C6_8  and  N1_9 
ROOT
HETATM    1  C3  UNL     1      24.599   1.877  52.454  1.00  0.00     0.234 C 
ENDROOT
BRANCH   1   2
HETATM    2  C2  UNL     1      25.310   0.997  53.372  1.00  0.00     0.091 C 
HETATM    3  C11 UNL     1      26.479   1.196  53.942  1.00  0.00     0.043 C 
HETATM    4  C12 UNL     1      27.215   0.312  54.877  1.00  0.00     0.081 C 
HETATM    5  N3  UNL     1      27.205   2.395  53.692  1.00  0.00    -0.352 N 
HETATM    6  C13 UNL     1      28.524  -0.030  54.192  1.00  0.00     0.156 C 
HETATM    7  N2  UNL     1      29.222   1.215  53.932  1.00  0.00    -0.284 NA
HETATM    8  C14 UNL     1      28.636   2.337  53.700  1.00  0.00     0.201 C 
HETATM    9  H25 UNL     1      26.727   3.325  53.500  1.00  0.00     0.166 HD
BRANCH   2  10
HETATM   10  O1  UNL     1      25.132  -0.236  53.971  1.00  0.00    -0.356 OA
HETATM   11  C1  UNL     1      23.806  -0.739  54.164  1.00  0.00     0.209 C 
ENDBRANCH   2  10
ENDBRANCH   1   2
BRANCH   1  12
HETATM   12  O2  UNL     1      24.284   3.066  53.076  1.00  0.00    -0.385 OA
BRANCH  12  13
HETATM   13  C4  UNL     1      23.724   3.992  52.208  1.00  0.00     0.169 C 
BRANCH  13  14
HETATM   14  C5  UNL     1      24.651   4.144  51.026  1.00  0.00     0.046 C 
BRANCH  14  15
HETATM   15  C6  UNL     1      24.041   5.076  49.972  1.00  0.00     0.119 C 
BRANCH  15  16
HETATM   16  N1  UNL     1      23.273   6.029  50.705  1.00  0.00    -0.408 N 
HETATM   17  C7  UNL     1      21.903   6.121  50.327  1.00  0.00     0.143 C 
HETATM   18  C8  UNL     1      21.446   7.532  50.577  1.00  0.00     0.187 C 
HETATM   19  O3  UNL     1      22.181   8.411  49.806  1.00  0.00    -0.388 OA
HETATM   20  C9  UNL     1      23.548   8.265  49.928  1.00  0.00     0.187 C 
HETATM   21  C10 UNL     1      23.918   7.257  51.006  1.00  0.00     0.143 C 
ENDBRANCH  15  16
ENDBRANCH  14  15
ENDBRANCH  13  14
ENDBRANCH  12  13
ENDBRANCH   1  12
TORSDOF 7
ENDMDL
