MODEL 1
REMARK VINA RESULT:      -9.4      0.000      0.000
REMARK  3 active torsions:
REMARK  status: ('A' for Active; 'I' for Inactive)
REMARK    1  A    between atoms: C5_5  and  C6_6 
REMARK    2  A    between atoms: C6_6  and  N1_7 
REMARK    3  A    between atoms: N1_7  and  C7_8 
ROOT
HETATM    1  C7  UNL     1      20.675   1.151  52.850  1.00  0.00     0.139 A 
HETATM    2  N2  UNL     1      20.276   2.402  52.510  1.00  0.00    -0.224 NA
HETATM    3  C8  UNL     1      21.167   3.397  52.237  1.00  0.00     0.237 A 
HETATM    4  N3  UNL     1      22.494   3.173  52.294  1.00  0.00    -0.223 NA
HETATM    5  C9  UNL     1      22.942   1.948  52.626  1.00  0.00     0.145 A 
HETATM    6  C10 UNL     1      22.039   0.951  52.900  1.00  0.00     0.058 A 
HETATM    7  C11 UNL     1      22.786  -0.136  53.194  1.00  0.00     0.044 A 
HETATM    8  C12 UNL     1      24.138   0.201  53.098  1.00  0.00     0.018 A 
HETATM    9  N4  UNL     1      24.213   1.502  52.744  1.00  0.00    -0.333 N 
HETATM   10  C13 UNL     1      25.546   2.073  52.588  1.00  0.00     0.152 C 
HETATM   11  C14 UNL     1      26.229   2.069  53.881  1.00  0.00     0.170 C 
HETATM   12  N5  UNL     1      26.436   0.877  54.642  1.00  0.00    -0.285 NA
HETATM   13  C15 UNL     1      27.627   0.378  54.433  1.00  0.00     0.091 C 
HETATM   14  C16 UNL     1      27.729   0.197  53.123  1.00  0.00     0.004 C 
HETATM   15  C17 UNL     1      26.550  -0.301  52.728  1.00  0.00    -0.006 C 
HETATM   16  C18 UNL     1      25.262  -0.689  53.335  1.00  0.00     0.085 C 
ENDROOT
BRANCH   1  17
HETATM   17  N1  UNL     1      19.731   0.125  53.132  1.00  0.00    -0.370 N 
HETATM   18  H8  UNL     1      19.923  -0.485  53.949  1.00  0.00     0.161 HD
BRANCH  17  19
HETATM   19  C6  UNL     1      18.578  -0.009  52.282  1.00  0.00     0.155 C 
BRANCH  19  20
HETATM   20  C5  UNL     1      17.678  -1.097  52.748  1.00  0.00    -0.059 C 
HETATM   21  C4  UNL     1      18.305  -2.142  53.314  1.00  0.00     0.005 C 
HETATM   22  C3  UNL     1      17.673  -3.351  53.861  1.00  0.00     0.007 C 
HETATM   23  C2  UNL     1      16.497  -3.877  53.493  1.00  0.00    -0.062 C 
HETATM   24  C1  UNL     1      16.059  -5.127  54.203  1.00  0.00     0.048 C 
HETATM   25  C21 UNL     1      15.562  -3.385  52.467  1.00  0.00     0.003 C 
HETATM   26  C20 UNL     1      15.503  -2.102  52.104  1.00  0.00    -0.022 C 
HETATM   27  C19 UNL     1      16.243  -0.903  52.538  1.00  0.00     0.063 C 
ENDBRANCH  19  20
ENDBRANCH  17  19
ENDBRANCH   1  17
TORSDOF 3
ENDMDL
MODEL 2
REMARK VINA RESULT:      -9.2      3.893      7.897
REMARK  3 active torsions:
REMARK  status: ('A' for Active; 'I' for Inactive)
REMARK    1  A    between atoms: C5_5  and  C6_6 
REMARK    2  A    between atoms: C6_6  and  N1_7 
REMARK    3  A    between atoms: N1_7  and  C7_8 
ROOT
HETATM    1  C7  UNL     1      22.957   2.925  51.891  1.00  0.00     0.139 A 
HETATM    2  N2  UNL     1      21.784   2.274  52.090  1.00  0.00    -0.224 NA
HETATM    3  C8  UNL     1      21.716   1.100  52.781  1.00  0.00     0.237 A 
HETATM    4  N3  UNL     1      22.825   0.537  53.299  1.00  0.00    -0.223 NA
HETATM    5  C9  UNL     1      24.014   1.144  53.130  1.00  0.00     0.145 A 
HETATM    6  C10 UNL     1      24.075   2.325  52.432  1.00  0.00     0.058 A 
HETATM    7  C11 UNL     1      25.380   2.674  52.436  1.00  0.00     0.044 A 
HETATM    8  C12 UNL     1      26.108   1.709  53.134  1.00  0.00     0.018 A 
HETATM    9  N4  UNL     1      25.239   0.765  53.556  1.00  0.00    -0.333 N 
HETATM   10  C13 UNL     1      25.789  -0.354  54.312  1.00  0.00     0.152 C 
HETATM   11  C14 UNL     1      26.684  -1.128  53.452  1.00  0.00     0.170 C 
HETATM   12  N5  UNL     1      27.813  -0.550  52.794  1.00  0.00    -0.285 NA
HETATM   13  C15 UNL     1      28.913  -0.742  53.476  1.00  0.00     0.091 C 
HETATM   14  C16 UNL     1      28.691  -0.245  54.685  1.00  0.00     0.004 C 
HETATM   15  C17 UNL     1      28.034   0.906  54.496  1.00  0.00    -0.006 C 
HETATM   16  C18 UNL     1      27.543   1.717  53.364  1.00  0.00     0.085 C 
ENDROOT
BRANCH   1  17
HETATM   17  N1  UNL     1      23.010   4.148  51.166  1.00  0.00    -0.370 N 
HETATM   18  H8  UNL     1      23.047   5.025  51.717  1.00  0.00     0.161 HD
BRANCH  17  19
HETATM   19  C6  UNL     1      23.007   4.102  49.727  1.00  0.00     0.155 C 
BRANCH  19  20
HETATM   20  C5  UNL     1      24.268   4.652  49.161  1.00  0.00    -0.059 C 
HETATM   21  C4  UNL     1      25.370   3.937  49.441  1.00  0.00     0.005 C 
HETATM   22  C3  UNL     1      26.743   4.242  49.015  1.00  0.00     0.007 C 
HETATM   23  C2  UNL     1      27.242   5.450  48.722  1.00  0.00    -0.062 C 
HETATM   24  C1  UNL     1      28.685   5.507  48.307  1.00  0.00     0.048 C 
HETATM   25  C21 UNL     1      26.552   6.750  48.753  1.00  0.00     0.003 C 
HETATM   26  C20 UNL     1      25.232   6.868  48.600  1.00  0.00    -0.022 C 
HETATM   27  C19 UNL     1      24.157   5.883  48.377  1.00  0.00     0.063 C 
ENDBRANCH  19  20
ENDBRANCH  17  19
ENDBRANCH   1  17
TORSDOF 3
ENDMDL
MODEL 3
REMARK VINA RESULT:      -9.1      1.541      2.791
REMARK  3 active torsions:
REMARK  status: ('A' for Active; 'I' for Inactive)
REMARK    1  A    between atoms: C5_5  and  C6_6 
REMARK    2  A    between atoms: C6_6  and  N1_7 
REMARK    3  A    between atoms: N1_7  and  C7_8 
ROOT
HETATM    1  C7  UNL     1      22.401   3.162  51.896  1.00  0.00     0.139 A 
HETATM    2  N2  UNL     1      22.565   4.254  51.109  1.00  0.00    -0.224 NA
HETATM    3  C8  UNL     1      23.795   4.650  50.669  1.00  0.00     0.237 A 
HETATM    4  N3  UNL     1      24.904   3.963  51.003  1.00  0.00    -0.223 NA
HETATM    5  C9  UNL     1      24.793   2.870  51.782  1.00  0.00     0.145 A 
HETATM    6  C10 UNL     1      23.553   2.479  52.221  1.00  0.00     0.058 A 
HETATM    7  C11 UNL     1      23.772   1.373  52.967  1.00  0.00     0.044 A 
HETATM    8  C12 UNL     1      25.140   1.095  52.979  1.00  0.00     0.018 A 
HETATM    9  N4  UNL     1      25.757   2.040  52.237  1.00  0.00    -0.333 N 
HETATM   10  C13 UNL     1      27.208   1.946  52.114  1.00  0.00     0.152 C 
HETATM   11  C14 UNL     1      27.820   2.144  53.428  1.00  0.00     0.170 C 
HETATM   12  N5  UNL     1      27.502   1.329  54.558  1.00  0.00    -0.285 NA
HETATM   13  C15 UNL     1      28.373   0.366  54.713  1.00  0.00     0.091 C 
HETATM   14  C16 UNL     1      28.396  -0.301  53.567  1.00  0.00     0.004 C 
HETATM   15  C17 UNL     1      27.120  -0.405  53.176  1.00  0.00    -0.006 C 
HETATM   16  C18 UNL     1      25.785  -0.011  53.667  1.00  0.00     0.085 C 
ENDROOT
BRANCH   1  17
HETATM   17  N1  UNL     1      21.111   2.764  52.346  1.00  0.00    -0.370 N 
HETATM   18  H8  UNL     1      20.857   2.996  53.324  1.00  0.00     0.161 HD
BRANCH  17  19
HETATM   19  C6  UNL     1      20.241   2.071  51.432  1.00  0.00     0.155 C 
BRANCH  19  20
HETATM   20  C5  UNL     1      19.883   0.719  51.937  1.00  0.00    -0.059 C 
HETATM   21  C4  UNL     1      18.566   0.458  51.963  1.00  0.00     0.005 C 
HETATM   22  C3  UNL     1      17.928  -0.787  52.412  1.00  0.00     0.007 C 
HETATM   23  C2  UNL     1      18.419  -1.668  53.295  1.00  0.00    -0.062 C 
HETATM   24  C1  UNL     1      17.576  -2.874  53.593  1.00  0.00     0.048 C 
HETATM   25  C21 UNL     1      19.697  -1.606  54.023  1.00  0.00     0.003 C 
HETATM   26  C20 UNL     1      20.758  -0.941  53.560  1.00  0.00    -0.022 C 
HETATM   27  C19 UNL     1      20.990  -0.151  52.337  1.00  0.00     0.063 C 
ENDBRANCH  19  20
ENDBRANCH  17  19
ENDBRANCH   1  17
TORSDOF 3
ENDMDL
MODEL 4
REMARK VINA RESULT:      -9.1      3.610      6.140
REMARK  3 active torsions:
REMARK  status: ('A' for Active; 'I' for Inactive)
REMARK    1  A    between atoms: C5_5  and  C6_6 
REMARK    2  A    between atoms: C6_6  and  N1_7 
REMARK    3  A    between atoms: N1_7  and  C7_8 
ROOT
HETATM    1  C7  UNL     1      22.316  -0.183  52.666  1.00  0.00     0.139 A 
HETATM    2  N2  UNL     1      21.728  -0.961  53.608  1.00  0.00    -0.224 NA
HETATM    3  C8  UNL     1      22.379  -1.338  54.745  1.00  0.00     0.237 A 
HETATM    4  N3  UNL     1      23.646  -0.945  54.980  1.00  0.00    -0.223 NA
HETATM    5  C9  UNL     1      24.275  -0.171  54.075  1.00  0.00     0.145 A 
HETATM    6  C10 UNL     1      23.613   0.203  52.933  1.00  0.00     0.058 A 
HETATM    7  C11 UNL     1      24.494   0.961  52.242  1.00  0.00     0.044 A 
HETATM    8  C12 UNL     1      25.686   1.045  52.965  1.00  0.00     0.018 A 
HETATM    9  N4  UNL     1      25.529   0.333  54.101  1.00  0.00    -0.333 N 
HETATM   10  C13 UNL     1      26.664   0.280  55.016  1.00  0.00     0.152 C 
HETATM   11  C14 UNL     1      27.774  -0.419  54.370  1.00  0.00     0.170 C 
HETATM   12  N5  UNL     1      28.335   0.004  53.125  1.00  0.00    -0.285 NA
HETATM   13  C15 UNL     1      29.398   0.744  53.308  1.00  0.00     0.091 C 
HETATM   14  C16 UNL     1      29.023   1.747  54.091  1.00  0.00     0.004 C 
HETATM   15  C17 UNL     1      27.822   2.134  53.643  1.00  0.00    -0.006 C 
HETATM   16  C18 UNL     1      26.882   1.769  52.565  1.00  0.00     0.085 C 
ENDROOT
BRANCH   1  17
HETATM   17  N1  UNL     1      21.622   0.200  51.485  1.00  0.00    -0.370 N 
HETATM   18  H8  UNL     1      21.703  -0.427  50.662  1.00  0.00     0.161 HD
BRANCH  17  19
HETATM   19  C6  UNL     1      20.857   1.419  51.495  1.00  0.00     0.155 C 
BRANCH  19  20
HETATM   20  C5  UNL     1      21.680   2.585  51.078  1.00  0.00    -0.059 C 
HETATM   21  C4  UNL     1      22.293   2.446  49.892  1.00  0.00     0.005 C 
HETATM   22  C3  UNL     1      23.165   3.431  49.235  1.00  0.00     0.007 C 
HETATM   23  C2  UNL     1      23.895   4.381  49.834  1.00  0.00    -0.062 C 
HETATM   24  C1  UNL     1      24.711   5.274  48.944  1.00  0.00     0.048 C 
HETATM   25  C21 UNL     1      24.005   4.669  51.274  1.00  0.00     0.003 C 
HETATM   26  C20 UNL     1      23.041   4.364  52.145  1.00  0.00    -0.022 C 
HETATM   27  C19 UNL     1      21.720   3.726  51.994  1.00  0.00     0.063 C 
ENDBRANCH  19  20
ENDBRANCH  17  19
ENDBRANCH   1  17
TORSDOF 3
ENDMDL
MODEL 5
REMARK VINA RESULT:      -9.1      5.733      8.537
REMARK  3 active torsions:
REMARK  status: ('A' for Active; 'I' for Inactive)
REMARK    1  A    between atoms: C5_5  and  C6_6 
REMARK    2  A    between atoms: C6_6  and  N1_7 
REMARK    3  A    between atoms: N1_7  and  C7_8 
ROOT
HETATM    1  C7  UNL     1      25.657   4.412  49.907  1.00  0.00     0.139 A 
HETATM    2  N2  UNL     1      24.581   5.016  50.469  1.00  0.00    -0.224 NA
HETATM    3  C8  UNL     1      24.417   6.370  50.444  1.00  0.00     0.237 A 
HETATM    4  N3  UNL     1      25.328   7.167  49.853  1.00  0.00    -0.223 NA
HETATM    5  C9  UNL     1      26.414   6.616  49.281  1.00  0.00     0.145 A 
HETATM    6  C10 UNL     1      26.572   5.253  49.310  1.00  0.00     0.058 A 
HETATM    7  C11 UNL     1      27.736   5.015  48.666  1.00  0.00     0.044 A 
HETATM    8  C12 UNL     1      28.281   6.231  48.247  1.00  0.00     0.018 A 
HETATM    9  N4  UNL     1      27.444   7.214  48.641  1.00  0.00    -0.333 N 
HETATM   10  C13 UNL     1      27.821   8.583  48.308  1.00  0.00     0.152 C 
HETATM   11  C14 UNL     1      29.053   8.931  49.016  1.00  0.00     0.170 C 
HETATM   12  N5  UNL     1      30.262   8.181  48.878  1.00  0.00    -0.285 NA
HETATM   13  C15 UNL     1      31.060   8.721  47.994  1.00  0.00     0.091 C 
HETATM   14  C16 UNL     1      30.361   8.814  46.871  1.00  0.00     0.004 C 
HETATM   15  C17 UNL     1      29.678   7.668  46.766  1.00  0.00    -0.006 C 
HETATM   16  C18 UNL     1      29.527   6.407  47.518  1.00  0.00     0.085 C 
ENDROOT
BRANCH   1  17
HETATM   17  N1  UNL     1      25.812   2.998  49.943  1.00  0.00    -0.370 N 
HETATM   18  H8  UNL     1      25.361   2.452  49.186  1.00  0.00     0.161 HD
BRANCH  17  19
HETATM   19  C6  UNL     1      26.576   2.412  51.013  1.00  0.00     0.155 C 
BRANCH  19  20
HETATM   20  C5  UNL     1      25.813   1.339  51.705  1.00  0.00    -0.059 C 
HETATM   21  C4  UNL     1      24.527   1.634  51.956  1.00  0.00     0.005 C 
HETATM   22  C3  UNL     1      23.544   0.769  52.623  1.00  0.00     0.007 C 
HETATM   23  C2  UNL     1      23.801  -0.203  53.509  1.00  0.00    -0.062 C 
HETATM   24  C1  UNL     1      22.621  -0.954  54.056  1.00  0.00     0.048 C 
HETATM   25  C21 UNL     1      25.109  -0.638  54.026  1.00  0.00     0.003 C 
HETATM   26  C20 UNL     1      26.244  -0.475  53.342  1.00  0.00    -0.022 C 
HETATM   27  C19 UNL     1      26.542   0.110  52.022  1.00  0.00     0.063 C 
ENDBRANCH  19  20
ENDBRANCH  17  19
ENDBRANCH   1  17
TORSDOF 3
ENDMDL
MODEL 6
REMARK VINA RESULT:      -9.0      8.235     11.393
REMARK  3 active torsions:
REMARK  status: ('A' for Active; 'I' for Inactive)
REMARK    1  A    between atoms: C5_5  and  C6_6 
REMARK    2  A    between atoms: C6_6  and  N1_7 
REMARK    3  A    between atoms: N1_7  and  C7_8 
ROOT
HETATM    1  C7  UNL     1      29.311   7.702  48.446  1.00  0.00     0.139 A 
HETATM    2  N2  UNL     1      29.492   9.013  48.152  1.00  0.00    -0.224 NA
HETATM    3  C8  UNL     1      30.579   9.455  47.456  1.00  0.00     0.237 A 
HETATM    4  N3  UNL     1      31.524   8.595  47.028  1.00  0.00    -0.223 NA
HETATM    5  C9  UNL     1      31.389   7.282  47.295  1.00  0.00     0.145 A 
HETATM    6  C10 UNL     1      30.293   6.846  47.996  1.00  0.00     0.058 A 
HETATM    7  C11 UNL     1      30.446   5.507  48.099  1.00  0.00     0.044 A 
HETATM    8  C12 UNL     1      31.630   5.133  47.461  1.00  0.00     0.018 A 
HETATM    9  N4  UNL     1      32.202   6.253  46.969  1.00  0.00    -0.333 N 
HETATM   10  C13 UNL     1      33.466   6.097  46.257  1.00  0.00     0.152 C 
HETATM   11  C14 UNL     1      34.489   5.616  47.186  1.00  0.00     0.170 C 
HETATM   12  N5  UNL     1      34.346   4.407  47.935  1.00  0.00    -0.285 NA
HETATM   13  C15 UNL     1      34.946   3.406  47.343  1.00  0.00     0.091 C 
HETATM   14  C16 UNL     1      34.437   3.338  46.121  1.00  0.00     0.004 C 
HETATM   15  C17 UNL     1      33.121   3.539  46.258  1.00  0.00    -0.006 C 
HETATM   16  C18 UNL     1      32.154   3.782  47.347  1.00  0.00     0.085 C 
ENDROOT
BRANCH   1  17
HETATM   17  N1  UNL     1      28.172   7.260  49.175  1.00  0.00    -0.370 N 
HETATM   18  H8  UNL     1      28.321   6.966  50.158  1.00  0.00     0.161 HD
BRANCH  17  19
HETATM   19  C6  UNL     1      26.892   7.243  48.516  1.00  0.00     0.155 C 
BRANCH  19  20
HETATM   20  C5  UNL     1      26.215   5.927  48.669  1.00  0.00    -0.059 C 
HETATM   21  C4  UNL     1      24.874   5.979  48.657  1.00  0.00     0.005 C 
HETATM   22  C3  UNL     1      23.952   4.842  48.788  1.00  0.00     0.007 C 
HETATM   23  C2  UNL     1      24.196   3.679  49.407  1.00  0.00    -0.062 C 
HETATM   24  C1  UNL     1      23.088   2.664  49.408  1.00  0.00     0.048 C 
HETATM   25  C21 UNL     1      25.426   3.258  50.098  1.00  0.00     0.003 C 
HETATM   26  C20 UNL     1      26.627   3.756  49.796  1.00  0.00    -0.022 C 
HETATM   27  C19 UNL     1      27.079   4.754  48.809  1.00  0.00     0.063 C 
ENDBRANCH  19  20
ENDBRANCH  17  19
ENDBRANCH   1  17
TORSDOF 3
ENDMDL
MODEL 7
REMARK VINA RESULT:      -9.0      1.649      2.525
REMARK  3 active torsions:
REMARK  status: ('A' for Active; 'I' for Inactive)
REMARK    1  A    between atoms: C5_5  and  C6_6 
REMARK    2  A    between atoms: C6_6  and  N1_7 
REMARK    3  A    between atoms: N1_7  and  C7_8 
ROOT
HETATM    1  C7  UNL     1      22.262   0.857  52.306  1.00  0.00     0.139 A 
HETATM    2  N2  UNL     1      21.920   1.971  51.613  1.00  0.00    -0.224 NA
HETATM    3  C8  UNL     1      22.852   2.865  51.174  1.00  0.00     0.237 A 
HETATM    4  N3  UNL     1      24.163   2.673  51.415  1.00  0.00    -0.223 NA
HETATM    5  C9  UNL     1      24.554   1.581  52.098  1.00  0.00     0.145 A 
HETATM    6  C10 UNL     1      23.611   0.686  52.537  1.00  0.00     0.058 A 
HETATM    7  C11 UNL     1      24.306  -0.280  53.176  1.00  0.00     0.044 A 
HETATM    8  C12 UNL     1      25.667   0.028  53.125  1.00  0.00     0.018 A 
HETATM    9  N4  UNL     1      25.800   1.190  52.451  1.00  0.00    -0.333 N 
HETATM   10  C13 UNL     1      27.152   1.709  52.278  1.00  0.00     0.152 C 
HETATM   11  C14 UNL     1      27.711   2.051  53.586  1.00  0.00     0.170 C 
HETATM   12  N5  UNL     1      27.822   1.102  54.650  1.00  0.00    -0.285 NA
HETATM   13  C15 UNL     1      29.018   0.573  54.694  1.00  0.00     0.091 C 
HETATM   14  C16 UNL     1      29.239   0.054  53.494  1.00  0.00     0.004 C 
HETATM   15  C17 UNL     1      28.094  -0.537  53.132  1.00  0.00    -0.006 C 
HETATM   16  C18 UNL     1      26.747  -0.761  53.694  1.00  0.00     0.085 C 
ENDROOT
BRANCH   1  17
HETATM   17  N1  UNL     1      21.276  -0.065  52.756  1.00  0.00    -0.370 N 
HETATM   18  H8  UNL     1      21.534  -1.069  52.766  1.00  0.00     0.161 HD
BRANCH  17  19
HETATM   19  C6  UNL     1      19.993   0.440  53.168  1.00  0.00     0.155 C 
BRANCH  19  20
HETATM   20  C5  UNL     1      18.889  -0.154  52.367  1.00  0.00    -0.059 C 
HETATM   21  C4  UNL     1      18.700   0.410  51.163  1.00  0.00     0.005 C 
HETATM   22  C3  UNL     1      17.689   0.030  50.167  1.00  0.00     0.007 C 
HETATM   23  C2  UNL     1      16.507  -0.555  50.406  1.00  0.00    -0.062 C 
HETATM   24  C1  UNL     1      15.639  -0.847  49.215  1.00  0.00     0.048 C 
HETATM   25  C21 UNL     1      15.938  -0.956  51.704  1.00  0.00     0.003 C 
HETATM   26  C20 UNL     1      16.697  -1.246  52.764  1.00  0.00    -0.022 C 
HETATM   27  C19 UNL     1      18.156  -1.265  52.976  1.00  0.00     0.063 C 
ENDBRANCH  19  20
ENDBRANCH  17  19
ENDBRANCH   1  17
TORSDOF 3
ENDMDL
MODEL 8
REMARK VINA RESULT:      -8.9      5.496      8.614
REMARK  3 active torsions:
REMARK  status: ('A' for Active; 'I' for Inactive)
REMARK    1  A    between atoms: C5_5  and  C6_6 
REMARK    2  A    between atoms: C6_6  and  N1_7 
REMARK    3  A    between atoms: N1_7  and  C7_8 
ROOT
HETATM    1  C7  UNL     1      23.704   3.284  51.311  1.00  0.00     0.139 A 
HETATM    2  N2  UNL     1      22.518   3.585  51.896  1.00  0.00    -0.224 NA
HETATM    3  C8  UNL     1      21.961   4.827  51.804  1.00  0.00     0.237 A 
HETATM    4  N3  UNL     1      22.574   5.812  51.120  1.00  0.00    -0.223 NA
HETATM    5  C9  UNL     1      23.754   5.563  50.521  1.00  0.00     0.145 A 
HETATM    6  C10 UNL     1      24.308   4.312  50.619  1.00  0.00     0.058 A 
HETATM    7  C11 UNL     1      25.466   4.380  49.926  1.00  0.00     0.044 A 
HETATM    8  C12 UNL     1      25.613   5.669  49.410  1.00  0.00     0.018 A 
HETATM    9  N4  UNL     1      24.537   6.390  49.793  1.00  0.00    -0.333 N 
HETATM   10  C13 UNL     1      24.482   7.783  49.364  1.00  0.00     0.152 C 
HETATM   11  C14 UNL     1      25.580   8.524  49.982  1.00  0.00     0.170 C 
HETATM   12  N5  UNL     1      26.951   8.153  49.821  1.00  0.00    -0.285 NA
HETATM   13  C15 UNL     1      27.522   8.839  48.865  1.00  0.00     0.091 C 
HETATM   14  C16 UNL     1      26.787   8.645  47.778  1.00  0.00     0.004 C 
HETATM   15  C17 UNL     1      26.469   7.344  47.776  1.00  0.00    -0.006 C 
HETATM   16  C18 UNL     1      26.724   6.150  48.605  1.00  0.00     0.085 C 
ENDROOT
BRANCH   1  17
HETATM   17  N1  UNL     1      24.270   1.983  51.418  1.00  0.00    -0.370 N 
HETATM   18  H8  UNL     1      24.397   1.447  50.540  1.00  0.00     0.161 HD
BRANCH  17  19
HETATM   19  C6  UNL     1      24.631   1.490  52.721  1.00  0.00     0.155 C 
BRANCH  19  20
HETATM   20  C5  UNL     1      26.071   1.122  52.787  1.00  0.00    -0.059 C 
HETATM   21  C4  UNL     1      26.311  -0.165  53.084  1.00  0.00     0.005 C 
HETATM   22  C3  UNL     1      27.628  -0.803  53.216  1.00  0.00     0.007 C 
HETATM   23  C2  UNL     1      28.779  -0.205  53.551  1.00  0.00    -0.062 C 
HETATM   24  C1  UNL     1      30.002  -1.074  53.620  1.00  0.00     0.048 C 
HETATM   25  C21 UNL     1      29.007   1.215  53.866  1.00  0.00     0.003 C 
HETATM   26  C20 UNL     1      28.226   2.191  53.395  1.00  0.00    -0.022 C 
HETATM   27  C19 UNL     1      27.037   2.190  52.523  1.00  0.00     0.063 C 
ENDBRANCH  19  20
ENDBRANCH  17  19
ENDBRANCH   1  17
TORSDOF 3
ENDMDL
MODEL 9
REMARK VINA RESULT:      -8.9      5.806      8.952
REMARK  3 active torsions:
REMARK  status: ('A' for Active; 'I' for Inactive)
REMARK    1  A    between atoms: C5_5  and  C6_6 
REMARK    2  A    between atoms: C6_6  and  N1_7 
REMARK    3  A    between atoms: N1_7  and  C7_8 
ROOT
HETATM    1  C7  UNL     1      25.080   4.342  50.384  1.00  0.00     0.139 A 
HETATM    2  N2  UNL     1      24.046   4.986  50.980  1.00  0.00    -0.224 NA
HETATM    3  C8  UNL     1      23.904   6.341  50.915  1.00  0.00     0.237 A 
HETATM    4  N3  UNL     1      24.795   7.100  50.249  1.00  0.00    -0.223 NA
HETATM    5  C9  UNL     1      25.840   6.507  49.639  1.00  0.00     0.145 A 
HETATM    6  C10 UNL     1      25.977   5.144  49.710  1.00  0.00     0.058 A 
HETATM    7  C11 UNL     1      27.100   4.862  49.013  1.00  0.00     0.044 A 
HETATM    8  C12 UNL     1      27.642   6.051  48.523  1.00  0.00     0.018 A 
HETATM    9  N4  UNL     1      26.844   7.063  48.925  1.00  0.00    -0.333 N 
HETATM   10  C13 UNL     1      27.226   8.412  48.523  1.00  0.00     0.152 C 
HETATM   11  C14 UNL     1      28.500   8.762  49.152  1.00  0.00     0.170 C 
HETATM   12  N5  UNL     1      29.687   7.985  48.977  1.00  0.00    -0.285 NA
HETATM   13  C15 UNL     1      30.446   8.478  48.032  1.00  0.00     0.091 C 
HETATM   14  C16 UNL     1      29.689   8.545  46.945  1.00  0.00     0.004 C 
HETATM   15  C17 UNL     1      28.981   7.408  46.919  1.00  0.00    -0.006 C 
HETATM   16  C18 UNL     1      28.849   6.178  47.723  1.00  0.00     0.085 C 
ENDROOT
BRANCH   1  17
HETATM   17  N1  UNL     1      25.213   2.928  50.463  1.00  0.00    -0.370 N 
HETATM   18  H8  UNL     1      25.738   2.457  49.702  1.00  0.00     0.161 HD
BRANCH  17  19
HETATM   19  C6  UNL     1      24.619   2.237  51.577  1.00  0.00     0.155 C 
BRANCH  19  20
HETATM   20  C5  UNL     1      25.622   1.420  52.311  1.00  0.00    -0.059 C 
HETATM   21  C4  UNL     1      26.853   1.952  52.363  1.00  0.00     0.005 C 
HETATM   22  C3  UNL     1      28.034   1.369  53.017  1.00  0.00     0.007 C 
HETATM   23  C2  UNL     1      28.266   0.068  53.240  1.00  0.00    -0.062 C 
HETATM   24  C1  UNL     1      29.553  -0.283  53.930  1.00  0.00     0.048 C 
HETATM   25  C21 UNL     1      27.413  -1.080  52.890  1.00  0.00     0.003 C 
HETATM   26  C20 UNL     1      26.090  -0.977  52.751  1.00  0.00    -0.022 C 
HETATM   27  C19 UNL     1      25.154   0.155  52.880  1.00  0.00     0.063 C 
ENDBRANCH  19  20
ENDBRANCH  17  19
ENDBRANCH   1  17
TORSDOF 3
ENDMDL
