MODEL 1
REMARK VINA RESULT:      -8.4      0.000      0.000
REMARK  7 active torsions:
REMARK  status: ('A' for Active; 'I' for Inactive)
REMARK    1  A    between atoms: S1_2  and  C2_4 
REMARK    2  A    between atoms: C5_7  and  N1_8 
REMARK    3  A    between atoms: N1_8  and  C6_9 
REMARK    4  A    between atoms: C7_11  and  N3_12 
REMARK    5  A    between atoms: N4_13  and  C8_14 
REMARK    6  A    between atoms: C8_14  and  N5_16 
REMARK    7  A    between atoms: N5_16  and  C9_17 
ROOT
HETATM    1  C6  UNL     1      23.350   3.397  51.671  1.00  0.00     0.760 A 
HETATM    2  N2  UNL     1      22.928   4.599  52.140  1.00  0.00     0.131 NA
HETATM    3  C7  UNL     1      23.237   5.482  51.132  1.00  0.00     0.739 A 
HETATM    4  N4  UNL     1      23.831   4.835  50.080  1.00  0.00    -0.018 N 
HETATM    5  N6  UNL     1      23.879   3.558  50.453  1.00  0.00     0.044 NA
ENDROOT
BRANCH   1   6
HETATM    6  N1  UNL     1      23.263   2.166  52.359  1.00  0.00    -0.186 N 
HETATM    7  H7  UNL     1      22.326   1.707  52.299  1.00  0.00     0.184 HD
BRANCH   6   8
HETATM    8  C5  UNL     1      24.189   1.396  53.136  1.00  0.00     0.050 C 
HETATM    9  C4  UNL     1      25.391   2.212  53.436  1.00  0.00     0.029 C 
HETATM   10  C3  UNL     1      26.572   1.635  53.710  1.00  0.00     0.015 C 
HETATM   11  C2  UNL     1      27.098   0.252  53.816  1.00  0.00     0.223 C 
HETATM   12  N7  UNL     1      26.160  -0.639  54.410  1.00  0.00    -0.280 NA
HETATM   13  C16 UNL     1      24.887  -0.687  54.279  1.00  0.00     0.114 C 
HETATM   14  C15 UNL     1      23.944   0.133  53.492  1.00  0.00     0.049 C 
BRANCH  11  15
HETATM   15  S1  UNL     1      28.693   0.245  54.633  1.00  0.00     0.040 S 
HETATM   16  C1  UNL     1      29.942  -0.480  53.588  1.00  0.00     0.129 C 
HETATM   17  O1  UNL     1      29.104   1.697  54.906  1.00  0.00    -0.256 OA
ENDBRANCH  11  15
ENDBRANCH   6   8
ENDBRANCH   1   6
BRANCH   3  18
HETATM   18  N3  UNL     1      22.864   6.841  51.439  1.00  0.00    -0.230 N 
HETATM   19  H8  UNL     1      23.300   7.611  50.858  1.00  0.00     0.174 HD
HETATM   20  H9  UNL     1      22.190   6.819  52.228  1.00  0.00     0.174 HD
ENDBRANCH   3  18
BRANCH   4  21
HETATM   21  C8  UNL     1      24.162   5.757  49.027  1.00  0.00     0.218 C 
HETATM   22  S2  UNL     1      22.944   5.536  47.959  1.00  0.00    -0.038 SA
BRANCH  21  23
HETATM   23  N5  UNL     1      25.321   6.565  49.092  1.00  0.00    -0.326 N 
HETATM   24  H10 UNL     1      25.080   7.477  49.573  1.00  0.00     0.168 HD
BRANCH  23  25
HETATM   25  C9  UNL     1      26.659   6.440  48.685  1.00  0.00     0.112 A 
HETATM   26  C10 UNL     1      27.379   5.270  48.671  1.00  0.00     0.146 A 
HETATM   27  F1  UNL     1      26.816   4.118  49.086  1.00  0.00    -0.204 F 
HETATM   28  C11 UNL     1      28.684   5.133  48.262  1.00  0.00     0.045 A 
HETATM   29  C12 UNL     1      29.301   6.287  47.833  1.00  0.00     0.006 A 
HETATM   30  C13 UNL     1      28.651   7.482  47.818  1.00  0.00     0.045 A 
HETATM   31  C14 UNL     1      27.351   7.517  48.246  1.00  0.00     0.146 A 
HETATM   32  F2  UNL     1      26.741   8.743  48.209  1.00  0.00    -0.204 F 
ENDBRANCH  23  25
ENDBRANCH  21  23
ENDBRANCH   4  21
TORSDOF 7
ENDMDL
MODEL 2
REMARK VINA RESULT:      -8.2      1.163      1.977
REMARK  7 active torsions:
REMARK  status: ('A' for Active; 'I' for Inactive)
REMARK    1  A    between atoms: S1_2  and  C2_4 
REMARK    2  A    between atoms: C5_7  and  N1_8 
REMARK    3  A    between atoms: N1_8  and  C6_9 
REMARK    4  A    between atoms: C7_11  and  N3_12 
REMARK    5  A    between atoms: N4_13  and  C8_14 
REMARK    6  A    between atoms: C8_14  and  N5_16 
REMARK    7  A    between atoms: N5_16  and  C9_17 
ROOT
HETATM    1  C6  UNL     1      23.940   4.193  51.604  1.00  0.00     0.760 A 
HETATM    2  N2  UNL     1      23.586   5.415  52.077  1.00  0.00     0.131 NA
HETATM    3  C7  UNL     1      24.177   6.299  51.205  1.00  0.00     0.739 A 
HETATM    4  N4  UNL     1      24.872   5.632  50.230  1.00  0.00    -0.018 N 
HETATM    5  N6  UNL     1      24.699   4.344  50.513  1.00  0.00     0.044 NA
ENDROOT
BRANCH   1   6
HETATM    6  N1  UNL     1      23.582   2.952  52.177  1.00  0.00    -0.186 N 
HETATM    7  H7  UNL     1      22.568   2.715  52.088  1.00  0.00     0.184 HD
BRANCH   6   8
HETATM    8  C5  UNL     1      24.314   1.929  52.865  1.00  0.00     0.050 C 
HETATM    9  C4  UNL     1      25.519   2.516  53.501  1.00  0.00     0.029 C 
HETATM   10  C3  UNL     1      26.593   1.762  53.783  1.00  0.00     0.015 C 
HETATM   11  C2  UNL     1      26.982   0.339  53.629  1.00  0.00     0.223 C 
HETATM   12  N7  UNL     1      25.895  -0.548  53.871  1.00  0.00    -0.280 NA
HETATM   13  C16 UNL     1      24.657  -0.420  53.569  1.00  0.00     0.114 C 
HETATM   14  C15 UNL     1      23.915   0.656  52.880  1.00  0.00     0.049 C 
BRANCH  11  15
HETATM   15  S1  UNL     1      28.428  -0.030  54.621  1.00  0.00     0.040 S 
HETATM   16  C1  UNL     1      29.686  -0.827  53.642  1.00  0.00     0.129 C 
HETATM   17  O1  UNL     1      29.011   1.291  55.137  1.00  0.00    -0.256 OA
ENDBRANCH  11  15
ENDBRANCH   6   8
ENDBRANCH   1   6
BRANCH   3  18
HETATM   18  N3  UNL     1      23.919   7.678  51.537  1.00  0.00    -0.230 N 
HETATM   19  H8  UNL     1      23.264   7.873  52.346  1.00  0.00     0.174 HD
HETATM   20  H9  UNL     1      24.457   8.274  50.879  1.00  0.00     0.174 HD
ENDBRANCH   3  18
BRANCH   4  21
HETATM   21  C8  UNL     1      25.498   6.554  49.320  1.00  0.00     0.218 C 
HETATM   22  S2  UNL     1      24.371   6.725  48.149  1.00  0.00    -0.038 SA
BRANCH  21  23
HETATM   23  N5  UNL     1      26.794   7.065  49.563  1.00  0.00    -0.326 N 
HETATM   24  H10 UNL     1      26.947   7.140  50.608  1.00  0.00     0.168 HD
BRANCH  23  25
HETATM   25  C9  UNL     1      27.879   7.474  48.770  1.00  0.00     0.112 A 
HETATM   26  C10 UNL     1      28.322   8.768  48.635  1.00  0.00     0.146 A 
HETATM   27  F1  UNL     1      27.694   9.773  49.276  1.00  0.00    -0.204 F 
HETATM   28  C11 UNL     1      29.390   9.177  47.873  1.00  0.00     0.045 A 
HETATM   29  C12 UNL     1      30.059   8.181  47.196  1.00  0.00     0.006 A 
HETATM   30  C13 UNL     1      29.679   6.878  47.282  1.00  0.00     0.045 A 
HETATM   31  C14 UNL     1      28.600   6.569  48.067  1.00  0.00     0.146 A 
HETATM   32  F2  UNL     1      28.259   5.244  48.123  1.00  0.00    -0.204 F 
ENDBRANCH  23  25
ENDBRANCH  21  23
ENDBRANCH   4  21
TORSDOF 7
ENDMDL
MODEL 3
REMARK VINA RESULT:      -7.9      3.566      7.389
REMARK  7 active torsions:
REMARK  status: ('A' for Active; 'I' for Inactive)
REMARK    1  A    between atoms: S1_2  and  C2_4 
REMARK    2  A    between atoms: C5_7  and  N1_8 
REMARK    3  A    between atoms: N1_8  and  C6_9 
REMARK    4  A    between atoms: C7_11  and  N3_12 
REMARK    5  A    between atoms: N4_13  and  C8_14 
REMARK    6  A    between atoms: C8_14  and  N5_16 
REMARK    7  A    between atoms: N5_16  and  C9_17 
ROOT
HETATM    1  C6  UNL     1      26.373   6.677  49.266  1.00  0.00     0.760 A 
HETATM    2  N2  UNL     1      25.757   7.376  50.252  1.00  0.00     0.131 NA
HETATM    3  C7  UNL     1      24.941   6.453  50.862  1.00  0.00     0.739 A 
HETATM    4  N4  UNL     1      25.058   5.226  50.262  1.00  0.00    -0.018 N 
HETATM    5  N6  UNL     1      25.947   5.409  49.289  1.00  0.00     0.044 NA
ENDROOT
BRANCH   1   6
HETATM    6  N1  UNL     1      27.308   7.200  48.343  1.00  0.00    -0.186 N 
HETATM    7  H7  UNL     1      26.886   7.524  47.443  1.00  0.00     0.184 HD
BRANCH   6   8
HETATM    8  C5  UNL     1      28.729   7.387  48.368  1.00  0.00     0.050 C 
HETATM    9  C4  UNL     1      29.401   6.186  47.812  1.00  0.00     0.029 C 
HETATM   10  C3  UNL     1      30.668   5.885  48.140  1.00  0.00     0.015 C 
HETATM   11  C2  UNL     1      31.726   6.468  49.001  1.00  0.00     0.223 C 
HETATM   12  N7  UNL     1      31.736   7.890  48.956  1.00  0.00    -0.280 NA
HETATM   13  C16 UNL     1      30.754   8.710  48.892  1.00  0.00     0.114 C 
HETATM   14  C15 UNL     1      29.293   8.498  48.842  1.00  0.00     0.049 C 
BRANCH  11  15
HETATM   15  S1  UNL     1      33.319   5.739  48.621  1.00  0.00     0.040 S 
HETATM   16  C1  UNL     1      33.122   4.186  47.768  1.00  0.00     0.129 C 
HETATM   17  O1  UNL     1      34.074   6.688  47.683  1.00  0.00    -0.256 OA
ENDBRANCH  11  15
ENDBRANCH   6   8
ENDBRANCH   1   6
BRANCH   3  18
HETATM   18  N3  UNL     1      24.184   7.005  51.958  1.00  0.00    -0.230 N 
HETATM   19  H8  UNL     1      23.620   6.334  52.551  1.00  0.00     0.174 HD
HETATM   20  H9  UNL     1      24.336   8.032  51.969  1.00  0.00     0.174 HD
ENDBRANCH   3  18
BRANCH   4  21
HETATM   21  C8  UNL     1      24.200   4.259  50.893  1.00  0.00     0.218 C 
HETATM   22  S2  UNL     1      22.848   4.325  49.976  1.00  0.00    -0.038 SA
BRANCH  21  23
HETATM   23  N5  UNL     1      24.618   3.536  52.034  1.00  0.00    -0.326 N 
HETATM   24  H10 UNL     1      24.593   4.175  52.878  1.00  0.00     0.168 HD
BRANCH  23  25
HETATM   25  C9  UNL     1      25.036   2.220  52.294  1.00  0.00     0.112 A 
HETATM   26  C10 UNL     1      24.290   1.261  52.935  1.00  0.00     0.146 A 
HETATM   27  F1  UNL     1      23.054   1.551  53.391  1.00  0.00    -0.204 F 
HETATM   28  C11 UNL     1      24.683  -0.032  53.182  1.00  0.00     0.045 A 
HETATM   29  C12 UNL     1      25.941  -0.370  52.736  1.00  0.00     0.006 A 
HETATM   30  C13 UNL     1      26.737   0.526  52.093  1.00  0.00     0.045 A 
HETATM   31  C14 UNL     1      26.256   1.792  51.894  1.00  0.00     0.146 A 
HETATM   32  F2  UNL     1      27.094   2.656  51.240  1.00  0.00    -0.204 F 
ENDBRANCH  23  25
ENDBRANCH  21  23
ENDBRANCH   4  21
TORSDOF 7
ENDMDL
MODEL 4
REMARK VINA RESULT:      -7.8      2.436      3.342
REMARK  7 active torsions:
REMARK  status: ('A' for Active; 'I' for Inactive)
REMARK    1  A    between atoms: S1_2  and  C2_4 
REMARK    2  A    between atoms: C5_7  and  N1_8 
REMARK    3  A    between atoms: N1_8  and  C6_9 
REMARK    4  A    between atoms: C7_11  and  N3_12 
REMARK    5  A    between atoms: N4_13  and  C8_14 
REMARK    6  A    between atoms: C8_14  and  N5_16 
REMARK    7  A    between atoms: N5_16  and  C9_17 
ROOT
HETATM    1  C6  UNL     1      25.107   4.612  50.153  1.00  0.00     0.760 A 
HETATM    2  N2  UNL     1      24.572   5.662  50.826  1.00  0.00     0.131 NA
HETATM    3  C7  UNL     1      25.214   6.760  50.306  1.00  0.00     0.739 A 
HETATM    4  N4  UNL     1      26.116   6.388  49.343  1.00  0.00    -0.018 N 
HETATM    5  N6  UNL     1      26.016   5.063  49.281  1.00  0.00     0.044 NA
ENDROOT
BRANCH   1   6
HETATM    6  N1  UNL     1      24.775   3.252  50.346  1.00  0.00    -0.186 N 
HETATM    7  H7  UNL     1      24.163   2.850  49.600  1.00  0.00     0.184 HD
BRANCH   6   8
HETATM    8  C5  UNL     1      25.095   2.286  51.355  1.00  0.00     0.050 C 
HETATM    9  C4  UNL     1      26.518   2.429  51.752  1.00  0.00     0.029 C 
HETATM   10  C3  UNL     1      27.196   1.403  52.290  1.00  0.00     0.015 C 
HETATM   11  C2  UNL     1      26.910  -0.008  52.649  1.00  0.00     0.223 C 
HETATM   12  N7  UNL     1      25.601  -0.175  53.181  1.00  0.00    -0.280 NA
HETATM   13  C16 UNL     1      24.506   0.398  52.845  1.00  0.00     0.114 C 
HETATM   14  C15 UNL     1      24.198   1.412  51.816  1.00  0.00     0.049 C 
BRANCH  11  15
HETATM   15  S1  UNL     1      28.194  -0.657  53.718  1.00  0.00     0.040 S 
HETATM   16  C1  UNL     1      29.738   0.193  53.450  1.00  0.00     0.129 C 
HETATM   17  O1  UNL     1      27.780  -0.414  55.175  1.00  0.00    -0.256 OA
ENDBRANCH  11  15
ENDBRANCH   6   8
ENDBRANCH   1   6
BRANCH   3  18
HETATM   18  N3  UNL     1      24.782   8.001  50.899  1.00  0.00    -0.230 N 
HETATM   19  H8  UNL     1      25.456   8.817  50.874  1.00  0.00     0.174 HD
HETATM   20  H9  UNL     1      23.823   7.863  51.272  1.00  0.00     0.174 HD
ENDBRANCH   3  18
BRANCH   4  21
HETATM   21  C8  UNL     1      26.795   7.534  48.801  1.00  0.00     0.218 C 
HETATM   22  S2  UNL     1      25.957   7.834  47.429  1.00  0.00    -0.038 SA
BRANCH  21  23
HETATM   23  N5  UNL     1      27.911   8.107  49.453  1.00  0.00    -0.326 N 
HETATM   24  H10 UNL     1      28.174   7.506  50.284  1.00  0.00     0.168 HD
BRANCH  23  25
HETATM   25  C9  UNL     1      28.719   9.239  49.257  1.00  0.00     0.112 A 
HETATM   26  C10 UNL     1      28.260  10.520  49.063  1.00  0.00     0.146 A 
HETATM   27  F1  UNL     1      26.936  10.771  49.032  1.00  0.00    -0.204 F 
HETATM   28  C11 UNL     1      29.041  11.636  48.885  1.00  0.00     0.045 A 
HETATM   29  C12 UNL     1      30.402  11.424  48.906  1.00  0.00     0.006 A 
HETATM   30  C13 UNL     1      30.930  10.184  49.093  1.00  0.00     0.045 A 
HETATM   31  C14 UNL     1      30.069   9.133  49.261  1.00  0.00     0.146 A 
HETATM   32  F2  UNL     1      30.649   7.907  49.449  1.00  0.00    -0.204 F 
ENDBRANCH  23  25
ENDBRANCH  21  23
ENDBRANCH   4  21
TORSDOF 7
ENDMDL
MODEL 5
REMARK VINA RESULT:      -7.8      3.788      8.607
REMARK  7 active torsions:
REMARK  status: ('A' for Active; 'I' for Inactive)
REMARK    1  A    between atoms: S1_2  and  C2_4 
REMARK    2  A    between atoms: C5_7  and  N1_8 
REMARK    3  A    between atoms: N1_8  and  C6_9 
REMARK    4  A    between atoms: C7_11  and  N3_12 
REMARK    5  A    between atoms: N4_13  and  C8_14 
REMARK    6  A    between atoms: C8_14  and  N5_16 
REMARK    7  A    between atoms: N5_16  and  C9_17 
ROOT
HETATM    1  C6  UNL     1      26.292   3.580  50.080  1.00  0.00     0.760 A 
HETATM    2  N2  UNL     1      25.158   3.982  50.708  1.00  0.00     0.131 NA
HETATM    3  C7  UNL     1      25.010   3.090  51.743  1.00  0.00     0.739 A 
HETATM    4  N4  UNL     1      26.025   2.168  51.742  1.00  0.00    -0.018 N 
HETATM    5  N6  UNL     1      26.788   2.507  50.707  1.00  0.00     0.044 NA
ENDROOT
BRANCH   1   6
HETATM    6  N1  UNL     1      26.858   4.182  48.933  1.00  0.00    -0.186 N 
HETATM    7  H7  UNL     1      26.989   3.529  48.127  1.00  0.00     0.184 HD
BRANCH   6   8
HETATM    8  C5  UNL     1      27.300   5.510  48.626  1.00  0.00     0.050 C 
HETATM    9  C4  UNL     1      28.725   5.481  48.213  1.00  0.00     0.029 C 
HETATM   10  C3  UNL     1      29.505   6.567  48.330  1.00  0.00     0.015 C 
HETATM   11  C2  UNL     1      29.346   7.961  48.811  1.00  0.00     0.223 C 
HETATM   12  N7  UNL     1      28.080   8.512  48.464  1.00  0.00    -0.280 NA
HETATM   13  C16 UNL     1      26.930   7.950  48.430  1.00  0.00     0.114 C 
HETATM   14  C15 UNL     1      26.496   6.570  48.727  1.00  0.00     0.049 C 
BRANCH  11  15
HETATM   15  S1  UNL     1      30.726   8.973  48.277  1.00  0.00     0.040 S 
HETATM   16  C1  UNL     1      30.461   9.592  46.626  1.00  0.00     0.129 C 
HETATM   17  O1  UNL     1      30.831  10.182  49.213  1.00  0.00    -0.256 OA
ENDBRANCH  11  15
ENDBRANCH   6   8
ENDBRANCH   1   6
BRANCH   3  18
HETATM   18  N3  UNL     1      23.842   3.346  52.548  1.00  0.00    -0.230 N 
HETATM   19  H8  UNL     1      23.409   2.527  53.059  1.00  0.00     0.174 HD
HETATM   20  H9  UNL     1      23.617   4.357  52.476  1.00  0.00     0.174 HD
ENDBRANCH   3  18
BRANCH   4  21
HETATM   21  C8  UNL     1      25.870   1.228  52.819  1.00  0.00     0.218 C 
HETATM   22  S2  UNL     1      26.893   1.808  53.955  1.00  0.00    -0.038 SA
BRANCH  21  23
HETATM   23  N5  UNL     1      24.992   0.124  52.714  1.00  0.00    -0.326 N 
HETATM   24  H10 UNL     1      25.395  -0.575  52.029  1.00  0.00     0.168 HD
BRANCH  23  25
HETATM   25  C9  UNL     1      23.764  -0.243  53.289  1.00  0.00     0.112 A 
HETATM   26  C10 UNL     1      22.530  -0.055  52.715  1.00  0.00     0.146 A 
HETATM   27  F1  UNL     1      22.422   0.541  51.511  1.00  0.00    -0.204 F 
HETATM   28  C11 UNL     1      21.324  -0.422  53.262  1.00  0.00     0.045 A 
HETATM   29  C12 UNL     1      21.387  -1.032  54.496  1.00  0.00     0.006 A 
HETATM   30  C13 UNL     1      22.573  -1.252  55.125  1.00  0.00     0.045 A 
HETATM   31  C14 UNL     1      23.722  -0.849  54.499  1.00  0.00     0.146 A 
HETATM   32  F2  UNL     1      24.890  -1.096  55.171  1.00  0.00    -0.204 F 
ENDBRANCH  23  25
ENDBRANCH  21  23
ENDBRANCH   4  21
TORSDOF 7
ENDMDL
MODEL 6
REMARK VINA RESULT:      -7.8      2.531      3.335
REMARK  7 active torsions:
REMARK  status: ('A' for Active; 'I' for Inactive)
REMARK    1  A    between atoms: S1_2  and  C2_4 
REMARK    2  A    between atoms: C5_7  and  N1_8 
REMARK    3  A    between atoms: N1_8  and  C6_9 
REMARK    4  A    between atoms: C7_11  and  N3_12 
REMARK    5  A    between atoms: N4_13  and  C8_14 
REMARK    6  A    between atoms: C8_14  and  N5_16 
REMARK    7  A    between atoms: N5_16  and  C9_17 
ROOT
HETATM    1  C6  UNL     1      25.359   5.135  49.797  1.00  0.00     0.760 A 
HETATM    2  N2  UNL     1      25.103   6.300  50.444  1.00  0.00     0.131 NA
HETATM    3  C7  UNL     1      26.017   7.185  49.923  1.00  0.00     0.739 A 
HETATM    4  N4  UNL     1      26.809   6.573  48.985  1.00  0.00    -0.018 N 
HETATM    5  N6  UNL     1      26.370   5.318  48.940  1.00  0.00     0.044 NA
ENDROOT
BRANCH   1   6
HETATM    6  N1  UNL     1      24.682   3.911  50.002  1.00  0.00    -0.186 N 
HETATM    7  H7  UNL     1      23.916   3.726  49.316  1.00  0.00     0.184 HD
BRANCH   6   8
HETATM    8  C5  UNL     1      24.814   2.852  50.959  1.00  0.00     0.050 C 
HETATM    9  C4  UNL     1      26.225   2.757  51.409  1.00  0.00     0.029 C 
HETATM   10  C3  UNL     1      26.721   1.611  51.903  1.00  0.00     0.015 C 
HETATM   11  C2  UNL     1      26.215   0.242  52.164  1.00  0.00     0.223 C 
HETATM   12  N7  UNL     1      24.874   0.243  52.643  1.00  0.00    -0.280 NA
HETATM   13  C16 UNL     1      23.891   0.993  52.308  1.00  0.00     0.114 C 
HETATM   14  C15 UNL     1      23.779   2.099  51.335  1.00  0.00     0.049 C 
BRANCH  11  15
HETATM   15  S1  UNL     1      27.343  -0.654  53.231  1.00  0.00     0.040 S 
HETATM   16  C1  UNL     1      28.832   0.284  53.514  1.00  0.00     0.129 C 
HETATM   17  O1  UNL     1      26.663  -0.861  54.590  1.00  0.00    -0.256 OA
ENDBRANCH  11  15
ENDBRANCH   6   8
ENDBRANCH   1   6
BRANCH   3  18
HETATM   18  N3  UNL     1      25.911   8.506  50.489  1.00  0.00    -0.230 N 
HETATM   19  H8  UNL     1      26.388   8.681  51.418  1.00  0.00     0.174 HD
HETATM   20  H9  UNL     1      25.348   9.090  49.841  1.00  0.00     0.174 HD
ENDBRANCH   3  18
BRANCH   4  21
HETATM   21  C8  UNL     1      27.771   7.493  48.442  1.00  0.00     0.218 C 
HETATM   22  S2  UNL     1      26.958   8.172  47.197  1.00  0.00    -0.038 SA
BRANCH  21  23
HETATM   23  N5  UNL     1      29.066   7.620  48.998  1.00  0.00    -0.326 N 
HETATM   24  H10 UNL     1      29.039   8.332  49.781  1.00  0.00     0.168 HD
BRANCH  23  25
HETATM   25  C9  UNL     1      30.323   7.039  48.762  1.00  0.00     0.112 A 
HETATM   26  C10 UNL     1      30.535   5.792  48.226  1.00  0.00     0.146 A 
HETATM   27  F1  UNL     1      29.491   5.007  47.894  1.00  0.00    -0.204 F 
HETATM   28  C11 UNL     1      31.760   5.221  47.977  1.00  0.00     0.045 A 
HETATM   29  C12 UNL     1      32.856   5.989  48.305  1.00  0.00     0.006 A 
HETATM   30  C13 UNL     1      32.724   7.233  48.839  1.00  0.00     0.045 A 
HETATM   31  C14 UNL     1      31.460   7.715  49.050  1.00  0.00     0.146 A 
HETATM   32  F2  UNL     1      31.380   8.973  49.587  1.00  0.00    -0.204 F 
ENDBRANCH  23  25
ENDBRANCH  21  23
ENDBRANCH   4  21
TORSDOF 7
ENDMDL
MODEL 7
REMARK VINA RESULT:      -7.7      3.915      7.655
REMARK  7 active torsions:
REMARK  status: ('A' for Active; 'I' for Inactive)
REMARK    1  A    between atoms: S1_2  and  C2_4 
REMARK    2  A    between atoms: C5_7  and  N1_8 
REMARK    3  A    between atoms: N1_8  and  C6_9 
REMARK    4  A    between atoms: C7_11  and  N3_12 
REMARK    5  A    between atoms: N4_13  and  C8_14 
REMARK    6  A    between atoms: C8_14  and  N5_16 
REMARK    7  A    between atoms: N5_16  and  C9_17 
ROOT
HETATM    1  C6  UNL     1      26.888   4.980  49.166  1.00  0.00     0.760 A 
HETATM    2  N2  UNL     1      25.855   5.636  49.753  1.00  0.00     0.131 NA
HETATM    3  C7  UNL     1      25.348   4.729  50.654  1.00  0.00     0.739 A 
HETATM    4  N4  UNL     1      26.052   3.554  50.613  1.00  0.00    -0.018 N 
HETATM    5  N6  UNL     1      26.988   3.752  49.688  1.00  0.00     0.044 NA
ENDROOT
BRANCH   1   6
HETATM    6  N1  UNL     1      27.723   5.498  48.149  1.00  0.00    -0.186 N 
HETATM    7  H7  UNL     1      27.368   5.334  47.179  1.00  0.00     0.184 HD
BRANCH   6   8
HETATM    8  C5  UNL     1      28.968   6.207  48.153  1.00  0.00     0.050 C 
HETATM    9  C4  UNL     1      30.075   5.279  47.816  1.00  0.00     0.029 C 
HETATM   10  C3  UNL     1      31.336   5.532  48.201  1.00  0.00     0.015 C 
HETATM   11  C2  UNL     1      32.039   6.596  48.958  1.00  0.00     0.223 C 
HETATM   12  N7  UNL     1      31.525   7.892  48.672  1.00  0.00    -0.280 NA
HETATM   13  C16 UNL     1      30.316   8.261  48.461  1.00  0.00     0.114 C 
HETATM   14  C15 UNL     1      29.045   7.509  48.436  1.00  0.00     0.049 C 
BRANCH  11  15
HETATM   15  S1  UNL     1      33.811   6.472  48.720  1.00  0.00     0.040 S 
HETATM   16  C1  UNL     1      34.194   5.490  47.283  1.00  0.00     0.129 C 
HETATM   17  O1  UNL     1      34.367   7.881  48.480  1.00  0.00    -0.256 OA
ENDBRANCH  11  15
ENDBRANCH   6   8
ENDBRANCH   1   6
BRANCH   3  18
HETATM   18  N3  UNL     1      24.221   5.239  51.395  1.00  0.00    -0.230 N 
HETATM   19  H8  UNL     1      24.314   6.201  51.827  1.00  0.00     0.174 HD
HETATM   20  H9  UNL     1      23.471   4.523  51.372  1.00  0.00     0.174 HD
ENDBRANCH   3  18
BRANCH   4  21
HETATM   21  C8  UNL     1      25.520   2.600  51.548  1.00  0.00     0.218 C 
HETATM   22  S2  UNL     1      24.064   2.234  50.900  1.00  0.00    -0.038 SA
BRANCH  21  23
HETATM   23  N5  UNL     1      26.243   2.213  52.700  1.00  0.00    -0.326 N 
HETATM   24  H10 UNL     1      25.950   2.823  53.515  1.00  0.00     0.168 HD
BRANCH  23  25
HETATM   25  C9  UNL     1      27.216   1.244  52.999  1.00  0.00     0.112 A 
HETATM   26  C10 UNL     1      27.073  -0.109  52.813  1.00  0.00     0.146 A 
HETATM   27  F1  UNL     1      25.922  -0.612  52.322  1.00  0.00    -0.204 F 
HETATM   28  C11 UNL     1      28.023  -1.064  53.088  1.00  0.00     0.045 A 
HETATM   29  C12 UNL     1      29.214  -0.594  53.595  1.00  0.00     0.006 A 
HETATM   30  C13 UNL     1      29.428   0.733  53.806  1.00  0.00     0.045 A 
HETATM   31  C14 UNL     1      28.420   1.607  53.501  1.00  0.00     0.146 A 
HETATM   32  F2  UNL     1      28.685   2.932  53.728  1.00  0.00    -0.204 F 
ENDBRANCH  23  25
ENDBRANCH  21  23
ENDBRANCH   4  21
TORSDOF 7
ENDMDL
MODEL 8
REMARK VINA RESULT:      -7.7      3.255      7.331
REMARK  7 active torsions:
REMARK  status: ('A' for Active; 'I' for Inactive)
REMARK    1  A    between atoms: S1_2  and  C2_4 
REMARK    2  A    between atoms: C5_7  and  N1_8 
REMARK    3  A    between atoms: N1_8  and  C6_9 
REMARK    4  A    between atoms: C7_11  and  N3_12 
REMARK    5  A    between atoms: N4_13  and  C8_14 
REMARK    6  A    between atoms: C8_14  and  N5_16 
REMARK    7  A    between atoms: N5_16  and  C9_17 
ROOT
HETATM    1  C6  UNL     1      25.316   5.614  49.805  1.00  0.00     0.760 A 
HETATM    2  N2  UNL     1      24.613   6.131  50.844  1.00  0.00     0.131 NA
HETATM    3  C7  UNL     1      24.385   5.054  51.667  1.00  0.00     0.739 A 
HETATM    4  N4  UNL     1      24.934   3.913  51.141  1.00  0.00    -0.018 N 
HETATM    5  N6  UNL     1      25.495   4.302  50.000  1.00  0.00     0.044 NA
ENDROOT
BRANCH   1   6
HETATM    6  N1  UNL     1      25.777   6.335  48.680  1.00  0.00    -0.186 N 
HETATM    7  H7  UNL     1      25.016   6.759  48.102  1.00  0.00     0.184 HD
BRANCH   6   8
HETATM    8  C5  UNL     1      27.078   6.617  48.147  1.00  0.00     0.050 C 
HETATM    9  C4  UNL     1      27.950   5.426  48.296  1.00  0.00     0.029 C 
HETATM   10  C3  UNL     1      29.286   5.544  48.334  1.00  0.00     0.015 C 
HETATM   11  C2  UNL     1      30.274   6.649  48.262  1.00  0.00     0.223 C 
HETATM   12  N7  UNL     1      29.888   7.658  47.335  1.00  0.00    -0.280 NA
HETATM   13  C16 UNL     1      28.724   8.124  47.074  1.00  0.00     0.114 C 
HETATM   14  C15 UNL     1      27.389   7.802  47.617  1.00  0.00     0.049 C 
BRANCH  11  15
HETATM   15  S1  UNL     1      31.919   6.005  47.961  1.00  0.00     0.040 S 
HETATM   16  C1  UNL     1      33.160   7.067  48.675  1.00  0.00     0.129 C 
HETATM   17  O1  UNL     1      32.035   4.636  48.641  1.00  0.00    -0.256 OA
ENDBRANCH  11  15
ENDBRANCH   6   8
ENDBRANCH   1   6
BRANCH   3  18
HETATM   18  N3  UNL     1      23.637   5.396  52.851  1.00  0.00    -0.230 N 
HETATM   19  H8  UNL     1      23.939   6.256  53.390  1.00  0.00     0.174 HD
HETATM   20  H9  UNL     1      22.887   4.690  52.973  1.00  0.00     0.174 HD
ENDBRANCH   3  18
BRANCH   4  21
HETATM   21  C8  UNL     1      24.691   2.782  51.997  1.00  0.00     0.218 C 
HETATM   22  S2  UNL     1      23.246   2.232  51.465  1.00  0.00    -0.038 SA
BRANCH  21  23
HETATM   23  N5  UNL     1      25.610   2.408  53.005  1.00  0.00    -0.326 N 
HETATM   24  H10 UNL     1      25.442   3.003  53.865  1.00  0.00     0.168 HD
BRANCH  23  25
HETATM   25  C9  UNL     1      26.646   1.467  53.122  1.00  0.00     0.112 A 
HETATM   26  C10 UNL     1      27.952   1.757  53.435  1.00  0.00     0.146 A 
HETATM   27  F1  UNL     1      28.336   3.033  53.641  1.00  0.00    -0.204 F 
HETATM   28  C11 UNL     1      28.970   0.844  53.567  1.00  0.00     0.045 A 
HETATM   29  C12 UNL     1      28.622  -0.474  53.361  1.00  0.00     0.006 A 
HETATM   30  C13 UNL     1      27.349  -0.837  53.049  1.00  0.00     0.045 A 
HETATM   31  C14 UNL     1      26.404   0.148  52.939  1.00  0.00     0.146 A 
HETATM   32  F2  UNL     1      25.137  -0.269  52.626  1.00  0.00    -0.204 F 
ENDBRANCH  23  25
ENDBRANCH  21  23
ENDBRANCH   4  21
TORSDOF 7
ENDMDL
MODEL 9
REMARK VINA RESULT:      -7.5      3.122      7.114
REMARK  7 active torsions:
REMARK  status: ('A' for Active; 'I' for Inactive)
REMARK    1  A    between atoms: S1_2  and  C2_4 
REMARK    2  A    between atoms: C5_7  and  N1_8 
REMARK    3  A    between atoms: N1_8  and  C6_9 
REMARK    4  A    between atoms: C7_11  and  N3_12 
REMARK    5  A    between atoms: N4_13  and  C8_14 
REMARK    6  A    between atoms: C8_14  and  N5_16 
REMARK    7  A    between atoms: N5_16  and  C9_17 
ROOT
HETATM    1  C6  UNL     1      24.374   6.043  49.845  1.00  0.00     0.760 A 
HETATM    2  N2  UNL     1      24.477   6.166  51.193  1.00  0.00     0.131 NA
HETATM    3  C7  UNL     1      23.698   5.145  51.685  1.00  0.00     0.739 A 
HETATM    4  N4  UNL     1      23.137   4.423  50.664  1.00  0.00    -0.018 N 
HETATM    5  N6  UNL     1      23.579   5.007  49.554  1.00  0.00     0.044 NA
ENDROOT
BRANCH   1   6
HETATM    6  N1  UNL     1      24.993   6.882  48.891  1.00  0.00    -0.186 N 
HETATM    7  H7  UNL     1      24.407   7.693  48.589  1.00  0.00     0.184 HD
BRANCH   6   8
HETATM    8  C5  UNL     1      26.267   6.866  48.233  1.00  0.00     0.050 C 
HETATM    9  C4  UNL     1      26.972   5.597  48.538  1.00  0.00     0.029 C 
HETATM   10  C3  UNL     1      28.310   5.511  48.467  1.00  0.00     0.015 C 
HETATM   11  C2  UNL     1      29.433   6.422  48.135  1.00  0.00     0.223 C 
HETATM   12  N7  UNL     1      29.112   7.308  47.069  1.00  0.00    -0.280 NA
HETATM   13  C16 UNL     1      28.006   7.899  46.805  1.00  0.00     0.114 C 
HETATM   14  C15 UNL     1      26.693   7.883  47.481  1.00  0.00     0.049 C 
BRANCH  11  15
HETATM   15  S1  UNL     1      30.936   5.489  47.849  1.00  0.00     0.040 S 
HETATM   16  C1  UNL     1      32.117   6.452  46.923  1.00  0.00     0.129 C 
HETATM   17  O1  UNL     1      31.570   5.163  49.207  1.00  0.00    -0.256 OA
ENDBRANCH  11  15
ENDBRANCH   6   8
ENDBRANCH   1   6
BRANCH   3  18
HETATM   18  N3  UNL     1      23.671   5.100  53.126  1.00  0.00    -0.230 N 
HETATM   19  H8  UNL     1      24.560   5.354  53.641  1.00  0.00     0.174 HD
HETATM   20  H9  UNL     1      22.720   4.805  53.421  1.00  0.00     0.174 HD
ENDBRANCH   3  18
BRANCH   4  21
HETATM   21  C8  UNL     1      22.315   3.359  51.175  1.00  0.00     0.218 C 
HETATM   22  S2  UNL     1      20.911   4.121  51.521  1.00  0.00    -0.038 SA
BRANCH  21  23
HETATM   23  N5  UNL     1      22.803   2.035  51.281  1.00  0.00    -0.326 N 
HETATM   24  H10 UNL     1      22.231   1.404  50.652  1.00  0.00     0.168 HD
BRANCH  23  25
HETATM   25  C9  UNL     1      23.831   1.396  51.993  1.00  0.00     0.112 A 
HETATM   26  C10 UNL     1      23.652   0.565  53.072  1.00  0.00     0.146 A 
HETATM   27  F1  UNL     1      22.414   0.316  53.543  1.00  0.00    -0.204 F 
HETATM   28  C11 UNL     1      24.649  -0.077  53.767  1.00  0.00     0.045 A 
HETATM   29  C12 UNL     1      25.932   0.152  53.321  1.00  0.00     0.006 A 
HETATM   30  C13 UNL     1      26.187   0.962  52.259  1.00  0.00     0.045 A 
HETATM   31  C14 UNL     1      25.126   1.558  51.631  1.00  0.00     0.146 A 
HETATM   32  F2  UNL     1      25.434   2.362  50.566  1.00  0.00    -0.204 F 
ENDBRANCH  23  25
ENDBRANCH  21  23
ENDBRANCH   4  21
TORSDOF 7
ENDMDL
