MODEL 1
REMARK VINA RESULT:      -6.9      0.000      0.000
REMARK  9 active torsions:
REMARK  status: ('A' for Active; 'I' for Inactive)
REMARK    1  A    between atoms: O1_2  and  C2_3 
REMARK    2  A    between atoms: C4_5  and  C5_6 
REMARK    3  A    between atoms: C5_6  and  C6_7 
REMARK    4  A    between atoms: C7_8  and  C8_9 
REMARK    5  A    between atoms: C8_9  and  C9_10 
REMARK    6  A    between atoms: C9_10  and  C10_11 
REMARK    7  A    between atoms: C10_11  and  N1_13 
REMARK    8  A    between atoms: N1_13  and  N2_14 
REMARK    9  A    between atoms: C14_17  and  N3_18 
ROOT
HETATM    1  N1  UNL     1      22.977   2.116  51.307  1.00  0.00    -0.329 N 
HETATM    2  H20 UNL     1      23.867   1.615  51.506  1.00  0.00     0.180 HD
ENDROOT
BRANCH   1   3
HETATM    3  C10 UNL     1      23.121   3.512  51.397  1.00  0.00     0.096 C 
HETATM    4  C11 UNL     1      23.421   4.075  52.755  1.00  0.00     0.034 C 
BRANCH   3   5
HETATM    5  C9  UNL     1      23.984   4.047  50.307  1.00  0.00     0.030 C 
BRANCH   5   6
HETATM    6  C8  UNL     1      24.831   2.995  49.627  1.00  0.00     0.029 C 
BRANCH   6   7
HETATM    7  C7  UNL     1      26.189   3.133  50.221  1.00  0.00    -0.030 C 
HETATM    8  C6  UNL     1      26.747   2.450  51.211  1.00  0.00    -0.027 C 
BRANCH   8   9
HETATM    9  C5  UNL     1      26.106   1.351  51.970  1.00  0.00     0.056 C 
BRANCH   9  10
HETATM   10  C4  UNL     1      27.132   0.453  52.596  1.00  0.00     0.009 C 
HETATM   11  C2  UNL     1      27.488  -0.113  53.762  1.00  0.00     0.038 C 
HETATM   12  C3  UNL     1      26.638   0.168  54.969  1.00  0.00     0.076 C 
BRANCH  11  13
HETATM   13  O1  UNL     1      28.549  -0.954  54.082  1.00  0.00    -0.361 OA
HETATM   14  C1  UNL     1      29.851  -0.836  53.583  1.00  0.00     0.209 C 
ENDBRANCH  11  13
ENDBRANCH   9  10
ENDBRANCH   8   9
ENDBRANCH   6   7
ENDBRANCH   5   6
ENDBRANCH   3   5
ENDBRANCH   1   3
BRANCH   1  15
HETATM   15  N2  UNL     1      21.842   1.523  51.850  1.00  0.00    -0.287 N 
HETATM   16  C12 UNL     1      22.254   0.629  52.918  1.00  0.00     0.063 A 
HETATM   17  C13 UNL     1      23.127   0.005  53.734  1.00  0.00     0.061 A 
HETATM   18  C16 UNL     1      21.008   0.033  53.451  1.00  0.00    -0.007 A 
HETATM   19  C14 UNL     1      22.532  -0.906  54.702  1.00  0.00     0.028 A 
HETATM   20  C15 UNL     1      21.220  -0.903  54.545  1.00  0.00     0.042 A 
HETATM   21  C17 UNL     1      20.000   0.531  52.764  1.00  0.00     0.013 A 
HETATM   22  C18 UNL     1      20.396   1.502  51.704  1.00  0.00     0.127 A 
HETATM   23  C19 UNL     1      19.947   0.861  50.400  1.00  0.00     0.039 C 
BRANCH  19  24
HETATM   24  N3  UNL     1      23.298  -1.643  55.632  1.00  0.00    -0.399 N 
HETATM   25  H22 UNL     1      22.998  -2.572  56.031  1.00  0.00     0.156 HD
HETATM   26  H23 UNL     1      24.201  -1.155  55.879  1.00  0.00     0.156 HD
ENDBRANCH  19  24
ENDBRANCH   1  15
TORSDOF 9
ENDMDL
MODEL 2
REMARK VINA RESULT:      -6.8      1.840      4.777
REMARK  9 active torsions:
REMARK  status: ('A' for Active; 'I' for Inactive)
REMARK    1  A    between atoms: O1_2  and  C2_3 
REMARK    2  A    between atoms: C4_5  and  C5_6 
REMARK    3  A    between atoms: C5_6  and  C6_7 
REMARK    4  A    between atoms: C7_8  and  C8_9 
REMARK    5  A    between atoms: C8_9  and  C9_10 
REMARK    6  A    between atoms: C9_10  and  C10_11 
REMARK    7  A    between atoms: C10_11  and  N1_13 
REMARK    8  A    between atoms: N1_13  and  N2_14 
REMARK    9  A    between atoms: C14_17  and  N3_18 
ROOT
HETATM    1  N1  UNL     1      20.166   2.331  52.046  1.00  0.00    -0.329 N 
HETATM    2  H20 UNL     1      20.055   3.199  52.608  1.00  0.00     0.180 HD
ENDROOT
BRANCH   1   3
HETATM    3  C10 UNL     1      19.649   1.201  52.704  1.00  0.00     0.096 C 
HETATM    4  C11 UNL     1      19.093   0.109  51.837  1.00  0.00     0.034 C 
BRANCH   3   5
HETATM    5  C9  UNL     1      20.564   0.724  53.779  1.00  0.00     0.030 C 
BRANCH   5   6
HETATM    6  C8  UNL     1      20.870  -0.756  53.708  1.00  0.00     0.029 C 
BRANCH   6   7
HETATM    7  C7  UNL     1      21.942  -0.988  54.714  1.00  0.00    -0.030 C 
HETATM    8  C6  UNL     1      23.257  -0.892  54.578  1.00  0.00    -0.027 C 
BRANCH   8   9
HETATM    9  C5  UNL     1      23.972  -0.515  53.336  1.00  0.00     0.056 C 
BRANCH   9  10
HETATM   10  C4  UNL     1      25.459  -0.565  53.529  1.00  0.00     0.009 C 
HETATM   11  C2  UNL     1      26.616  -0.084  53.045  1.00  0.00     0.038 C 
HETATM   12  C3  UNL     1      26.551   0.866  51.882  1.00  0.00     0.076 C 
BRANCH  11  13
HETATM   13  O1  UNL     1      27.933  -0.308  53.434  1.00  0.00    -0.361 OA
HETATM   14  C1  UNL     1      28.473   0.026  54.681  1.00  0.00     0.209 C 
ENDBRANCH  11  13
ENDBRANCH   9  10
ENDBRANCH   8   9
ENDBRANCH   6   7
ENDBRANCH   5   6
ENDBRANCH   3   5
ENDBRANCH   1   3
BRANCH   1  15
HETATM   15  N2  UNL     1      21.382   2.220  51.380  1.00  0.00    -0.287 N 
HETATM   16  C12 UNL     1      22.160   3.419  51.641  1.00  0.00     0.063 A 
HETATM   17  C13 UNL     1      22.414   4.632  52.171  1.00  0.00     0.061 A 
HETATM   18  C16 UNL     1      23.435   3.241  50.909  1.00  0.00    -0.007 A 
HETATM   19  C14 UNL     1      23.712   5.201  51.831  1.00  0.00     0.028 A 
HETATM   20  C15 UNL     1      24.360   4.355  51.051  1.00  0.00     0.042 A 
HETATM   21  C17 UNL     1      23.387   2.073  50.301  1.00  0.00     0.013 A 
HETATM   22  C18 UNL     1      22.124   1.314  50.520  1.00  0.00     0.127 A 
HETATM   23  C19 UNL     1      21.505   1.177  49.138  1.00  0.00     0.039 C 
BRANCH  19  24
HETATM   24  N3  UNL     1      24.141   6.462  52.299  1.00  0.00    -0.399 N 
HETATM   25  H22 UNL     1      24.920   7.018  51.853  1.00  0.00     0.156 HD
HETATM   26  H23 UNL     1      23.592   6.782  53.142  1.00  0.00     0.156 HD
ENDBRANCH  19  24
ENDBRANCH   1  15
TORSDOF 9
ENDMDL
MODEL 3
REMARK VINA RESULT:      -6.8      2.421      4.620
REMARK  9 active torsions:
REMARK  status: ('A' for Active; 'I' for Inactive)
REMARK    1  A    between atoms: O1_2  and  C2_3 
REMARK    2  A    between atoms: C4_5  and  C5_6 
REMARK    3  A    between atoms: C5_6  and  C6_7 
REMARK    4  A    between atoms: C7_8  and  C8_9 
REMARK    5  A    between atoms: C8_9  and  C9_10 
REMARK    6  A    between atoms: C9_10  and  C10_11 
REMARK    7  A    between atoms: C10_11  and  N1_13 
REMARK    8  A    between atoms: N1_13  and  N2_14 
REMARK    9  A    between atoms: C14_17  and  N3_18 
ROOT
HETATM    1  N1  UNL     1      21.552   1.220  52.431  1.00  0.00    -0.329 N 
HETATM    2  H20 UNL     1      20.953   1.985  52.802  1.00  0.00     0.180 HD
ENDROOT
BRANCH   1   3
HETATM    3  C10 UNL     1      21.017   0.641  51.267  1.00  0.00     0.096 C 
HETATM    4  C11 UNL     1      19.528   0.712  51.099  1.00  0.00     0.034 C 
BRANCH   3   5
HETATM    5  C9  UNL     1      21.790   1.031  50.054  1.00  0.00     0.030 C 
BRANCH   5   6
HETATM    6  C8  UNL     1      22.624   2.279  50.236  1.00  0.00     0.029 C 
BRANCH   6   7
HETATM    7  C7  UNL     1      22.619   2.958  48.912  1.00  0.00    -0.030 C 
HETATM    8  C6  UNL     1      23.166   4.112  48.556  1.00  0.00    -0.027 C 
BRANCH   8   9
HETATM    9  C5  UNL     1      23.934   5.013  49.446  1.00  0.00     0.056 C 
BRANCH   9  10
HETATM   10  C4  UNL     1      25.402   4.957  49.138  1.00  0.00     0.009 C 
HETATM   11  C2  UNL     1      26.507   4.219  49.337  1.00  0.00     0.038 C 
HETATM   12  C3  UNL     1      26.377   2.959  50.146  1.00  0.00     0.076 C 
BRANCH  11  13
HETATM   13  O1  UNL     1      27.820   4.408  48.914  1.00  0.00    -0.361 OA
HETATM   14  C1  UNL     1      28.324   5.586  48.353  1.00  0.00     0.209 C 
ENDBRANCH  11  13
ENDBRANCH   9  10
ENDBRANCH   8   9
ENDBRANCH   6   7
ENDBRANCH   5   6
ENDBRANCH   3   5
ENDBRANCH   1   3
BRANCH   1  15
HETATM   15  N2  UNL     1      22.100   0.387  53.402  1.00  0.00    -0.287 N 
HETATM   16  C12 UNL     1      23.533   0.301  53.179  1.00  0.00     0.063 A 
HETATM   17  C13 UNL     1      24.701   0.563  52.561  1.00  0.00     0.061 A 
HETATM   18  C16 UNL     1      24.054  -0.593  54.238  1.00  0.00    -0.007 A 
HETATM   19  C14 UNL     1      25.871  -0.084  53.140  1.00  0.00     0.028 A 
HETATM   20  C15 UNL     1      25.492  -0.805  54.181  1.00  0.00     0.042 A 
HETATM   21  C17 UNL     1      23.032  -0.974  54.979  1.00  0.00     0.013 A 
HETATM   22  C18 UNL     1      21.718  -0.416  54.551  1.00  0.00     0.127 A 
HETATM   23  C19 UNL     1      20.885  -1.629  54.169  1.00  0.00     0.039 C 
BRANCH  19  24
HETATM   24  N3  UNL     1      27.173   0.079  52.619  1.00  0.00    -0.399 N 
HETATM   25  H22 UNL     1      27.760  -0.716  52.249  1.00  0.00     0.156 HD
HETATM   26  H23 UNL     1      27.488   1.086  52.642  1.00  0.00     0.156 HD
ENDBRANCH  19  24
ENDBRANCH   1  15
TORSDOF 9
ENDMDL
MODEL 4
REMARK VINA RESULT:      -6.7      2.930      6.746
REMARK  9 active torsions:
REMARK  status: ('A' for Active; 'I' for Inactive)
REMARK    1  A    between atoms: O1_2  and  C2_3 
REMARK    2  A    between atoms: C4_5  and  C5_6 
REMARK    3  A    between atoms: C5_6  and  C6_7 
REMARK    4  A    between atoms: C7_8  and  C8_9 
REMARK    5  A    between atoms: C8_9  and  C9_10 
REMARK    6  A    between atoms: C9_10  and  C10_11 
REMARK    7  A    between atoms: C10_11  and  N1_13 
REMARK    8  A    between atoms: N1_13  and  N2_14 
REMARK    9  A    between atoms: C14_17  and  N3_18 
ROOT
HETATM    1  N1  UNL     1      25.409   0.820  51.569  1.00  0.00    -0.329 N 
HETATM    2  H20 UNL     1      25.491   0.772  50.533  1.00  0.00     0.180 HD
ENDROOT
BRANCH   1   3
HETATM    3  C10 UNL     1      24.282   1.552  51.980  1.00  0.00     0.096 C 
HETATM    4  C11 UNL     1      23.290   1.922  50.916  1.00  0.00     0.034 C 
BRANCH   3   5
HETATM    5  C9  UNL     1      23.672   0.979  53.213  1.00  0.00     0.030 C 
BRANCH   5   6
HETATM    6  C8  UNL     1      23.531  -0.526  53.180  1.00  0.00     0.029 C 
BRANCH   6   7
HETATM    7  C7  UNL     1      22.878  -0.892  54.466  1.00  0.00    -0.030 C 
HETATM    8  C6  UNL     1      21.593  -1.077  54.734  1.00  0.00    -0.027 C 
BRANCH   8   9
HETATM    9  C5  UNL     1      20.482  -0.952  53.762  1.00  0.00     0.056 C 
BRANCH   9  10
HETATM   10  C4  UNL     1      20.151   0.487  53.497  1.00  0.00     0.009 C 
HETATM   11  C2  UNL     1      19.867   1.355  52.511  1.00  0.00     0.038 C 
HETATM   12  C3  UNL     1      19.833   0.832  51.102  1.00  0.00     0.076 C 
BRANCH  11  13
HETATM   13  O1  UNL     1      19.584   2.716  52.546  1.00  0.00    -0.361 OA
HETATM   14  C1  UNL     1      20.217   3.692  51.768  1.00  0.00     0.209 C 
ENDBRANCH  11  13
ENDBRANCH   9  10
ENDBRANCH   8   9
ENDBRANCH   6   7
ENDBRANCH   5   6
ENDBRANCH   3   5
ENDBRANCH   1   3
BRANCH   1  15
HETATM   15  N2  UNL     1      26.612   1.008  52.240  1.00  0.00    -0.287 N 
HETATM   16  C12 UNL     1      27.195  -0.293  52.516  1.00  0.00     0.063 A 
HETATM   17  C13 UNL     1      27.265  -1.639  52.504  1.00  0.00     0.061 A 
HETATM   18  C16 UNL     1      28.466  -0.025  53.228  1.00  0.00    -0.007 A 
HETATM   19  C14 UNL     1      28.448  -2.207  53.138  1.00  0.00     0.028 A 
HETATM   20  C15 UNL     1      29.205  -1.223  53.592  1.00  0.00     0.042 A 
HETATM   21  C17 UNL     1      28.591   1.282  53.344  1.00  0.00     0.013 A 
HETATM   22  C18 UNL     1      27.469   2.065  52.753  1.00  0.00     0.127 A 
HETATM   23  C19 UNL     1      26.849   2.807  53.926  1.00  0.00     0.039 C 
BRANCH  19  24
HETATM   24  N3  UNL     1      28.682  -3.597  53.217  1.00  0.00    -0.399 N 
HETATM   25  H22 UNL     1      29.113  -4.163  52.438  1.00  0.00     0.156 HD
HETATM   26  H23 UNL     1      28.377  -4.000  54.144  1.00  0.00     0.156 HD
ENDBRANCH  19  24
ENDBRANCH   1  15
TORSDOF 9
ENDMDL
MODEL 5
REMARK VINA RESULT:      -6.7      3.145      6.770
REMARK  9 active torsions:
REMARK  status: ('A' for Active; 'I' for Inactive)
REMARK    1  A    between atoms: O1_2  and  C2_3 
REMARK    2  A    between atoms: C4_5  and  C5_6 
REMARK    3  A    between atoms: C5_6  and  C6_7 
REMARK    4  A    between atoms: C7_8  and  C8_9 
REMARK    5  A    between atoms: C8_9  and  C9_10 
REMARK    6  A    between atoms: C9_10  and  C10_11 
REMARK    7  A    between atoms: C10_11  and  N1_13 
REMARK    8  A    between atoms: N1_13  and  N2_14 
REMARK    9  A    between atoms: C14_17  and  N3_18 
ROOT
HETATM    1  N1  UNL     1      24.814   3.265  50.213  1.00  0.00    -0.329 N 
HETATM    2  H20 UNL     1      23.870   2.835  50.137  1.00  0.00     0.180 HD
ENDROOT
BRANCH   1   3
HETATM    3  C10 UNL     1      25.469   2.905  51.404  1.00  0.00     0.096 C 
HETATM    4  C11 UNL     1      24.643   2.908  52.657  1.00  0.00     0.034 C 
BRANCH   3   5
HETATM    5  C9  UNL     1      26.306   1.685  51.224  1.00  0.00     0.030 C 
BRANCH   5   6
HETATM    6  C8  UNL     1      27.056   1.272  52.470  1.00  0.00     0.029 C 
BRANCH   6   7
HETATM    7  C7  UNL     1      27.009  -0.216  52.487  1.00  0.00    -0.030 C 
HETATM    8  C6  UNL     1      26.200  -1.024  53.157  1.00  0.00    -0.027 C 
BRANCH   8   9
HETATM    9  C5  UNL     1      25.119  -0.596  54.076  1.00  0.00     0.056 C 
BRANCH   9  10
HETATM   10  C4  UNL     1      23.819  -0.432  53.345  1.00  0.00     0.009 C 
HETATM   11  C2  UNL     1      22.498  -0.651  53.453  1.00  0.00     0.038 C 
HETATM   12  C3  UNL     1      21.991  -1.287  54.717  1.00  0.00     0.076 C 
BRANCH  11  13
HETATM   13  O1  UNL     1      21.453  -0.387  52.573  1.00  0.00    -0.361 OA
HETATM   14  C1  UNL     1      21.545   0.413  51.429  1.00  0.00     0.209 C 
ENDBRANCH  11  13
ENDBRANCH   9  10
ENDBRANCH   8   9
ENDBRANCH   6   7
ENDBRANCH   5   6
ENDBRANCH   3   5
ENDBRANCH   1   3
BRANCH   1  15
HETATM   15  N2  UNL     1      24.888   4.585  49.781  1.00  0.00    -0.287 N 
HETATM   16  C12 UNL     1      26.223   4.826  49.262  1.00  0.00     0.063 A 
HETATM   17  C13 UNL     1      27.492   4.512  48.935  1.00  0.00     0.061 A 
HETATM   18  C16 UNL     1      26.238   6.240  48.821  1.00  0.00    -0.007 A 
HETATM   19  C14 UNL     1      28.268   5.594  48.343  1.00  0.00     0.028 A 
HETATM   20  C15 UNL     1      27.509   6.673  48.263  1.00  0.00     0.042 A 
HETATM   21  C17 UNL     1      25.045   6.746  49.063  1.00  0.00     0.013 A 
HETATM   22  C18 UNL     1      24.082   5.790  49.679  1.00  0.00     0.127 A 
HETATM   23  C19 UNL     1      23.749   6.391  51.035  1.00  0.00     0.039 C 
BRANCH  19  24
HETATM   24  N3  UNL     1      29.614   5.442  47.942  1.00  0.00    -0.399 N 
HETATM   25  H22 UNL     1      30.352   6.184  48.074  1.00  0.00     0.156 HD
HETATM   26  H23 UNL     1      29.792   4.501  47.497  1.00  0.00     0.156 HD
ENDBRANCH  19  24
ENDBRANCH   1  15
TORSDOF 9
ENDMDL
MODEL 6
REMARK VINA RESULT:      -6.7      2.578      4.707
REMARK  9 active torsions:
REMARK  status: ('A' for Active; 'I' for Inactive)
REMARK    1  A    between atoms: O1_2  and  C2_3 
REMARK    2  A    between atoms: C4_5  and  C5_6 
REMARK    3  A    between atoms: C5_6  and  C6_7 
REMARK    4  A    between atoms: C7_8  and  C8_9 
REMARK    5  A    between atoms: C8_9  and  C9_10 
REMARK    6  A    between atoms: C9_10  and  C10_11 
REMARK    7  A    between atoms: C10_11  and  N1_13 
REMARK    8  A    between atoms: N1_13  and  N2_14 
REMARK    9  A    between atoms: C14_17  and  N3_18 
ROOT
HETATM    1  N1  UNL     1      24.229   1.364  51.484  1.00  0.00    -0.329 N 
HETATM    2  H20 UNL     1      25.050   1.531  50.867  1.00  0.00     0.180 HD
ENDROOT
BRANCH   1   3
HETATM    3  C10 UNL     1      23.425   2.509  51.622  1.00  0.00     0.096 C 
HETATM    4  C11 UNL     1      24.009   3.656  52.394  1.00  0.00     0.034 C 
BRANCH   3   5
HETATM    5  C9  UNL     1      22.794   2.898  50.330  1.00  0.00     0.030 C 
BRANCH   5   6
HETATM    6  C8  UNL     1      22.482   4.374  50.223  1.00  0.00     0.029 C 
BRANCH   6   7
HETATM    7  C7  UNL     1      22.815   4.750  48.822  1.00  0.00    -0.030 C 
HETATM    8  C6  UNL     1      23.766   5.557  48.371  1.00  0.00    -0.027 C 
BRANCH   8   9
HETATM    9  C5  UNL     1      24.744   6.290  49.208  1.00  0.00     0.056 C 
BRANCH   9  10
HETATM   10  C4  UNL     1      26.150   5.870  48.892  1.00  0.00     0.009 C 
HETATM   11  C2  UNL     1      26.991   4.824  48.953  1.00  0.00     0.038 C 
HETATM   12  C3  UNL     1      26.471   3.534  49.522  1.00  0.00     0.076 C 
BRANCH  11  13
HETATM   13  O1  UNL     1      28.323   4.699  48.568  1.00  0.00    -0.361 OA
HETATM   14  C1  UNL     1      29.133   5.747  48.117  1.00  0.00     0.209 C 
ENDBRANCH  11  13
ENDBRANCH   9  10
ENDBRANCH   8   9
ENDBRANCH   6   7
ENDBRANCH   5   6
ENDBRANCH   3   5
ENDBRANCH   1   3
BRANCH   1  15
HETATM   15  N2  UNL     1      24.495   0.592  52.610  1.00  0.00    -0.287 N 
HETATM   16  C12 UNL     1      23.242   0.041  53.097  1.00  0.00     0.063 A 
HETATM   17  C13 UNL     1      21.912  -0.177  53.103  1.00  0.00     0.061 A 
HETATM   18  C16 UNL     1      23.591  -0.765  54.289  1.00  0.00    -0.007 A 
HETATM   19  C14 UNL     1      21.426  -1.031  54.179  1.00  0.00     0.028 A 
HETATM   20  C15 UNL     1      22.451  -1.407  54.925  1.00  0.00     0.042 A 
HETATM   21  C17 UNL     1      24.895  -0.681  54.461  1.00  0.00     0.013 A 
HETATM   22  C18 UNL     1      25.598   0.160  53.451  1.00  0.00     0.127 A 
HETATM   23  C19 UNL     1      26.209   1.300  54.250  1.00  0.00     0.039 C 
BRANCH  19  24
HETATM   24  N3  UNL     1      20.063  -1.363  54.338  1.00  0.00    -0.399 N 
HETATM   25  H22 UNL     1      19.334  -0.688  54.695  1.00  0.00     0.156 HD
HETATM   26  H23 UNL     1      19.860  -2.360  54.057  1.00  0.00     0.156 HD
ENDBRANCH  19  24
ENDBRANCH   1  15
TORSDOF 9
ENDMDL
MODEL 7
REMARK VINA RESULT:      -6.7      2.924      4.612
REMARK  9 active torsions:
REMARK  status: ('A' for Active; 'I' for Inactive)
REMARK    1  A    between atoms: O1_2  and  C2_3 
REMARK    2  A    between atoms: C4_5  and  C5_6 
REMARK    3  A    between atoms: C5_6  and  C6_7 
REMARK    4  A    between atoms: C7_8  and  C8_9 
REMARK    5  A    between atoms: C8_9  and  C9_10 
REMARK    6  A    between atoms: C9_10  and  C10_11 
REMARK    7  A    between atoms: C10_11  and  N1_13 
REMARK    8  A    between atoms: N1_13  and  N2_14 
REMARK    9  A    between atoms: C14_17  and  N3_18 
ROOT
HETATM    1  N1  UNL     1      21.437   3.563  52.279  1.00  0.00    -0.329 N 
HETATM    2  H20 UNL     1      20.613   3.744  52.888  1.00  0.00     0.180 HD
ENDROOT
BRANCH   1   3
HETATM    3  C10 UNL     1      21.297   4.146  51.007  1.00  0.00     0.096 C 
HETATM    4  C11 UNL     1      19.923   4.131  50.404  1.00  0.00     0.034 C 
BRANCH   3   5
HETATM    5  C9  UNL     1      21.987   5.464  50.927  1.00  0.00     0.030 C 
BRANCH   5   6
HETATM    6  C8  UNL     1      23.462   5.362  50.607  1.00  0.00     0.029 C 
BRANCH   6   7
HETATM    7  C7  UNL     1      23.573   4.287  49.584  1.00  0.00    -0.030 C 
HETATM    8  C6  UNL     1      24.592   3.482  49.317  1.00  0.00    -0.027 C 
BRANCH   8   9
HETATM    9  C5  UNL     1      25.899   3.484  50.015  1.00  0.00     0.056 C 
BRANCH   9  10
HETATM   10  C4  UNL     1      26.957   4.147  49.183  1.00  0.00     0.009 C 
HETATM   11  C2  UNL     1      27.354   5.342  48.712  1.00  0.00     0.038 C 
HETATM   12  C3  UNL     1      26.532   6.548  49.072  1.00  0.00     0.076 C 
BRANCH  11  13
HETATM   13  O1  UNL     1      28.438   5.696  47.914  1.00  0.00    -0.361 OA
HETATM   14  C1  UNL     1      29.764   5.788  48.350  1.00  0.00     0.209 C 
ENDBRANCH  11  13
ENDBRANCH   9  10
ENDBRANCH   8   9
ENDBRANCH   6   7
ENDBRANCH   5   6
ENDBRANCH   3   5
ENDBRANCH   1   3
BRANCH   1  15
HETATM   15  N2  UNL     1      21.958   2.277  52.372  1.00  0.00    -0.287 N 
HETATM   16  C12 UNL     1      23.337   2.370  52.820  1.00  0.00     0.063 A 
HETATM   17  C13 UNL     1      24.463   2.994  53.218  1.00  0.00     0.061 A 
HETATM   18  C16 UNL     1      23.832   0.976  52.899  1.00  0.00    -0.007 A 
HETATM   19  C14 UNL     1      25.585   2.117  53.527  1.00  0.00     0.028 A 
HETATM   20  C15 UNL     1      25.214   0.863  53.336  1.00  0.00     0.042 A 
HETATM   21  C17 UNL     1      22.846   0.181  52.536  1.00  0.00     0.013 A 
HETATM   22  C18 UNL     1      21.585   0.887  52.172  1.00  0.00     0.127 A 
HETATM   23  C19 UNL     1      21.354   0.546  50.708  1.00  0.00     0.039 C 
BRANCH  19  24
HETATM   24  N3  UNL     1      26.840   2.601  53.958  1.00  0.00    -0.399 N 
HETATM   25  H22 UNL     1      27.133   2.648  54.970  1.00  0.00     0.156 HD
HETATM   26  H23 UNL     1      27.447   2.906  53.150  1.00  0.00     0.156 HD
ENDBRANCH  19  24
ENDBRANCH   1  15
TORSDOF 9
ENDMDL
MODEL 8
REMARK VINA RESULT:      -6.6      2.018      4.973
REMARK  9 active torsions:
REMARK  status: ('A' for Active; 'I' for Inactive)
REMARK    1  A    between atoms: O1_2  and  C2_3 
REMARK    2  A    between atoms: C4_5  and  C5_6 
REMARK    3  A    between atoms: C5_6  and  C6_7 
REMARK    4  A    between atoms: C7_8  and  C8_9 
REMARK    5  A    between atoms: C8_9  and  C9_10 
REMARK    6  A    between atoms: C9_10  and  C10_11 
REMARK    7  A    between atoms: C10_11  and  N1_13 
REMARK    8  A    between atoms: N1_13  and  N2_14 
REMARK    9  A    between atoms: C14_17  and  N3_18 
ROOT
HETATM    1  N1  UNL     1      22.799   1.302  50.834  1.00  0.00    -0.329 N 
HETATM    2  H20 UNL     1      23.136   0.369  50.522  1.00  0.00     0.180 HD
ENDROOT
BRANCH   1   3
HETATM    3  C10 UNL     1      21.638   1.212  51.622  1.00  0.00     0.096 C 
HETATM    4  C11 UNL     1      20.450   0.538  51.001  1.00  0.00     0.034 C 
BRANCH   3   5
HETATM    5  C9  UNL     1      21.947   0.757  53.007  1.00  0.00     0.030 C 
BRANCH   5   6
HETATM    6  C8  UNL     1      22.423  -0.677  53.086  1.00  0.00     0.029 C 
BRANCH   6   7
HETATM    7  C7  UNL     1      23.449  -0.695  54.163  1.00  0.00    -0.030 C 
HETATM    8  C6  UNL     1      24.767  -0.589  54.070  1.00  0.00    -0.027 C 
BRANCH   8   9
HETATM    9  C5  UNL     1      25.533  -0.421  52.813  1.00  0.00     0.056 C 
BRANCH   9  10
HETATM   10  C4  UNL     1      26.575   0.650  52.951  1.00  0.00     0.009 C 
HETATM   11  C2  UNL     1      27.113   1.705  52.316  1.00  0.00     0.038 C 
HETATM   12  C3  UNL     1      26.572   2.062  50.961  1.00  0.00     0.076 C 
BRANCH  11  13
HETATM   13  O1  UNL     1      28.130   2.577  52.694  1.00  0.00    -0.361 OA
HETATM   14  C1  UNL     1      28.988   2.391  53.783  1.00  0.00     0.209 C 
ENDBRANCH  11  13
ENDBRANCH   9  10
ENDBRANCH   8   9
ENDBRANCH   6   7
ENDBRANCH   5   6
ENDBRANCH   3   5
ENDBRANCH   1   3
BRANCH   1  15
HETATM   15  N2  UNL     1      22.878   2.302  49.870  1.00  0.00    -0.287 N 
HETATM   16  C12 UNL     1      23.283   3.536  50.519  1.00  0.00     0.063 A 
HETATM   17  C13 UNL     1      23.646   4.324  51.551  1.00  0.00     0.061 A 
HETATM   18  C16 UNL     1      23.349   4.555  49.446  1.00  0.00    -0.007 A 
HETATM   19  C14 UNL     1      23.922   5.713  51.207  1.00  0.00     0.028 A 
HETATM   20  C15 UNL     1      23.744   5.877  49.907  1.00  0.00     0.042 A 
HETATM   21  C17 UNL     1      23.017   3.966  48.315  1.00  0.00     0.013 A 
HETATM   22  C18 UNL     1      22.691   2.517  48.445  1.00  0.00     0.127 A 
HETATM   23  C19 UNL     1      21.235   2.405  48.020  1.00  0.00     0.039 C 
BRANCH  19  24
HETATM   24  N3  UNL     1      24.314   6.676  52.162  1.00  0.00    -0.399 N 
HETATM   25  H22 UNL     1      23.646   7.353  52.618  1.00  0.00     0.156 HD
HETATM   26  H23 UNL     1      25.348   6.636  52.367  1.00  0.00     0.156 HD
ENDBRANCH  19  24
ENDBRANCH   1  15
TORSDOF 9
ENDMDL
MODEL 9
REMARK VINA RESULT:      -6.5      2.533      5.269
REMARK  9 active torsions:
REMARK  status: ('A' for Active; 'I' for Inactive)
REMARK    1  A    between atoms: O1_2  and  C2_3 
REMARK    2  A    between atoms: C4_5  and  C5_6 
REMARK    3  A    between atoms: C5_6  and  C6_7 
REMARK    4  A    between atoms: C7_8  and  C8_9 
REMARK    5  A    between atoms: C8_9  and  C9_10 
REMARK    6  A    between atoms: C9_10  and  C10_11 
REMARK    7  A    between atoms: C10_11  and  N1_13 
REMARK    8  A    between atoms: N1_13  and  N2_14 
REMARK    9  A    between atoms: C14_17  and  N3_18 
ROOT
HETATM    1  N1  UNL     1      22.410   0.598  53.336  1.00  0.00    -0.329 N 
HETATM    2  H20 UNL     1      22.547  -0.337  53.771  1.00  0.00     0.180 HD
ENDROOT
BRANCH   1   3
HETATM    3  C10 UNL     1      21.185   0.694  52.653  1.00  0.00     0.096 C 
HETATM    4  C11 UNL     1      20.402   1.960  52.844  1.00  0.00     0.034 C 
BRANCH   3   5
HETATM    5  C9  UNL     1      21.311   0.258  51.234  1.00  0.00     0.030 C 
BRANCH   5   6
HETATM    6  C8  UNL     1      20.743   1.247  50.240  1.00  0.00     0.029 C 
BRANCH   6   7
HETATM    7  C7  UNL     1      21.654   1.195  49.064  1.00  0.00    -0.030 C 
HETATM    8  C6  UNL     1      22.347   2.171  48.494  1.00  0.00    -0.027 C 
BRANCH   8   9
HETATM    9  C5  UNL     1      22.360   3.588  48.928  1.00  0.00     0.056 C 
BRANCH   9  10
HETATM   10  C4  UNL     1      23.764   4.088  49.103  1.00  0.00     0.009 C 
HETATM   11  C2  UNL     1      24.481   5.101  49.620  1.00  0.00     0.038 C 
HETATM   12  C3  UNL     1      23.737   6.212  50.306  1.00  0.00     0.076 C 
BRANCH  11  13
HETATM   13  O1  UNL     1      25.853   5.330  49.643  1.00  0.00    -0.361 OA
HETATM   14  C1  UNL     1      26.818   4.507  49.052  1.00  0.00     0.209 C 
ENDBRANCH  11  13
ENDBRANCH   9  10
ENDBRANCH   8   9
ENDBRANCH   6   7
ENDBRANCH   5   6
ENDBRANCH   3   5
ENDBRANCH   1   3
BRANCH   1  15
HETATM   15  N2  UNL     1      23.549   1.139  52.749  1.00  0.00    -0.287 N 
HETATM   16  C12 UNL     1      24.635   0.184  52.884  1.00  0.00     0.063 A 
HETATM   17  C13 UNL     1      25.220  -0.971  53.258  1.00  0.00     0.061 A 
HETATM   18  C16 UNL     1      25.811   0.815  52.243  1.00  0.00    -0.007 A 
HETATM   19  C14 UNL     1      26.629  -1.097  52.908  1.00  0.00     0.028 A 
HETATM   20  C15 UNL     1      27.015  -0.001  52.278  1.00  0.00     0.042 A 
HETATM   21  C17 UNL     1      25.436   1.997  51.794  1.00  0.00     0.013 A 
HETATM   22  C18 UNL     1      24.007   2.330  52.053  1.00  0.00     0.127 A 
HETATM   23  C19 UNL     1      24.048   3.556  52.951  1.00  0.00     0.039 C 
BRANCH  19  24
HETATM   24  N3  UNL     1      27.398  -2.238  53.224  1.00  0.00    -0.399 N 
HETATM   25  H22 UNL     1      28.434  -2.210  53.421  1.00  0.00     0.156 HD
HETATM   26  H23 UNL     1      26.815  -3.118  53.240  1.00  0.00     0.156 HD
ENDBRANCH  19  24
ENDBRANCH   1  15
TORSDOF 9
ENDMDL
