MODEL 1
REMARK VINA RESULT:      -9.0      0.000      0.000
REMARK  4 active torsions:
REMARK  status: ('A' for Active; 'I' for Inactive)
REMARK    1  A    between atoms: C7_7  and  N1_8 
REMARK       I    between atoms: N1_8  and  C8_9 
REMARK    2  A    between atoms: C9_11  and  C10_12 
REMARK    3  A    between atoms: C10_12  and  C11_13 
REMARK    4  A    between atoms: C11_13  and  N2_14 
ROOT
HETATM    1  C1  UNL     1      17.716  -0.145  51.949  1.00  0.00     0.050 C 
HETATM    2  C2  UNL     1      19.174  -0.125  52.148  1.00  0.00    -0.033 A 
HETATM    3  C3  UNL     1      19.451  -0.653  53.430  1.00  0.00     0.041 A 
HETATM    4  C4  UNL     1      20.779  -0.727  53.849  1.00  0.00     0.062 A 
HETATM    5  C5  UNL     1      21.840  -0.273  52.987  1.00  0.00     0.003 A 
HETATM    6  C6  UNL     1      21.521   0.235  51.752  1.00  0.00     0.044 A 
HETATM    7  C7  UNL     1      20.185   0.265  51.432  1.00  0.00     0.041 A 
HETATM    8  C16 UNL     1      23.039  -0.388  53.473  1.00  0.00    -0.015 A 
HETATM    9  C17 UNL     1      24.388  -0.150  53.166  1.00  0.00    -0.025 A 
HETATM   10  C18 UNL     1      25.336  -1.198  53.339  1.00  0.00     0.015 A 
HETATM   11  C19 UNL     1      26.735  -1.245  53.139  1.00  0.00     0.045 A 
HETATM   12  C20 UNL     1      27.114   0.036  52.691  1.00  0.00     0.138 A 
HETATM   13  F1  UNL     1      28.471   0.068  52.491  1.00  0.00    -0.204 F 
HETATM   14  C21 UNL     1      26.361   1.140  52.470  1.00  0.00     0.073 A 
HETATM   15 CL1  UNL     1      27.150   2.585  51.914  1.00  0.00    -0.081 Cl
HETATM   16  C22 UNL     1      25.056   0.955  52.726  1.00  0.00     0.039 A 
HETATM   17  C23 UNL     1      22.827  -0.998  54.840  1.00  0.00     0.189 A 
HETATM   18  N3  UNL     1      21.412  -1.160  54.901  1.00  0.00    -0.284 NA
ENDROOT
BRANCH   7  19
HETATM   19  N1  UNL     1      19.942   0.840  50.163  1.00  0.00    -0.334 N 
HETATM   20  C8  UNL     1      20.207   2.172  50.001  1.00  0.00     0.179 C 
HETATM   21  O1  UNL     1      20.617   2.307  51.261  1.00  0.00    -0.172 OA
HETATM   22  C9  UNL     1      20.422   3.555  49.634  1.00  0.00     0.056 C 
HETATM   23  H6  UNL     1      19.651   0.898  49.138  1.00  0.00     0.168 HD
BRANCH  22  24
HETATM   24  C10 UNL     1      20.860   4.626  50.217  1.00  0.00     0.007 C 
BRANCH  24  25
HETATM   25  C11 UNL     1      21.392   5.823  50.802  1.00  0.00     0.300 C 
BRANCH  25  26
HETATM   26  N2  UNL     1      22.290   6.406  49.772  1.00  0.00     0.096 N 
HETATM   27  C12 UNL     1      22.680   7.734  50.042  1.00  0.00     0.299 C 
HETATM   28  C13 UNL     1      23.901   7.926  50.881  1.00  0.00     0.198 C 
HETATM   29  O2  UNL     1      24.484   6.724  51.251  1.00  0.00    -0.388 OA
HETATM   30  C14 UNL     1      24.665   5.927  50.104  1.00  0.00     0.198 C 
HETATM   31  C15 UNL     1      23.351   5.517  49.477  1.00  0.00     0.299 C 
ENDBRANCH  25  26
ENDBRANCH  24  25
ENDBRANCH  22  24
ENDBRANCH   7  19
TORSDOF 4
ENDMDL
MODEL 2
REMARK VINA RESULT:      -8.7      3.081      4.149
REMARK  4 active torsions:
REMARK  status: ('A' for Active; 'I' for Inactive)
REMARK    1  A    between atoms: C7_7  and  N1_8 
REMARK       I    between atoms: N1_8  and  C8_9 
REMARK    2  A    between atoms: C9_11  and  C10_12 
REMARK    3  A    between atoms: C10_12  and  C11_13 
REMARK    4  A    between atoms: C11_13  and  N2_14 
ROOT
HETATM    1  C1  UNL     1      20.023   3.582  51.953  1.00  0.00     0.050 C 
HETATM    2  C2  UNL     1      21.283   2.868  52.211  1.00  0.00    -0.033 A 
HETATM    3  C3  UNL     1      20.972   1.636  52.832  1.00  0.00     0.041 A 
HETATM    4  C4  UNL     1      22.017   0.782  53.183  1.00  0.00     0.062 A 
HETATM    5  C5  UNL     1      23.382   1.155  52.914  1.00  0.00     0.003 A 
HETATM    6  C6  UNL     1      23.634   2.364  52.312  1.00  0.00     0.044 A 
HETATM    7  C7  UNL     1      22.537   3.132  52.005  1.00  0.00     0.041 A 
HETATM    8  C16 UNL     1      24.277   0.288  53.280  1.00  0.00    -0.015 A 
HETATM    9  C17 UNL     1      25.664   0.066  53.299  1.00  0.00    -0.025 A 
HETATM   10  C18 UNL     1      26.180  -1.161  52.794  1.00  0.00     0.015 A 
HETATM   11  C19 UNL     1      27.498  -1.664  52.707  1.00  0.00     0.045 A 
HETATM   12  C20 UNL     1      28.337  -0.671  53.251  1.00  0.00     0.138 A 
HETATM   13  F1  UNL     1      29.639  -1.103  53.214  1.00  0.00    -0.204 F 
HETATM   14  C21 UNL     1      28.029   0.540  53.771  1.00  0.00     0.073 A 
HETATM   15 CL1  UNL     1      29.319   1.538  54.371  1.00  0.00    -0.081 Cl
HETATM   16  C22 UNL     1      26.714   0.810  53.751  1.00  0.00     0.039 A 
HETATM   17  C23 UNL     1      23.474  -0.845  53.876  1.00  0.00     0.189 A 
HETATM   18  N3  UNL     1      22.129  -0.399  53.720  1.00  0.00    -0.284 NA
ENDROOT
BRANCH   7  19
HETATM   19  N1  UNL     1      22.888   4.375  51.428  1.00  0.00    -0.334 N 
HETATM   20  C8  UNL     1      22.752   4.515  50.075  1.00  0.00     0.179 C 
HETATM   21  O1  UNL     1      22.300   3.271  49.930  1.00  0.00    -0.172 OA
HETATM   22  C9  UNL     1      22.680   4.856  48.671  1.00  0.00     0.056 C 
HETATM   23  H6  UNL     1      23.229   5.385  51.377  1.00  0.00     0.168 HD
BRANCH  22  24
HETATM   24  C10 UNL     1      22.315   4.266  47.577  1.00  0.00     0.007 C 
BRANCH  24  25
HETATM   25  C11 UNL     1      21.859   3.669  46.355  1.00  0.00     0.300 C 
BRANCH  25  26
HETATM   26  N2  UNL     1      20.804   4.578  45.835  1.00  0.00     0.096 N 
HETATM   27  C12 UNL     1      21.116   5.159  44.588  1.00  0.00     0.299 C 
HETATM   28  C13 UNL     1      20.731   4.392  43.367  1.00  0.00     0.198 C 
HETATM   29  O2  UNL     1      20.086   3.202  43.669  1.00  0.00    -0.388 OA
HETATM   30  C14 UNL     1      19.034   3.462  44.569  1.00  0.00     0.198 C 
HETATM   31  C15 UNL     1      19.534   3.957  45.907  1.00  0.00     0.299 C 
ENDBRANCH  25  26
ENDBRANCH  24  25
ENDBRANCH  22  24
ENDBRANCH   7  19
TORSDOF 4
ENDMDL
MODEL 3
REMARK VINA RESULT:      -8.7      1.428      1.888
REMARK  4 active torsions:
REMARK  status: ('A' for Active; 'I' for Inactive)
REMARK    1  A    between atoms: C7_7  and  N1_8 
REMARK       I    between atoms: N1_8  and  C8_9 
REMARK    2  A    between atoms: C9_11  and  C10_12 
REMARK    3  A    between atoms: C10_12  and  C11_13 
REMARK    4  A    between atoms: C11_13  and  N2_14 
ROOT
HETATM    1  C1  UNL     1      17.820   1.088  49.787  1.00  0.00     0.050 C 
HETATM    2  C2  UNL     1      19.162   0.955  50.375  1.00  0.00    -0.033 A 
HETATM    3  C3  UNL     1      19.015   0.682  51.754  1.00  0.00     0.041 A 
HETATM    4  C4  UNL     1      20.162   0.523  52.530  1.00  0.00     0.062 A 
HETATM    5  C5  UNL     1      21.466   0.635  51.931  1.00  0.00     0.003 A 
HETATM    6  C6  UNL     1      21.559   0.905  50.587  1.00  0.00     0.044 A 
HETATM    7  C7  UNL     1      20.372   1.044  49.910  1.00  0.00     0.041 A 
HETATM    8  C16 UNL     1      22.467   0.469  52.742  1.00  0.00    -0.015 A 
HETATM    9  C17 UNL     1      23.871   0.452  52.783  1.00  0.00    -0.025 A 
HETATM   10  C18 UNL     1      24.536  -0.651  53.388  1.00  0.00     0.015 A 
HETATM   11  C19 UNL     1      25.908  -0.927  53.595  1.00  0.00     0.045 A 
HETATM   12  C20 UNL     1      26.616   0.167  53.056  1.00  0.00     0.138 A 
HETATM   13  F1  UNL     1      27.962  -0.027  53.237  1.00  0.00    -0.204 F 
HETATM   14  C21 UNL     1      26.158   1.288  52.450  1.00  0.00     0.073 A 
HETATM   15 CL1  UNL     1      27.313   2.461  51.895  1.00  0.00    -0.081 Cl
HETATM   16  C22 UNL     1      24.819   1.338  52.363  1.00  0.00     0.039 A 
HETATM   17  C23 UNL     1      21.818   0.199  54.080  1.00  0.00     0.189 A 
HETATM   18  N3  UNL     1      20.427   0.245  53.774  1.00  0.00    -0.284 NA
ENDROOT
BRANCH   7  19
HETATM   19  N1  UNL     1      20.558   1.361  48.545  1.00  0.00    -0.334 N 
HETATM   20  C8  UNL     1      21.109   2.574  48.237  1.00  0.00     0.179 C 
HETATM   21  O1  UNL     1      21.223   2.916  49.519  1.00  0.00    -0.172 OA
HETATM   22  C9  UNL     1      21.673   3.799  47.714  1.00  0.00     0.056 C 
HETATM   23  H6  UNL     1      20.538   1.237  47.485  1.00  0.00     0.168 HD
BRANCH  22  24
HETATM   24  C10 UNL     1      22.159   4.896  48.203  1.00  0.00     0.007 C 
BRANCH  24  25
HETATM   25  C11 UNL     1      22.750   6.110  48.687  1.00  0.00     0.300 C 
BRANCH  25  26
HETATM   26  N2  UNL     1      23.454   5.740  49.942  1.00  0.00     0.096 N 
HETATM   27  C12 UNL     1      24.407   4.714  49.779  1.00  0.00     0.299 C 
HETATM   28  C13 UNL     1      25.791   5.126  49.398  1.00  0.00     0.198 C 
HETATM   29  O2  UNL     1      25.922   6.502  49.286  1.00  0.00    -0.388 OA
HETATM   30  C14 UNL     1      25.414   7.111  50.450  1.00  0.00     0.198 C 
HETATM   31  C15 UNL     1      23.926   6.897  50.607  1.00  0.00     0.299 C 
ENDBRANCH  25  26
ENDBRANCH  24  25
ENDBRANCH  22  24
ENDBRANCH   7  19
TORSDOF 4
ENDMDL
MODEL 4
REMARK VINA RESULT:      -8.2      2.857      6.082
REMARK  4 active torsions:
REMARK  status: ('A' for Active; 'I' for Inactive)
REMARK    1  A    between atoms: C7_7  and  N1_8 
REMARK       I    between atoms: N1_8  and  C8_9 
REMARK    2  A    between atoms: C9_11  and  C10_12 
REMARK    3  A    between atoms: C10_12  and  C11_13 
REMARK    4  A    between atoms: C11_13  and  N2_14 
ROOT
HETATM    1  C1  UNL     1      17.843  -2.249  53.491  1.00  0.00     0.050 C 
HETATM    2  C2  UNL     1      18.566  -1.055  53.025  1.00  0.00    -0.033 A 
HETATM    3  C3  UNL     1      17.891  -0.543  51.894  1.00  0.00     0.041 A 
HETATM    4  C4  UNL     1      18.401   0.593  51.267  1.00  0.00     0.062 A 
HETATM    5  C5  UNL     1      19.593   1.226  51.770  1.00  0.00     0.003 A 
HETATM    6  C6  UNL     1      20.217   0.690  52.870  1.00  0.00     0.044 A 
HETATM    7  C7  UNL     1      19.635  -0.429  53.415  1.00  0.00     0.041 A 
HETATM    8  C16 UNL     1      19.982   2.278  51.115  1.00  0.00    -0.015 A 
HETATM    9  C17 UNL     1      20.981   3.265  51.094  1.00  0.00    -0.025 A 
HETATM   10  C18 UNL     1      20.603   4.636  51.022  1.00  0.00     0.015 A 
HETATM   11  C19 UNL     1      21.369   5.823  50.963  1.00  0.00     0.045 A 
HETATM   12  C20 UNL     1      22.721   5.423  50.987  1.00  0.00     0.138 A 
HETATM   13  F1  UNL     1      23.526   6.530  50.916  1.00  0.00    -0.204 F 
HETATM   14  C21 UNL     1      23.261   4.183  51.053  1.00  0.00     0.073 A 
HETATM   15 CL1  UNL     1      24.992   4.032  51.061  1.00  0.00    -0.081 Cl
HETATM   16  C22 UNL     1      22.344   3.204  51.102  1.00  0.00     0.039 A 
HETATM   17  C23 UNL     1      18.956   2.430  50.016  1.00  0.00     0.189 A 
HETATM   18  N3  UNL     1      18.061   1.349  50.263  1.00  0.00    -0.284 NA
ENDROOT
BRANCH   7  19
HETATM   19  N1  UNL     1      20.363  -0.939  54.515  1.00  0.00    -0.334 N 
HETATM   20  C8  UNL     1      21.727  -0.872  54.469  1.00  0.00     0.179 C 
HETATM   21  O1  UNL     1      21.719  -0.288  53.272  1.00  0.00    -0.172 OA
HETATM   22  C9  UNL     1      23.168  -0.891  54.606  1.00  0.00     0.056 C 
HETATM   23  H6  UNL     1      20.539  -1.393  55.465  1.00  0.00     0.168 HD
BRANCH  22  24
HETATM   24  C10 UNL     1      24.185  -0.504  53.904  1.00  0.00     0.007 C 
BRANCH  24  25
HETATM   25  C11 UNL     1      25.343  -0.046  53.191  1.00  0.00     0.300 C 
BRANCH  25  26
HETATM   26  N2  UNL     1      26.069   0.842  54.137  1.00  0.00     0.096 N 
HETATM   27  C12 UNL     1      27.001   0.166  54.951  1.00  0.00     0.299 C 
HETATM   28  C13 UNL     1      28.383  -0.000  54.408  1.00  0.00     0.198 C 
HETATM   29  O2  UNL     1      28.534   0.579  53.158  1.00  0.00    -0.388 OA
HETATM   30  C14 UNL     1      28.064   1.906  53.203  1.00  0.00     0.198 C 
HETATM   31  C15 UNL     1      26.575   1.978  53.462  1.00  0.00     0.299 C 
ENDBRANCH  25  26
ENDBRANCH  24  25
ENDBRANCH  22  24
ENDBRANCH   7  19
TORSDOF 4
ENDMDL
MODEL 5
REMARK VINA RESULT:      -8.2      3.906      6.182
REMARK  4 active torsions:
REMARK  status: ('A' for Active; 'I' for Inactive)
REMARK    1  A    between atoms: C7_7  and  N1_8 
REMARK       I    between atoms: N1_8  and  C8_9 
REMARK    2  A    between atoms: C9_11  and  C10_12 
REMARK    3  A    between atoms: C10_12  and  C11_13 
REMARK    4  A    between atoms: C11_13  and  N2_14 
ROOT
HETATM    1  C1  UNL     1      16.484  -1.718  52.371  1.00  0.00     0.050 C 
HETATM    2  C2  UNL     1      17.816  -1.094  52.388  1.00  0.00    -0.033 A 
HETATM    3  C3  UNL     1      18.527  -1.601  53.499  1.00  0.00     0.041 A 
HETATM    4  C4  UNL     1      19.824  -1.144  53.729  1.00  0.00     0.062 A 
HETATM    5  C5  UNL     1      20.419  -0.174  52.846  1.00  0.00     0.003 A 
HETATM    6  C6  UNL     1      19.688   0.292  51.781  1.00  0.00     0.044 A 
HETATM    7  C7  UNL     1      18.421  -0.220  51.641  1.00  0.00     0.041 A 
HETATM    8  C16 UNL     1      21.631   0.183  53.150  1.00  0.00    -0.015 A 
HETATM    9  C17 UNL     1      22.679   1.017  52.729  1.00  0.00    -0.025 A 
HETATM   10  C18 UNL     1      23.985   0.471  52.578  1.00  0.00     0.015 A 
HETATM   11  C19 UNL     1      25.215   1.059  52.201  1.00  0.00     0.045 A 
HETATM   12  C20 UNL     1      24.945   2.423  51.965  1.00  0.00     0.138 A 
HETATM   13  F1  UNL     1      26.105   3.062  51.609  1.00  0.00    -0.204 F 
HETATM   14  C21 UNL     1      23.782   3.109  52.056  1.00  0.00     0.073 A 
HETATM   15 CL1  UNL     1      23.791   4.809  51.696  1.00  0.00    -0.081 Cl
HETATM   16  C22 UNL     1      22.742   2.347  52.431  1.00  0.00     0.039 A 
HETATM   17  C23 UNL     1      21.955  -0.620  54.388  1.00  0.00     0.189 A 
HETATM   18  N3  UNL     1      20.769  -1.384  54.591  1.00  0.00    -0.284 NA
ENDROOT
BRANCH   7  19
HETATM   19  N1  UNL     1      17.724   0.343  50.547  1.00  0.00    -0.334 N 
HETATM   20  C8  UNL     1      16.825   1.341  50.804  1.00  0.00     0.179 C 
HETATM   21  O1  UNL     1      17.064   1.303  52.114  1.00  0.00    -0.172 OA
HETATM   22  C9  UNL     1      15.840   2.398  50.872  1.00  0.00     0.056 C 
HETATM   23  H6  UNL     1      17.424   0.500  49.535  1.00  0.00     0.168 HD
BRANCH  22  24
HETATM   24  C10 UNL     1      15.308   3.131  51.798  1.00  0.00     0.007 C 
BRANCH  24  25
HETATM   25  C11 UNL     1      14.745   3.892  52.876  1.00  0.00     0.300 C 
BRANCH  25  26
HETATM   26  N2  UNL     1      13.290   3.984  52.583  1.00  0.00     0.096 N 
HETATM   27  C12 UNL     1      12.709   2.759  52.197  1.00  0.00     0.299 C 
HETATM   28  C13 UNL     1      12.197   1.876  53.288  1.00  0.00     0.198 C 
HETATM   29  O2  UNL     1      12.364   2.436  54.545  1.00  0.00    -0.388 OA
HETATM   30  C14 UNL     1      11.844   3.745  54.540  1.00  0.00     0.198 C 
HETATM   31  C15 UNL     1      12.617   4.666  53.625  1.00  0.00     0.299 C 
ENDBRANCH  25  26
ENDBRANCH  24  25
ENDBRANCH  22  24
ENDBRANCH   7  19
TORSDOF 4
ENDMDL
MODEL 6
REMARK VINA RESULT:      -8.1      4.985      9.549
REMARK  4 active torsions:
REMARK  status: ('A' for Active; 'I' for Inactive)
REMARK    1  A    between atoms: C7_7  and  N1_8 
REMARK       I    between atoms: N1_8  and  C8_9 
REMARK    2  A    between atoms: C9_11  and  C10_12 
REMARK    3  A    between atoms: C10_12  and  C11_13 
REMARK    4  A    between atoms: C11_13  and  N2_14 
ROOT
HETATM    1  C1  UNL     1      23.031   6.956  49.934  1.00  0.00     0.050 C 
HETATM    2  C2  UNL     1      24.443   7.186  49.588  1.00  0.00    -0.033 A 
HETATM    3  C3  UNL     1      24.771   8.517  49.932  1.00  0.00     0.041 A 
HETATM    4  C4  UNL     1      26.066   8.972  49.686  1.00  0.00     0.062 A 
HETATM    5  C5  UNL     1      27.043   8.095  49.094  1.00  0.00     0.003 A 
HETATM    6  C6  UNL     1      26.677   6.811  48.774  1.00  0.00     0.044 A 
HETATM    7  C7  UNL     1      25.379   6.459  49.056  1.00  0.00     0.041 A 
HETATM    8  C16 UNL     1      28.218   8.618  48.910  1.00  0.00    -0.015 A 
HETATM    9  C17 UNL     1      29.500   8.320  48.419  1.00  0.00    -0.025 A 
HETATM   10  C18 UNL     1      30.638   8.612  49.223  1.00  0.00     0.015 A 
HETATM   11  C19 UNL     1      32.023   8.449  48.989  1.00  0.00     0.045 A 
HETATM   12  C20 UNL     1      32.144   7.892  47.700  1.00  0.00     0.138 A 
HETATM   13  F1  UNL     1      33.472   7.721  47.400  1.00  0.00    -0.204 F 
HETATM   14  C21 UNL     1      31.187   7.552  46.805  1.00  0.00     0.073 A 
HETATM   15 CL1  UNL     1      31.679   6.881  45.279  1.00  0.00    -0.081 Cl
HETATM   16  C22 UNL     1      29.940   7.794  47.240  1.00  0.00     0.039 A 
HETATM   17  C23 UNL     1      28.082  10.030  49.430  1.00  0.00     0.189 A 
HETATM   18  N3  UNL     1      26.731  10.074  49.882  1.00  0.00    -0.284 NA
ENDROOT
BRANCH   7  19
HETATM   19  N1  UNL     1      25.075   5.137  48.657  1.00  0.00    -0.334 N 
HETATM   20  C8  UNL     1      25.525   4.111  49.441  1.00  0.00     0.179 C 
HETATM   21  O1  UNL     1      26.100   4.943  50.307  1.00  0.00    -0.172 OA
HETATM   22  C9  UNL     1      25.910   2.900  50.132  1.00  0.00     0.056 C 
HETATM   23  H6  UNL     1      24.670   4.347  48.065  1.00  0.00     0.168 HD
BRANCH  22  24
HETATM   24  C10 UNL     1      26.561   2.598  51.211  1.00  0.00     0.007 C 
BRANCH  24  25
HETATM   25  C11 UNL     1      27.223   2.218  52.425  1.00  0.00     0.300 C 
BRANCH  25  26
HETATM   26  N2  UNL     1      27.077   0.742  52.515  1.00  0.00     0.096 N 
HETATM   27  C12 UNL     1      28.137   0.104  53.191  1.00  0.00     0.299 C 
HETATM   28  C13 UNL     1      28.018  -0.026  54.673  1.00  0.00     0.198 C 
HETATM   29  O2  UNL     1      26.829   0.500  55.158  1.00  0.00    -0.388 OA
HETATM   30  C14 UNL     1      25.754  -0.034  54.421  1.00  0.00     0.198 C 
HETATM   31  C15 UNL     1      25.781   0.398  52.972  1.00  0.00     0.299 C 
ENDBRANCH  25  26
ENDBRANCH  24  25
ENDBRANCH  22  24
ENDBRANCH   7  19
TORSDOF 4
ENDMDL
MODEL 7
REMARK VINA RESULT:      -8.1      3.678      5.788
REMARK  4 active torsions:
REMARK  status: ('A' for Active; 'I' for Inactive)
REMARK    1  A    between atoms: C7_7  and  N1_8 
REMARK       I    between atoms: N1_8  and  C8_9 
REMARK    2  A    between atoms: C9_11  and  C10_12 
REMARK    3  A    between atoms: C10_12  and  C11_13 
REMARK    4  A    between atoms: C11_13  and  N2_14 
ROOT
HETATM    1  C1  UNL     1      25.570   5.869  49.274  1.00  0.00     0.050 C 
HETATM    2  C2  UNL     1      25.272   4.709  50.128  1.00  0.00    -0.033 A 
HETATM    3  C3  UNL     1      26.361   3.812  50.051  1.00  0.00     0.041 A 
HETATM    4  C4  UNL     1      26.302   2.623  50.778  1.00  0.00     0.062 A 
HETATM    5  C5  UNL     1      25.149   2.325  51.588  1.00  0.00     0.003 A 
HETATM    6  C6  UNL     1      24.114   3.225  51.629  1.00  0.00     0.044 A 
HETATM    7  C7  UNL     1      24.269   4.366  50.879  1.00  0.00     0.041 A 
HETATM    8  C16 UNL     1      25.196   1.193  52.225  1.00  0.00    -0.015 A 
HETATM    9  C17 UNL     1      24.459   0.385  53.106  1.00  0.00    -0.025 A 
HETATM   10  C18 UNL     1      25.086  -0.112  54.284  1.00  0.00     0.015 A 
HETATM   11  C19 UNL     1      24.614  -0.950  55.320  1.00  0.00     0.045 A 
HETATM   12  C20 UNL     1      23.279  -1.266  54.996  1.00  0.00     0.138 A 
HETATM   13  F1  UNL     1      22.760  -2.095  55.958  1.00  0.00    -0.204 F 
HETATM   14  C21 UNL     1      22.528  -0.890  53.935  1.00  0.00     0.073 A 
HETATM   15 CL1  UNL     1      20.892  -1.467  53.829  1.00  0.00    -0.081 Cl
HETATM   16  C22 UNL     1      23.182  -0.093  53.075  1.00  0.00     0.039 A 
HETATM   17  C23 UNL     1      26.534   0.605  51.839  1.00  0.00     0.189 A 
HETATM   18  N3  UNL     1      27.084   1.602  50.980  1.00  0.00    -0.284 NA
ENDROOT
BRANCH   7  19
HETATM   19  N1  UNL     1      23.142   5.217  50.944  1.00  0.00    -0.334 N 
HETATM   20  C8  UNL     1      22.139   5.025  50.035  1.00  0.00     0.179 C 
HETATM   21  O1  UNL     1      22.775   4.009  49.456  1.00  0.00    -0.172 OA
HETATM   22  C9  UNL     1      20.983   4.981  49.166  1.00  0.00     0.056 C 
HETATM   23  H6  UNL     1      22.508   6.002  51.295  1.00  0.00     0.168 HD
BRANCH  22  24
HETATM   24  C10 UNL     1      20.584   4.260  48.166  1.00  0.00     0.007 C 
BRANCH  24  25
HETATM   25  C11 UNL     1      20.105   3.417  47.109  1.00  0.00     0.300 C 
BRANCH  25  26
HETATM   26  N2  UNL     1      19.571   4.338  46.073  1.00  0.00     0.096 N 
HETATM   27  C12 UNL     1      20.506   5.292  45.622  1.00  0.00     0.299 C 
HETATM   28  C13 UNL     1      21.386   4.895  44.483  1.00  0.00     0.198 C 
HETATM   29  O2  UNL     1      21.114   3.615  44.024  1.00  0.00    -0.388 OA
HETATM   30  C14 UNL     1      19.732   3.495  43.783  1.00  0.00     0.198 C 
HETATM   31  C15 UNL     1      18.916   3.610  45.051  1.00  0.00     0.299 C 
ENDBRANCH  25  26
ENDBRANCH  24  25
ENDBRANCH  22  24
ENDBRANCH   7  19
TORSDOF 4
ENDMDL
MODEL 8
REMARK VINA RESULT:      -8.0      4.363      6.683
REMARK  4 active torsions:
REMARK  status: ('A' for Active; 'I' for Inactive)
REMARK    1  A    between atoms: C7_7  and  N1_8 
REMARK       I    between atoms: N1_8  and  C8_9 
REMARK    2  A    between atoms: C9_11  and  C10_12 
REMARK    3  A    between atoms: C10_12  and  C11_13 
REMARK    4  A    between atoms: C11_13  and  N2_14 
ROOT
HETATM    1  C1  UNL     1      26.469   6.059  49.040  1.00  0.00     0.050 C 
HETATM    2  C2  UNL     1      25.674   5.020  49.714  1.00  0.00    -0.033 A 
HETATM    3  C3  UNL     1      26.542   3.963  50.070  1.00  0.00     0.041 A 
HETATM    4  C4  UNL     1      26.008   2.850  50.719  1.00  0.00     0.062 A 
HETATM    5  C5  UNL     1      24.600   2.788  51.016  1.00  0.00     0.003 A 
HETATM    6  C6  UNL     1      23.796   3.838  50.647  1.00  0.00     0.044 A 
HETATM    7  C7  UNL     1      24.417   4.888  50.014  1.00  0.00     0.041 A 
HETATM    8  C16 UNL     1      24.208   1.709  51.623  1.00  0.00    -0.015 A 
HETATM    9  C17 UNL     1      23.064   1.085  52.148  1.00  0.00    -0.025 A 
HETATM   10  C18 UNL     1      23.096   0.579  53.478  1.00  0.00     0.015 A 
HETATM   11  C19 UNL     1      22.128  -0.104  54.250  1.00  0.00     0.045 A 
HETATM   12  C20 UNL     1      20.988  -0.232  53.432  1.00  0.00     0.138 A 
HETATM   13  F1  UNL     1      20.008  -0.904  54.116  1.00  0.00    -0.204 F 
HETATM   14  C21 UNL     1      20.778   0.182  52.160  1.00  0.00     0.073 A 
HETATM   15 CL1  UNL     1      19.237  -0.143  51.426  1.00  0.00    -0.081 Cl
HETATM   16  C22 UNL     1      21.836   0.809  51.622  1.00  0.00     0.039 A 
HETATM   17  C23 UNL     1      25.472   0.897  51.791  1.00  0.00     0.189 A 
HETATM   18  N3  UNL     1      26.468   1.737  51.213  1.00  0.00    -0.284 NA
ENDROOT
BRANCH   7  19
HETATM   19  N1  UNL     1      23.513   5.905  49.632  1.00  0.00    -0.334 N 
HETATM   20  C8  UNL     1      22.836   5.752  48.454  1.00  0.00     0.179 C 
HETATM   21  O1  UNL     1      23.417   4.581  48.200  1.00  0.00    -0.172 OA
HETATM   22  C9  UNL     1      22.031   5.773  47.251  1.00  0.00     0.056 C 
HETATM   23  H6  UNL     1      22.962   6.818  49.689  1.00  0.00     0.168 HD
BRANCH  22  24
HETATM   24  C10 UNL     1      21.843   4.996  46.231  1.00  0.00     0.007 C 
BRANCH  24  25
HETATM   25  C11 UNL     1      21.562   4.126  45.126  1.00  0.00     0.300 C 
BRANCH  25  26
HETATM   26  N2  UNL     1      20.369   4.704  44.455  1.00  0.00     0.096 N 
HETATM   27  C12 UNL     1      20.603   5.108  43.125  1.00  0.00     0.299 C 
HETATM   28  C13 UNL     1      20.416   4.079  42.059  1.00  0.00     0.198 C 
HETATM   29  O2  UNL     1      20.004   2.857  42.569  1.00  0.00    -0.388 OA
HETATM   30  C14 UNL     1      18.893   3.059  43.409  1.00  0.00     0.198 C 
HETATM   31  C15 UNL     1      19.241   3.868  44.638  1.00  0.00     0.299 C 
ENDBRANCH  25  26
ENDBRANCH  24  25
ENDBRANCH  22  24
ENDBRANCH   7  19
TORSDOF 4
ENDMDL
MODEL 9
REMARK VINA RESULT:      -8.0      2.809      6.055
REMARK  4 active torsions:
REMARK  status: ('A' for Active; 'I' for Inactive)
REMARK    1  A    between atoms: C7_7  and  N1_8 
REMARK       I    between atoms: N1_8  and  C8_9 
REMARK    2  A    between atoms: C9_11  and  C10_12 
REMARK    3  A    between atoms: C10_12  and  C11_13 
REMARK    4  A    between atoms: C11_13  and  N2_14 
ROOT
HETATM    1  C1  UNL     1      25.066   6.523  49.676  1.00  0.00     0.050 C 
HETATM    2  C2  UNL     1      24.894   5.282  50.447  1.00  0.00    -0.033 A 
HETATM    3  C3  UNL     1      25.950   4.404  50.112  1.00  0.00     0.041 A 
HETATM    4  C4  UNL     1      25.994   3.149  50.717  1.00  0.00     0.062 A 
HETATM    5  C5  UNL     1      24.980   2.763  51.663  1.00  0.00     0.003 A 
HETATM    6  C6  UNL     1      23.971   3.648  51.955  1.00  0.00     0.044 A 
HETATM    7  C7  UNL     1      24.017   4.859  51.307  1.00  0.00     0.041 A 
HETATM    8  C16 UNL     1      25.115   1.574  52.169  1.00  0.00    -0.015 A 
HETATM    9  C17 UNL     1      24.517   0.677  53.069  1.00  0.00    -0.025 A 
HETATM   10  C18 UNL     1      25.315   0.069  54.079  1.00  0.00     0.015 A 
HETATM   11  C19 UNL     1      25.003  -0.871  55.088  1.00  0.00     0.045 A 
HETATM   12  C20 UNL     1      23.631  -1.163  54.946  1.00  0.00     0.138 A 
HETATM   13  F1  UNL     1      23.261  -2.087  55.889  1.00  0.00    -0.204 F 
HETATM   14  C21 UNL     1      22.727  -0.688  54.057  1.00  0.00     0.073 A 
HETATM   15 CL1  UNL     1      21.090  -1.263  54.151  1.00  0.00    -0.081 Cl
HETATM   16  C22 UNL     1      23.246   0.196  53.190  1.00  0.00     0.039 A 
HETATM   17  C23 UNL     1      26.371   1.037  51.522  1.00  0.00     0.189 A 
HETATM   18  N3  UNL     1      26.789   2.118  50.692  1.00  0.00    -0.284 NA
ENDROOT
BRANCH   7  19
HETATM   19  N1  UNL     1      22.922   5.692  51.631  1.00  0.00    -0.334 N 
HETATM   20  C8  UNL     1      21.681   5.319  51.194  1.00  0.00     0.179 C 
HETATM   21  O1  UNL     1      22.151   4.222  50.605  1.00  0.00    -0.172 OA
HETATM   22  C9  UNL     1      20.300   5.098  50.825  1.00  0.00     0.056 C 
HETATM   23  H6  UNL     1      22.393   6.519  52.050  1.00  0.00     0.168 HD
BRANCH  22  24
HETATM   24  C10 UNL     1      19.632   4.197  50.175  1.00  0.00     0.007 C 
BRANCH  24  25
HETATM   25  C11 UNL     1      18.872   3.170  49.524  1.00  0.00     0.300 C 
BRANCH  25  26
HETATM   26  N2  UNL     1      17.854   2.735  50.516  1.00  0.00     0.096 N 
HETATM   27  C12 UNL     1      16.733   2.102  49.942  1.00  0.00     0.299 C 
HETATM   28  C13 UNL     1      16.820   0.626  49.731  1.00  0.00     0.198 C 
HETATM   29  O2  UNL     1      18.024   0.098  50.171  1.00  0.00    -0.388 OA
HETATM   30  C14 UNL     1      18.263   0.530  51.490  1.00  0.00     0.198 C 
HETATM   31  C15 UNL     1      18.467   2.025  51.577  1.00  0.00     0.299 C 
ENDBRANCH  25  26
ENDBRANCH  24  25
ENDBRANCH  22  24
ENDBRANCH   7  19
TORSDOF 4
ENDMDL
