MODEL 1
REMARK VINA RESULT:      -8.2      0.000      0.000
REMARK  0 active torsions:
REMARK  status: ('A' for Active; 'I' for Inactive)
ROOT
HETATM    1  C1  UNL     1      22.874   3.919  50.052  1.00  0.00     0.146 C 
HETATM    2  N1  UNL     1      23.258   3.230  51.272  1.00  0.00    -0.376 N 
HETATM    3  C2  UNL     1      22.482   2.912  52.486  1.00  0.00     0.124 C 
HETATM    4  C3  UNL     1      21.979   1.438  52.633  1.00  0.00     0.058 C 
HETATM    5  C4  UNL     1      23.093   0.563  53.008  1.00  0.00    -0.056 A 
HETATM    6  C5  UNL     1      23.542  -0.532  53.765  1.00  0.00     0.009 A 
HETATM    7  C6  UNL     1      24.872  -0.929  53.904  1.00  0.00     0.030 A 
HETATM    8  C7  UNL     1      25.970  -0.331  53.335  1.00  0.00     0.040 A 
HETATM    9  C8  UNL     1      25.751   0.744  52.557  1.00  0.00     0.035 A 
HETATM   10  C9  UNL     1      24.359   0.891  52.610  1.00  0.00     0.021 A 
HETATM   11  C10 UNL     1      26.310   1.869  51.768  1.00  0.00     0.346 A 
HETATM   12  N2  UNL     1      27.368   2.571  51.917  1.00  0.00    -0.232 NA
HETATM   13  C11 UNL     1      28.254   2.263  53.072  1.00  0.00     0.226 C 
HETATM   14  N3  UNL     1      28.618   1.125  53.645  1.00  0.00    -0.264 NA
HETATM   15  C12 UNL     1      28.556  -0.274  53.700  1.00  0.00     0.272 C 
HETATM   16  N4  UNL     1      27.209  -0.899  53.745  1.00  0.00    -0.371 N 
HETATM   17  N5  UNL     1      25.978   2.741  50.678  1.00  0.00     0.163 N 
HETATM   18  C13 UNL     1      26.784   3.229  49.586  1.00  0.00     0.318 C 
HETATM   19  C14 UNL     1      24.644   3.031  50.878  1.00  0.00     0.351 A 
HETATM   20  O1  UNL     1      25.507   2.508  51.396  1.00  0.00     0.000 OA
HETATM   21  H14 UNL     1      27.003  -1.851  54.110  1.00  0.00     0.161 HD
ENDROOT
TORSDOF 0
ENDMDL
MODEL 2
REMARK VINA RESULT:      -8.0      2.234      4.875
REMARK  0 active torsions:
REMARK  status: ('A' for Active; 'I' for Inactive)
ROOT
HETATM    1  C1  UNL     1      26.768   2.329  51.466  1.00  0.00     0.146 C 
HETATM    2  N1  UNL     1      25.979   1.185  51.891  1.00  0.00    -0.376 N 
HETATM    3  C2  UNL     1      26.390  -0.169  52.312  1.00  0.00     0.124 C 
HETATM    4  C3  UNL     1      26.373  -0.462  53.848  1.00  0.00     0.058 C 
HETATM    5  C4  UNL     1      24.994  -0.641  54.309  1.00  0.00    -0.056 A 
HETATM    6  C5  UNL     1      24.100  -1.332  55.144  1.00  0.00     0.009 A 
HETATM    7  C6  UNL     1      22.709  -1.219  55.109  1.00  0.00     0.030 A 
HETATM    8  C7  UNL     1      21.972  -0.425  54.266  1.00  0.00     0.040 A 
HETATM    9  C8  UNL     1      22.650   0.332  53.383  1.00  0.00     0.035 A 
HETATM   10  C9  UNL     1      23.985   0.010  53.656  1.00  0.00     0.021 A 
HETATM   11  C10 UNL     1      22.618   1.254  52.222  1.00  0.00     0.346 A 
HETATM   12  N2  UNL     1      21.823   1.341  51.224  1.00  0.00    -0.232 NA
HETATM   13  C11 UNL     1      20.696   0.373  51.143  1.00  0.00     0.226 C 
HETATM   14  N3  UNL     1      19.899  -0.156  52.060  1.00  0.00    -0.264 NA
HETATM   15  C12 UNL     1      19.511  -0.270  53.402  1.00  0.00     0.272 C 
HETATM   16  N4  UNL     1      20.566  -0.602  54.395  1.00  0.00    -0.371 N 
HETATM   17  N5  UNL     1      23.393   2.286  51.596  1.00  0.00     0.163 N 
HETATM   18  C13 UNL     1      22.985   3.532  50.994  1.00  0.00     0.318 C 
HETATM   19  C14 UNL     1      24.693   1.838  51.702  1.00  0.00     0.351 A 
HETATM   20  O1  UNL     1      23.633   1.482  51.891  1.00  0.00     0.000 OA
HETATM   21  H14 UNL     1      20.396  -1.034  55.326  1.00  0.00     0.161 HD
ENDROOT
TORSDOF 0
ENDMDL
MODEL 3
REMARK VINA RESULT:      -8.0      1.767      2.209
REMARK  0 active torsions:
REMARK  status: ('A' for Active; 'I' for Inactive)
ROOT
HETATM    1  C1  UNL     1      20.671   2.664  50.324  1.00  0.00     0.146 C 
HETATM    2  N1  UNL     1      21.082   2.187  51.634  1.00  0.00    -0.376 N 
HETATM    3  C2  UNL     1      20.286   1.844  52.829  1.00  0.00     0.124 C 
HETATM    4  C3  UNL     1      20.061   0.323  53.110  1.00  0.00     0.058 C 
HETATM    5  C4  UNL     1      21.287  -0.276  53.644  1.00  0.00    -0.056 A 
HETATM    6  C5  UNL     1      21.873  -1.183  54.543  1.00  0.00     0.009 A 
HETATM    7  C6  UNL     1      23.239  -1.296  54.802  1.00  0.00     0.030 A 
HETATM    8  C7  UNL     1      24.246  -0.554  54.234  1.00  0.00     0.040 A 
HETATM    9  C8  UNL     1      23.890   0.376  53.330  1.00  0.00     0.035 A 
HETATM   10  C9  UNL     1      22.496   0.252  53.286  1.00  0.00     0.021 A 
HETATM   11  C10 UNL     1      24.287   1.505  52.454  1.00  0.00     0.346 A 
HETATM   12  N2  UNL     1      25.179   2.412  52.584  1.00  0.00    -0.232 NA
HETATM   13  C11 UNL     1      26.014   2.398  53.815  1.00  0.00     0.226 C 
HETATM   14  N3  UNL     1      26.540   1.415  54.532  1.00  0.00    -0.264 NA
HETATM   15  C12 UNL     1      26.739   0.044  54.740  1.00  0.00     0.272 C 
HETATM   16  N4  UNL     1      25.534  -0.825  54.777  1.00  0.00    -0.371 N 
HETATM   17  N5  UNL     1      23.883   2.183  51.256  1.00  0.00     0.163 N 
HETATM   18  C13 UNL     1      24.666   2.710  50.165  1.00  0.00     0.318 C 
HETATM   19  C14 UNL     1      22.507   2.225  51.345  1.00  0.00     0.351 A 
HETATM   20  O1  UNL     1      23.409   1.935  51.967  1.00  0.00     0.000 OA
HETATM   21  H14 UNL     1      25.483  -1.758  55.233  1.00  0.00     0.161 HD
ENDROOT
TORSDOF 0
ENDMDL
MODEL 4
REMARK VINA RESULT:      -7.8      2.028      3.618
REMARK  0 active torsions:
REMARK  status: ('A' for Active; 'I' for Inactive)
ROOT
HETATM    1  C1  UNL     1      19.245  -0.143  52.473  1.00  0.00     0.146 C 
HETATM    2  N1  UNL     1      20.497   0.217  53.117  1.00  0.00    -0.376 N 
HETATM    3  C2  UNL     1      20.902   0.163  54.536  1.00  0.00     0.124 C 
HETATM    4  C3  UNL     1      21.827  -1.026  54.957  1.00  0.00     0.058 C 
HETATM    5  C4  UNL     1      23.193  -0.791  54.483  1.00  0.00    -0.056 A 
HETATM    6  C5  UNL     1      24.572  -0.892  54.733  1.00  0.00     0.009 A 
HETATM    7  C6  UNL     1      25.580  -0.335  53.945  1.00  0.00     0.030 A 
HETATM    8  C7  UNL     1      25.411   0.403  52.798  1.00  0.00     0.040 A 
HETATM    9  C8  UNL     1      24.149   0.609  52.380  1.00  0.00     0.035 A 
HETATM   10  C9  UNL     1      23.386  -0.054  53.348  1.00  0.00     0.021 A 
HETATM   11  C10 UNL     1      23.225   1.284  51.436  1.00  0.00     0.346 A 
HETATM   12  N2  UNL     1      23.282   2.420  50.853  1.00  0.00    -0.232 NA
HETATM   13  C11 UNL     1      24.463   3.283  51.120  1.00  0.00     0.226 C 
HETATM   14  N3  UNL     1      25.750   3.017  51.289  1.00  0.00    -0.264 NA
HETATM   15  C12 UNL     1      26.793   2.082  51.350  1.00  0.00     0.272 C 
HETATM   16  N4  UNL     1      26.624   0.928  52.272  1.00  0.00    -0.371 N 
HETATM   17  N5  UNL     1      21.921   1.138  50.857  1.00  0.00     0.163 N 
HETATM   18  C13 UNL     1      21.457   1.381  49.513  1.00  0.00     0.318 C 
HETATM   19  C14 UNL     1      21.144   0.674  51.898  1.00  0.00     0.351 A 
HETATM   20  O1  UNL     1      22.188   1.070  51.703  1.00  0.00     0.000 OA
HETATM   21  H14 UNL     1      27.401   0.360  52.667  1.00  0.00     0.161 HD
ENDROOT
TORSDOF 0
ENDMDL
MODEL 5
REMARK VINA RESULT:      -7.8      2.231      4.936
REMARK  0 active torsions:
REMARK  status: ('A' for Active; 'I' for Inactive)
ROOT
HETATM    1  C1  UNL     1      21.976  -1.423  53.823  1.00  0.00     0.146 C 
HETATM    2  N1  UNL     1      23.073  -0.473  53.749  1.00  0.00    -0.376 N 
HETATM    3  C2  UNL     1      24.447  -0.541  54.287  1.00  0.00     0.124 C 
HETATM    4  C3  UNL     1      25.584  -0.879  53.268  1.00  0.00     0.058 C 
HETATM    5  C4  UNL     1      25.873   0.290  52.432  1.00  0.00    -0.056 A 
HETATM    6  C5  UNL     1      26.837   1.073  51.777  1.00  0.00     0.009 A 
HETATM    7  C6  UNL     1      26.600   2.304  51.164  1.00  0.00     0.030 A 
HETATM    8  C7  UNL     1      25.398   2.965  51.091  1.00  0.00     0.040 A 
HETATM    9  C8  UNL     1      24.333   2.371  51.660  1.00  0.00     0.035 A 
HETATM   10  C9  UNL     1      24.874   1.186  52.175  1.00  0.00     0.021 A 
HETATM   11  C10 UNL     1      22.907   2.446  52.058  1.00  0.00     0.346 A 
HETATM   12  N2  UNL     1      22.178   3.427  52.435  1.00  0.00    -0.232 NA
HETATM   13  C11 UNL     1      22.805   4.774  52.512  1.00  0.00     0.226 C 
HETATM   14  N3  UNL     1      23.697   5.393  51.753  1.00  0.00    -0.264 NA
HETATM   15  C12 UNL     1      24.542   5.391  50.636  1.00  0.00     0.272 C 
HETATM   16  N4  UNL     1      25.488   4.254  50.495  1.00  0.00    -0.371 N 
HETATM   17  N5  UNL     1      21.779   1.603  52.333  1.00  0.00     0.163 N 
HETATM   18  C13 UNL     1      20.387   1.754  51.989  1.00  0.00     0.318 C 
HETATM   19  C14 UNL     1      22.320   0.538  53.024  1.00  0.00     0.351 A 
HETATM   20  O1  UNL     1      22.621   1.553  52.618  1.00  0.00     0.000 OA
HETATM   21  H14 UNL     1      26.367   4.273  49.939  1.00  0.00     0.161 HD
ENDROOT
TORSDOF 0
ENDMDL
MODEL 6
REMARK VINA RESULT:      -7.4      2.212      4.232
REMARK  0 active torsions:
REMARK  status: ('A' for Active; 'I' for Inactive)
ROOT
HETATM    1  C1  UNL     1      26.584   2.749  50.868  1.00  0.00     0.146 C 
HETATM    2  N1  UNL     1      25.363   2.675  51.653  1.00  0.00    -0.376 N 
HETATM    3  C2  UNL     1      24.332   3.693  51.932  1.00  0.00     0.124 C 
HETATM    4  C3  UNL     1      22.999   3.583  51.123  1.00  0.00     0.058 C 
HETATM    5  C4  UNL     1      22.183   2.485  51.647  1.00  0.00    -0.056 A 
HETATM    6  C5  UNL     1      20.903   2.003  51.968  1.00  0.00     0.009 A 
HETATM    7  C6  UNL     1      20.632   0.817  52.651  1.00  0.00     0.030 A 
HETATM    8  C7  UNL     1      21.554  -0.083  53.128  1.00  0.00     0.040 A 
HETATM    9  C8  UNL     1      22.853   0.195  52.913  1.00  0.00     0.035 A 
HETATM   10  C9  UNL     1      22.803   1.412  52.224  1.00  0.00     0.021 A 
HETATM   11  C10 UNL     1      24.276  -0.149  53.154  1.00  0.00     0.346 A 
HETATM   12  N2  UNL     1      24.868  -0.675  54.158  1.00  0.00    -0.232 NA
HETATM   13  C11 UNL     1      24.044  -1.036  55.343  1.00  0.00     0.226 C 
HETATM   14  N3  UNL     1      22.826  -1.543  55.469  1.00  0.00    -0.264 NA
HETATM   15  C12 UNL     1      21.650  -2.022  54.877  1.00  0.00     0.272 C 
HETATM   16  N4  UNL     1      20.981  -1.148  53.879  1.00  0.00    -0.371 N 
HETATM   17  N5  UNL     1      25.576   0.009  52.569  1.00  0.00     0.163 N 
HETATM   18  C13 UNL     1      26.678  -0.915  52.465  1.00  0.00     0.318 C 
HETATM   19  C14 UNL     1      25.565   1.298  52.076  1.00  0.00     0.351 A 
HETATM   20  O1  UNL     1      24.929   0.604  52.708  1.00  0.00     0.000 OA
HETATM   21  H14 UNL     1      19.977  -1.202  53.614  1.00  0.00     0.161 HD
ENDROOT
TORSDOF 0
ENDMDL
MODEL 7
REMARK VINA RESULT:      -7.3      2.216      4.322
REMARK  0 active torsions:
REMARK  status: ('A' for Active; 'I' for Inactive)
ROOT
HETATM    1  C1  UNL     1      19.595   1.324  49.848  1.00  0.00     0.146 C 
HETATM    2  N1  UNL     1      21.044   1.325  49.738  1.00  0.00    -0.376 N 
HETATM    3  C2  UNL     1      21.922   1.434  48.557  1.00  0.00     0.124 C 
HETATM    4  C3  UNL     1      22.593   2.824  48.305  1.00  0.00     0.058 C 
HETATM    5  C4  UNL     1      23.692   3.029  49.252  1.00  0.00    -0.056 A 
HETATM    6  C5  UNL     1      24.986   3.525  49.482  1.00  0.00     0.009 A 
HETATM    7  C6  UNL     1      25.733   3.330  50.644  1.00  0.00     0.030 A 
HETATM    8  C7  UNL     1      25.346   2.628  51.759  1.00  0.00     0.040 A 
HETATM    9  C8  UNL     1      24.120   2.073  51.742  1.00  0.00     0.035 A 
HETATM   10  C9  UNL     1      23.631   2.434  50.481  1.00  0.00     0.021 A 
HETATM   11  C10 UNL     1      23.120   1.197  52.400  1.00  0.00     0.346 A 
HETATM   12  N2  UNL     1      23.249   0.157  53.131  1.00  0.00    -0.232 NA
HETATM   13  C11 UNL     1      24.625  -0.326  53.423  1.00  0.00     0.226 C 
HETATM   14  N3  UNL     1      25.764   0.304  53.671  1.00  0.00    -0.264 NA
HETATM   15  C12 UNL     1      26.470   1.504  53.832  1.00  0.00     0.272 C 
HETATM   16  N4  UNL     1      26.365   2.512  52.746  1.00  0.00    -0.371 N 
HETATM   17  N5  UNL     1      21.704   0.973  52.463  1.00  0.00     0.163 N 
HETATM   18  C13 UNL     1      20.852   0.663  53.585  1.00  0.00     0.318 C 
HETATM   19  C14 UNL     1      21.282   1.137  51.160  1.00  0.00     0.351 A 
HETATM   20  O1  UNL     1      22.241   1.079  51.762  1.00  0.00     0.000 OA
HETATM   21  H14 UNL     1      27.056   3.267  52.562  1.00  0.00     0.161 HD
ENDROOT
TORSDOF 0
ENDMDL
MODEL 8
REMARK VINA RESULT:      -7.2      2.152      4.397
REMARK  0 active torsions:
REMARK  status: ('A' for Active; 'I' for Inactive)
ROOT
HETATM    1  C1  UNL     1      24.715   5.284  50.462  1.00  0.00     0.146 C 
HETATM    2  N1  UNL     1      24.777   3.841  50.621  1.00  0.00    -0.376 N 
HETATM    3  C2  UNL     1      25.772   2.859  50.146  1.00  0.00     0.124 C 
HETATM    4  C3  UNL     1      26.792   2.326  51.204  1.00  0.00     0.058 C 
HETATM    5  C4  UNL     1      26.137   1.364  52.094  1.00  0.00    -0.056 A 
HETATM    6  C5  UNL     1      26.226   0.166  52.822  1.00  0.00     0.009 A 
HETATM    7  C6  UNL     1      25.164  -0.470  53.467  1.00  0.00     0.030 A 
HETATM    8  C7  UNL     1      23.858  -0.047  53.507  1.00  0.00     0.040 A 
HETATM    9  C8  UNL     1      23.562   1.099  52.868  1.00  0.00     0.035 A 
HETATM   10  C9  UNL     1      24.797   1.489  52.337  1.00  0.00     0.021 A 
HETATM   11  C10 UNL     1      22.530   2.059  52.406  1.00  0.00     0.346 A 
HETATM   12  N2  UNL     1      21.319   1.893  52.032  1.00  0.00    -0.232 NA
HETATM   13  C11 UNL     1      20.771   0.510  52.032  1.00  0.00     0.226 C 
HETATM   14  N3  UNL     1      20.928  -0.517  52.854  1.00  0.00    -0.264 NA
HETATM   15  C12 UNL     1      21.504  -1.063  54.009  1.00  0.00     0.272 C 
HETATM   16  N4  UNL     1      22.979  -0.962  54.153  1.00  0.00    -0.371 N 
HETATM   17  N5  UNL     1      22.371   3.439  52.048  1.00  0.00     0.163 N 
HETATM   18  C13 UNL     1      21.302   4.366  52.332  1.00  0.00     0.318 C 
HETATM   19  C14 UNL     1      23.520   3.736  51.346  1.00  0.00     0.351 A 
HETATM   20  O1  UNL     1      22.986   2.846  51.802  1.00  0.00     0.000 OA
HETATM   21  H14 UNL     1      23.566  -1.579  54.750  1.00  0.00     0.161 HD
ENDROOT
TORSDOF 0
ENDMDL
MODEL 9
REMARK VINA RESULT:      -7.1      2.680      5.510
REMARK  0 active torsions:
REMARK  status: ('A' for Active; 'I' for Inactive)
ROOT
HETATM    1  C1  UNL     1      26.469   2.164  51.241  1.00  0.00     0.146 C 
HETATM    2  N1  UNL     1      25.046   2.443  51.132  1.00  0.00    -0.376 N 
HETATM    3  C2  UNL     1      24.324   3.517  50.421  1.00  0.00     0.124 C 
HETATM    4  C3  UNL     1      23.648   3.129  49.066  1.00  0.00     0.058 C 
HETATM    5  C4  UNL     1      22.430   2.354  49.316  1.00  0.00    -0.056 A 
HETATM    6  C5  UNL     1      21.102   2.076  48.952  1.00  0.00     0.009 A 
HETATM    7  C6  UNL     1      20.218   1.269  49.669  1.00  0.00     0.030 A 
HETATM    8  C7  UNL     1      20.481   0.609  50.846  1.00  0.00     0.040 A 
HETATM    9  C8  UNL     1      21.716   0.742  51.363  1.00  0.00     0.035 A 
HETATM   10  C9  UNL     1      22.352   1.585  50.443  1.00  0.00     0.021 A 
HETATM   11  C10 UNL     1      22.650   0.484  52.485  1.00  0.00     0.346 A 
HETATM   12  N2  UNL     1      22.462   0.387  53.746  1.00  0.00    -0.232 NA
HETATM   13  C11 UNL     1      21.075   0.551  54.260  1.00  0.00     0.226 C 
HETATM   14  N3  UNL     1      19.895   0.170  53.794  1.00  0.00    -0.264 NA
HETATM   15  C12 UNL     1      19.136  -0.472  52.807  1.00  0.00     0.272 C 
HETATM   16  N4  UNL     1      19.348  -0.051  51.397  1.00  0.00    -0.371 N 
HETATM   17  N5  UNL     1      24.052   0.360  52.763  1.00  0.00     0.163 N 
HETATM   18  C13 UNL     1      24.763  -0.559  53.618  1.00  0.00     0.318 C 
HETATM   19  C14 UNL     1      24.633   1.344  51.991  1.00  0.00     0.351 A 
HETATM   20  O1  UNL     1      23.607   0.978  52.304  1.00  0.00     0.000 OA
HETATM   21  H14 UNL     1      18.662  -0.179  50.625  1.00  0.00     0.161 HD
ENDROOT
TORSDOF 0
ENDMDL
