MODEL 1
REMARK VINA RESULT:      -8.1      0.000      0.000
REMARK  7 active torsions:
REMARK  status: ('A' for Active; 'I' for Inactive)
REMARK    1  A    between atoms: C2_3  and  C3_4 
REMARK    2  A    between atoms: C3_4  and  C4_5 
REMARK    3  A    between atoms: C5_6  and  N2_7 
REMARK    4  A    between atoms: N2_7  and  C6_8 
REMARK    5  A    between atoms: C9_11  and  O1_12 
REMARK    6  A    between atoms: O1_12  and  C10_13 
REMARK    7  A    between atoms: C10_13  and  C11_14 
ROOT
HETATM    1  C6  UNL     1      26.531   2.328  52.364  1.00  0.00     0.035 A 
HETATM    2  C7  UNL     1      25.670   1.782  53.284  1.00  0.00     0.032 A 
HETATM    3  C8  UNL     1      24.332   1.637  53.003  1.00  0.00     0.041 A 
HETATM    4  C9  UNL     1      23.769   2.023  51.806  1.00  0.00     0.091 A 
HETATM    5  C17 UNL     1      24.644   2.582  50.860  1.00  0.00     0.069 A 
HETATM    6 CL1  UNL     1      24.293   3.182  49.248  1.00  0.00    -0.081 Cl
HETATM    7  C18 UNL     1      26.014   2.737  51.128  1.00  0.00     0.056 A 
ENDROOT
BRANCH   1   8
HETATM    8  N2  UNL     1      27.906   2.454  52.703  1.00  0.00    -0.341 N 
HETATM    9  H7  UNL     1      28.315   3.091  51.962  1.00  0.00     0.167 HD
BRANCH   8  10
HETATM   10  C5  UNL     1      28.536   1.832  53.813  1.00  0.00     0.129 A 
HETATM   11  C4  UNL     1      29.313   0.698  53.900  1.00  0.00     0.060 A 
HETATM   12  N3  UNL     1      29.018   1.467  55.050  1.00  0.00    -0.341 N 
HETATM   13  H17 UNL     1      29.055   1.701  56.063  1.00  0.00     0.167 HD
BRANCH  11  14
HETATM   14  C3  UNL     1      30.060  -0.535  53.491  1.00  0.00     0.107 C 
BRANCH  14  15
HETATM   15  C2  UNL     1      29.082  -1.675  53.348  1.00  0.00     0.088 C 
HETATM   16  N1  UNL     1      28.000  -2.283  53.093  1.00  0.00    -0.310 NA
HETATM   17  C1  UNL     1      26.805  -1.661  52.622  1.00  0.00     0.176 C 
ENDBRANCH  14  15
ENDBRANCH  11  14
ENDBRANCH   8  10
ENDBRANCH   1   8
BRANCH   4  18
HETATM   18  O1  UNL     1      22.556   2.025  51.226  1.00  0.00    -0.345 OA
BRANCH  18  19
HETATM   19  C10 UNL     1      21.825   1.008  50.636  1.00  0.00     0.214 C 
BRANCH  19  20
HETATM   20  C11 UNL     1      20.762   0.414  51.473  1.00  0.00    -0.031 A 
HETATM   21  C12 UNL     1      19.413   0.329  51.285  1.00  0.00     0.009 A 
HETATM   22  C13 UNL     1      18.539  -0.276  52.156  1.00  0.00     0.004 A 
HETATM   23  C14 UNL     1      18.988  -0.850  53.308  1.00  0.00     0.042 A 
HETATM   24  C15 UNL     1      20.346  -0.809  53.578  1.00  0.00     0.117 A 
HETATM   25  F1  UNL     1      20.781  -1.381  54.723  1.00  0.00    -0.206 F 
HETATM   26  C16 UNL     1      21.177  -0.186  52.662  1.00  0.00     0.051 A 
ENDBRANCH  19  20
ENDBRANCH  18  19
ENDBRANCH   4  18
TORSDOF 7
ENDMDL
MODEL 2
REMARK VINA RESULT:      -7.8      2.501      3.677
REMARK  7 active torsions:
REMARK  status: ('A' for Active; 'I' for Inactive)
REMARK    1  A    between atoms: C2_3  and  C3_4 
REMARK    2  A    between atoms: C3_4  and  C4_5 
REMARK    3  A    between atoms: C5_6  and  N2_7 
REMARK    4  A    between atoms: N2_7  and  C6_8 
REMARK    5  A    between atoms: C9_11  and  O1_12 
REMARK    6  A    between atoms: O1_12  and  C10_13 
REMARK    7  A    between atoms: C10_13  and  C11_14 
ROOT
HETATM    1  C6  UNL     1      24.885   0.283  52.453  1.00  0.00     0.035 A 
HETATM    2  C7  UNL     1      24.268   1.338  51.827  1.00  0.00     0.032 A 
HETATM    3  C8  UNL     1      22.924   1.572  51.992  1.00  0.00     0.041 A 
HETATM    4  C9  UNL     1      22.113   0.782  52.778  1.00  0.00     0.091 A 
HETATM    5  C17 UNL     1      22.738  -0.300  53.421  1.00  0.00     0.069 A 
HETATM    6 CL1  UNL     1      22.036  -1.507  54.485  1.00  0.00    -0.081 Cl
HETATM    7  C18 UNL     1      24.110  -0.554  53.266  1.00  0.00     0.056 A 
ENDROOT
BRANCH   1   8
HETATM    8  N2  UNL     1      26.278   0.085  52.251  1.00  0.00    -0.341 N 
HETATM    9  H7  UNL     1      26.614   0.963  51.763  1.00  0.00     0.167 HD
BRANCH   8  10
HETATM   10  C5  UNL     1      27.005  -1.070  52.643  1.00  0.00     0.129 A 
HETATM   11  C4  UNL     1      28.257  -1.211  53.200  1.00  0.00     0.060 A 
HETATM   12  N3  UNL     1      27.454  -2.342  52.922  1.00  0.00    -0.341 N 
HETATM   13  H17 UNL     1      27.234  -3.358  52.891  1.00  0.00     0.167 HD
BRANCH  11  14
HETATM   14  C3  UNL     1      29.599  -0.853  53.763  1.00  0.00     0.107 C 
BRANCH  14  15
HETATM   15  C2  UNL     1      29.523   0.526  54.371  1.00  0.00     0.088 C 
HETATM   16  N1  UNL     1      29.233   1.753  54.490  1.00  0.00    -0.310 NA
HETATM   17  C1  UNL     1      28.504   2.518  53.531  1.00  0.00     0.176 C 
ENDBRANCH  14  15
ENDBRANCH  11  14
ENDBRANCH   8  10
ENDBRANCH   1   8
BRANCH   4  18
HETATM   18  O1  UNL     1      20.821   0.728  53.145  1.00  0.00    -0.345 OA
BRANCH  18  19
HETATM   19  C10 UNL     1      19.658   0.770  52.397  1.00  0.00     0.214 C 
BRANCH  19  20
HETATM   20  C11 UNL     1      18.713  -0.345  52.615  1.00  0.00    -0.031 A 
HETATM   21  C12 UNL     1      18.768  -1.416  53.457  1.00  0.00     0.009 A 
HETATM   22  C13 UNL     1      17.792  -2.379  53.563  1.00  0.00     0.004 A 
HETATM   23  C14 UNL     1      16.665  -2.316  52.798  1.00  0.00     0.042 A 
HETATM   24  C15 UNL     1      16.528  -1.259  51.913  1.00  0.00     0.117 A 
HETATM   25  F1  UNL     1      15.408  -1.207  51.158  1.00  0.00    -0.206 F 
HETATM   26  C16 UNL     1      17.545  -0.320  51.852  1.00  0.00     0.051 A 
ENDBRANCH  19  20
ENDBRANCH  18  19
ENDBRANCH   4  18
TORSDOF 7
ENDMDL
MODEL 3
REMARK VINA RESULT:      -7.7      4.476      7.013
REMARK  7 active torsions:
REMARK  status: ('A' for Active; 'I' for Inactive)
REMARK    1  A    between atoms: C2_3  and  C3_4 
REMARK    2  A    between atoms: C3_4  and  C4_5 
REMARK    3  A    between atoms: C5_6  and  N2_7 
REMARK    4  A    between atoms: N2_7  and  C6_8 
REMARK    5  A    between atoms: C9_11  and  O1_12 
REMARK    6  A    between atoms: O1_12  and  C10_13 
REMARK    7  A    between atoms: C10_13  and  C11_14 
ROOT
HETATM    1  C6  UNL     1      25.596   4.360  49.818  1.00  0.00     0.035 A 
HETATM    2  C7  UNL     1      26.575   3.405  49.938  1.00  0.00     0.032 A 
HETATM    3  C8  UNL     1      26.436   2.354  50.812  1.00  0.00     0.041 A 
HETATM    4  C9  UNL     1      25.331   2.186  51.618  1.00  0.00     0.091 A 
HETATM    5  C17 UNL     1      24.325   3.160  51.501  1.00  0.00     0.069 A 
HETATM    6 CL1  UNL     1      22.795   3.276  52.355  1.00  0.00    -0.081 Cl
HETATM    7  C18 UNL     1      24.447   4.240  50.613  1.00  0.00     0.056 A 
ENDROOT
BRANCH   1   8
HETATM    8  N2  UNL     1      25.787   5.427  48.898  1.00  0.00    -0.341 N 
HETATM    9  H7  UNL     1      25.134   5.215  48.092  1.00  0.00     0.167 HD
BRANCH   8  10
HETATM   10  C5  UNL     1      26.680   6.516  49.082  1.00  0.00     0.129 A 
HETATM   11  C4  UNL     1      27.871   6.829  48.467  1.00  0.00     0.060 A 
HETATM   12  N3  UNL     1      27.335   7.661  49.477  1.00  0.00    -0.341 N 
HETATM   13  H17 UNL     1      27.320   8.486  50.110  1.00  0.00     0.167 HD
BRANCH  11  14
HETATM   14  C3  UNL     1      29.054   6.733  47.552  1.00  0.00     0.107 C 
BRANCH  14  15
HETATM   15  C2  UNL     1      29.945   5.608  48.018  1.00  0.00     0.088 C 
HETATM   16  N1  UNL     1      31.007   4.970  48.280  1.00  0.00    -0.310 NA
HETATM   17  C1  UNL     1      32.330   5.460  48.067  1.00  0.00     0.176 C 
ENDBRANCH  14  15
ENDBRANCH  11  14
ENDBRANCH   8  10
ENDBRANCH   1   8
BRANCH   4  18
HETATM   18  O1  UNL     1      24.889   1.314  52.541  1.00  0.00    -0.345 OA
BRANCH  18  19
HETATM   19  C10 UNL     1      25.325   0.046  52.881  1.00  0.00     0.214 C 
BRANCH  19  20
HETATM   20  C11 UNL     1      26.720  -0.047  53.360  1.00  0.00    -0.031 A 
HETATM   21  C12 UNL     1      27.452   0.782  54.159  1.00  0.00     0.009 A 
HETATM   22  C13 UNL     1      28.753   0.555  54.537  1.00  0.00     0.004 A 
HETATM   23  C14 UNL     1      29.418  -0.559  54.116  1.00  0.00     0.042 A 
HETATM   24  C15 UNL     1      28.749  -1.455  53.299  1.00  0.00     0.117 A 
HETATM   25  F1  UNL     1      29.416  -2.555  52.885  1.00  0.00    -0.206 F 
HETATM   26  C16 UNL     1      27.437  -1.172  52.952  1.00  0.00     0.051 A 
ENDBRANCH  19  20
ENDBRANCH  18  19
ENDBRANCH   4  18
TORSDOF 7
ENDMDL
MODEL 4
REMARK VINA RESULT:      -7.7      4.492      8.874
REMARK  7 active torsions:
REMARK  status: ('A' for Active; 'I' for Inactive)
REMARK    1  A    between atoms: C2_3  and  C3_4 
REMARK    2  A    between atoms: C3_4  and  C4_5 
REMARK    3  A    between atoms: C5_6  and  N2_7 
REMARK    4  A    between atoms: N2_7  and  C6_8 
REMARK    5  A    between atoms: C9_11  and  O1_12 
REMARK    6  A    between atoms: O1_12  and  C10_13 
REMARK    7  A    between atoms: C10_13  and  C11_14 
ROOT
HETATM    1  C6  UNL     1      20.835  -0.195  52.969  1.00  0.00     0.035 A 
HETATM    2  C7  UNL     1      21.264  -1.033  53.968  1.00  0.00     0.032 A 
HETATM    3  C8  UNL     1      22.598  -1.134  54.285  1.00  0.00     0.041 A 
HETATM    4  C9  UNL     1      23.581  -0.419  53.636  1.00  0.00     0.091 A 
HETATM    5  C17 UNL     1      23.149   0.441  52.612  1.00  0.00     0.069 A 
HETATM    6 CL1  UNL     1      24.101   1.494  51.579  1.00  0.00    -0.081 Cl
HETATM    7  C18 UNL     1      21.792   0.559  52.275  1.00  0.00     0.056 A 
ENDROOT
BRANCH   1   8
HETATM    8  N2  UNL     1      19.445  -0.126  52.681  1.00  0.00    -0.341 N 
HETATM    9  H7  UNL     1      19.342   0.686  52.010  1.00  0.00     0.167 HD
BRANCH   8  10
HETATM   10  C5  UNL     1      18.455  -0.993  53.215  1.00  0.00     0.129 A 
HETATM   11  C4  UNL     1      17.149  -1.222  52.843  1.00  0.00     0.060 A 
HETATM   12  N3  UNL     1      17.724  -1.912  53.935  1.00  0.00    -0.341 N 
HETATM   13  H17 UNL     1      17.729  -2.585  54.728  1.00  0.00     0.167 HD
BRANCH  11  14
HETATM   14  C3  UNL     1      15.859  -1.117  52.088  1.00  0.00     0.107 C 
BRANCH  14  15
HETATM   15  C2  UNL     1      15.948   0.039  51.122  1.00  0.00     0.088 C 
HETATM   16  N1  UNL     1      16.236   1.189  50.675  1.00  0.00    -0.310 NA
HETATM   17  C1  UNL     1      16.927   2.202  51.405  1.00  0.00     0.176 C 
ENDBRANCH  14  15
ENDBRANCH  11  14
ENDBRANCH   8  10
ENDBRANCH   1   8
BRANCH   4  18
HETATM   18  O1  UNL     1      24.918  -0.281  53.689  1.00  0.00    -0.345 OA
BRANCH  18  19
HETATM   19  C10 UNL     1      25.938  -1.077  53.198  1.00  0.00     0.214 C 
BRANCH  19  20
HETATM   20  C11 UNL     1      27.305  -0.541  53.361  1.00  0.00    -0.031 A 
HETATM   21  C12 UNL     1      28.519  -1.164  53.362  1.00  0.00     0.009 A 
HETATM   22  C13 UNL     1      29.726  -0.524  53.511  1.00  0.00     0.004 A 
HETATM   23  C14 UNL     1      29.782   0.829  53.675  1.00  0.00     0.042 A 
HETATM   24  C15 UNL     1      28.594   1.541  53.686  1.00  0.00     0.117 A 
HETATM   25  F1  UNL     1      28.660   2.881  53.850  1.00  0.00    -0.206 F 
HETATM   26  C16 UNL     1      27.409   0.840  53.531  1.00  0.00     0.051 A 
ENDBRANCH  19  20
ENDBRANCH  18  19
ENDBRANCH   4  18
TORSDOF 7
ENDMDL
MODEL 5
REMARK VINA RESULT:      -7.7      4.152      6.780
REMARK  7 active torsions:
REMARK  status: ('A' for Active; 'I' for Inactive)
REMARK    1  A    between atoms: C2_3  and  C3_4 
REMARK    2  A    between atoms: C3_4  and  C4_5 
REMARK    3  A    between atoms: C5_6  and  N2_7 
REMARK    4  A    between atoms: N2_7  and  C6_8 
REMARK    5  A    between atoms: C9_11  and  O1_12 
REMARK    6  A    between atoms: O1_12  and  C10_13 
REMARK    7  A    between atoms: C10_13  and  C11_14 
ROOT
HETATM    1  C6  UNL     1      25.771   1.036  52.555  1.00  0.00     0.035 A 
HETATM    2  C7  UNL     1      26.667   1.344  51.561  1.00  0.00     0.032 A 
HETATM    3  C8  UNL     1      26.532   2.491  50.816  1.00  0.00     0.041 A 
HETATM    4  C9  UNL     1      25.510   3.395  51.005  1.00  0.00     0.091 A 
HETATM    5  C17 UNL     1      24.589   3.086  52.020  1.00  0.00     0.069 A 
HETATM    6 CL1  UNL     1      23.176   3.988  52.542  1.00  0.00    -0.081 Cl
HETATM    7  C18 UNL     1      24.710   1.920  52.793  1.00  0.00     0.056 A 
ENDROOT
BRANCH   1   8
HETATM    8  N2  UNL     1      25.955  -0.162  53.297  1.00  0.00    -0.341 N 
HETATM    9  H7  UNL     1      25.619   0.065  54.275  1.00  0.00     0.167 HD
BRANCH   8  10
HETATM   10  C5  UNL     1      26.484  -1.374  52.778  1.00  0.00     0.129 A 
HETATM   11  C4  UNL     1      27.729  -1.949  52.899  1.00  0.00     0.060 A 
HETATM   12  N3  UNL     1      26.708  -2.579  52.150  1.00  0.00    -0.341 N 
HETATM   13  H17 UNL     1      26.300  -3.330  51.556  1.00  0.00     0.167 HD
BRANCH  11  14
HETATM   14  C3  UNL     1      29.157  -2.148  53.309  1.00  0.00     0.107 C 
BRANCH  14  15
HETATM   15  C2  UNL     1      29.835  -0.803  53.394  1.00  0.00     0.088 C 
HETATM   16  N1  UNL     1      30.014   0.416  53.687  1.00  0.00    -0.310 NA
HETATM   17  C1  UNL     1      29.084   1.232  54.398  1.00  0.00     0.176 C 
ENDBRANCH  14  15
ENDBRANCH  11  14
ENDBRANCH   8  10
ENDBRANCH   1   8
BRANCH   4  18
HETATM   18  O1  UNL     1      25.098   4.564  50.482  1.00  0.00    -0.345 OA
BRANCH  18  19
HETATM   19  C10 UNL     1      25.190   5.072  49.198  1.00  0.00     0.214 C 
BRANCH  19  20
HETATM   20  C11 UNL     1      26.418   5.836  48.897  1.00  0.00    -0.031 A 
HETATM   21  C12 UNL     1      26.673   7.175  48.933  1.00  0.00     0.009 A 
HETATM   22  C13 UNL     1      27.887   7.748  48.636  1.00  0.00     0.004 A 
HETATM   23  C14 UNL     1      28.951   6.977  48.272  1.00  0.00     0.042 A 
HETATM   24  C15 UNL     1      28.779   5.604  48.209  1.00  0.00     0.117 A 
HETATM   25  F1  UNL     1      29.839   4.849  47.846  1.00  0.00    -0.206 F 
HETATM   26  C16 UNL     1      27.532   5.086  48.520  1.00  0.00     0.051 A 
ENDBRANCH  19  20
ENDBRANCH  18  19
ENDBRANCH   4  18
TORSDOF 7
ENDMDL
MODEL 6
REMARK VINA RESULT:      -7.7      2.144      2.815
REMARK  7 active torsions:
REMARK  status: ('A' for Active; 'I' for Inactive)
REMARK    1  A    between atoms: C2_3  and  C3_4 
REMARK    2  A    between atoms: C3_4  and  C4_5 
REMARK    3  A    between atoms: C5_6  and  N2_7 
REMARK    4  A    between atoms: N2_7  and  C6_8 
REMARK    5  A    between atoms: C9_11  and  O1_12 
REMARK    6  A    between atoms: O1_12  and  C10_13 
REMARK    7  A    between atoms: C10_13  and  C11_14 
ROOT
HETATM    1  C6  UNL     1      24.643   0.842  52.381  1.00  0.00     0.035 A 
HETATM    2  C7  UNL     1      23.963   1.712  51.565  1.00  0.00     0.032 A 
HETATM    3  C8  UNL     1      22.595   1.824  51.632  1.00  0.00     0.041 A 
HETATM    4  C9  UNL     1      21.821   1.086  52.501  1.00  0.00     0.091 A 
HETATM    5  C17 UNL     1      22.510   0.193  53.339  1.00  0.00     0.069 A 
HETATM    6 CL1  UNL     1      21.869  -0.898  54.556  1.00  0.00    -0.081 Cl
HETATM    7  C18 UNL     1      23.907   0.065  53.287  1.00  0.00     0.056 A 
ENDROOT
BRANCH   1   8
HETATM    8  N2  UNL     1      26.058   0.764  52.274  1.00  0.00    -0.341 N 
HETATM    9  H7  UNL     1      26.238   0.062  51.503  1.00  0.00     0.167 HD
BRANCH   8  10
HETATM   10  C5  UNL     1      26.980   1.499  53.066  1.00  0.00     0.129 A 
HETATM   11  C4  UNL     1      28.262   1.209  53.475  1.00  0.00     0.060 A 
HETATM   12  N3  UNL     1      27.641   2.425  53.842  1.00  0.00    -0.341 N 
HETATM   13  H17 UNL     1      27.588   3.354  54.307  1.00  0.00     0.167 HD
BRANCH  11  14
HETATM   14  C3  UNL     1      29.552   0.466  53.653  1.00  0.00     0.107 C 
BRANCH  14  15
HETATM   15  C2  UNL     1      29.263  -1.014  53.699  1.00  0.00     0.088 C 
HETATM   16  N1  UNL     1      28.680  -2.114  53.469  1.00  0.00    -0.310 NA
HETATM   17  C1  UNL     1      27.515  -2.269  52.661  1.00  0.00     0.176 C 
ENDBRANCH  14  15
ENDBRANCH  11  14
ENDBRANCH   8  10
ENDBRANCH   1   8
BRANCH   4  18
HETATM   18  O1  UNL     1      20.521   0.952  52.816  1.00  0.00    -0.345 OA
BRANCH  18  19
HETATM   19  C10 UNL     1      19.376   1.117  52.057  1.00  0.00     0.214 C 
BRANCH  19  20
HETATM   20  C11 UNL     1      18.350   0.065  52.205  1.00  0.00    -0.031 A 
HETATM   21  C12 UNL     1      17.159  -0.124  51.568  1.00  0.00     0.009 A 
HETATM   22  C13 UNL     1      16.303  -1.173  51.805  1.00  0.00     0.004 A 
HETATM   23  C14 UNL     1      16.608  -2.127  52.730  1.00  0.00     0.042 A 
HETATM   24  C15 UNL     1      17.801  -2.012  53.426  1.00  0.00     0.117 A 
HETATM   25  F1  UNL     1      18.094  -2.961  54.342  1.00  0.00    -0.206 F 
HETATM   26  C16 UNL     1      18.622  -0.932  53.143  1.00  0.00     0.051 A 
ENDBRANCH  19  20
ENDBRANCH  18  19
ENDBRANCH   4  18
TORSDOF 7
ENDMDL
MODEL 7
REMARK VINA RESULT:      -7.6      4.466      7.738
REMARK  7 active torsions:
REMARK  status: ('A' for Active; 'I' for Inactive)
REMARK    1  A    between atoms: C2_3  and  C3_4 
REMARK    2  A    between atoms: C3_4  and  C4_5 
REMARK    3  A    between atoms: C5_6  and  N2_7 
REMARK    4  A    between atoms: N2_7  and  C6_8 
REMARK    5  A    between atoms: C9_11  and  O1_12 
REMARK    6  A    between atoms: O1_12  and  C10_13 
REMARK    7  A    between atoms: C10_13  and  C11_14 
ROOT
HETATM    1  C6  UNL     1      24.376   0.107  53.468  1.00  0.00     0.035 A 
HETATM    2  C7  UNL     1      25.528  -0.347  52.874  1.00  0.00     0.032 A 
HETATM    3  C8  UNL     1      26.269   0.467  52.050  1.00  0.00     0.041 A 
HETATM    4  C9  UNL     1      25.917   1.767  51.762  1.00  0.00     0.091 A 
HETATM    5  C17 UNL     1      24.739   2.239  52.366  1.00  0.00     0.069 A 
HETATM    6 CL1  UNL     1      23.985   3.819  52.234  1.00  0.00    -0.081 Cl
HETATM    7  C18 UNL     1      23.969   1.424  53.212  1.00  0.00     0.056 A 
ENDROOT
BRANCH   1   8
HETATM    8  N2  UNL     1      23.647  -0.772  54.313  1.00  0.00    -0.341 N 
HETATM    9  H7  UNL     1      24.372  -1.206  54.951  1.00  0.00     0.167 HD
BRANCH   8  10
HETATM   10  C5  UNL     1      22.243  -0.981  54.260  1.00  0.00     0.129 A 
HETATM   11  C4  UNL     1      21.280  -0.481  53.414  1.00  0.00     0.060 A 
HETATM   12  N3  UNL     1      20.937  -1.372  54.457  1.00  0.00    -0.341 N 
HETATM   13  H17 UNL     1      20.287  -1.945  55.032  1.00  0.00     0.167 HD
BRANCH  11  14
HETATM   14  C3  UNL     1      20.648   0.295  52.298  1.00  0.00     0.107 C 
BRANCH  14  15
HETATM   15  C2  UNL     1      20.377   1.702  52.770  1.00  0.00     0.088 C 
HETATM   16  N1  UNL     1      20.208   2.956  52.719  1.00  0.00    -0.310 NA
HETATM   17  C1  UNL     1      20.280   3.743  51.532  1.00  0.00     0.176 C 
ENDBRANCH  14  15
ENDBRANCH  11  14
ENDBRANCH   8  10
ENDBRANCH   1   8
BRANCH   4  18
HETATM   18  O1  UNL     1      26.389   2.795  51.034  1.00  0.00    -0.345 OA
BRANCH  18  19
HETATM   19  C10 UNL     1      26.491   2.972  49.666  1.00  0.00     0.214 C 
BRANCH  19  20
HETATM   20  C11 UNL     1      26.550   4.374  49.203  1.00  0.00    -0.031 A 
HETATM   21  C12 UNL     1      25.610   5.363  49.213  1.00  0.00     0.009 A 
HETATM   22  C13 UNL     1      25.817   6.642  48.756  1.00  0.00     0.004 A 
HETATM   23  C14 UNL     1      27.024   7.013  48.241  1.00  0.00     0.042 A 
HETATM   24  C15 UNL     1      28.036   6.068  48.192  1.00  0.00     0.117 A 
HETATM   25  F1  UNL     1      29.229   6.444  47.679  1.00  0.00    -0.206 F 
HETATM   26  C16 UNL     1      27.768   4.795  48.669  1.00  0.00     0.051 A 
ENDBRANCH  19  20
ENDBRANCH  18  19
ENDBRANCH   4  18
TORSDOF 7
ENDMDL
MODEL 8
REMARK VINA RESULT:      -7.6      2.061      2.800
REMARK  7 active torsions:
REMARK  status: ('A' for Active; 'I' for Inactive)
REMARK    1  A    between atoms: C2_3  and  C3_4 
REMARK    2  A    between atoms: C3_4  and  C4_5 
REMARK    3  A    between atoms: C5_6  and  N2_7 
REMARK    4  A    between atoms: N2_7  and  C6_8 
REMARK    5  A    between atoms: C9_11  and  O1_12 
REMARK    6  A    between atoms: O1_12  and  C10_13 
REMARK    7  A    between atoms: C10_13  and  C11_14 
ROOT
HETATM    1  C6  UNL     1      24.493   0.415  53.468  1.00  0.00     0.035 A 
HETATM    2  C7  UNL     1      23.554  -0.517  53.834  1.00  0.00     0.032 A 
HETATM    3  C8  UNL     1      22.374  -0.644  53.141  1.00  0.00     0.041 A 
HETATM    4  C9  UNL     1      22.052   0.139  52.054  1.00  0.00     0.091 A 
HETATM    5  C17 UNL     1      23.009   1.095  51.674  1.00  0.00     0.069 A 
HETATM    6 CL1  UNL     1      22.948   2.255  50.358  1.00  0.00    -0.081 Cl
HETATM    7  C18 UNL     1      24.220   1.239  52.368  1.00  0.00     0.056 A 
ENDROOT
BRANCH   1   8
HETATM    8  N2  UNL     1      25.698   0.506  54.217  1.00  0.00    -0.341 N 
HETATM    9  H7  UNL     1      25.599  -0.214  54.987  1.00  0.00     0.167 HD
BRANCH   8  10
HETATM   10  C5  UNL     1      26.769   1.397  53.939  1.00  0.00     0.129 A 
HETATM   11  C4  UNL     1      28.121   1.178  53.801  1.00  0.00     0.060 A 
HETATM   12  N3  UNL     1      27.578   2.477  53.665  1.00  0.00    -0.341 N 
HETATM   13  H17 UNL     1      27.617   3.503  53.498  1.00  0.00     0.167 HD
BRANCH  11  14
HETATM   14  C3  UNL     1      29.436   0.461  53.746  1.00  0.00     0.107 C 
BRANCH  14  15
HETATM   15  C2  UNL     1      29.182  -1.012  53.541  1.00  0.00     0.088 C 
HETATM   16  N1  UNL     1      28.573  -2.076  53.223  1.00  0.00    -0.310 NA
HETATM   17  C1  UNL     1      27.249  -2.132  52.692  1.00  0.00     0.176 C 
ENDBRANCH  14  15
ENDBRANCH  11  14
ENDBRANCH   8  10
ENDBRANCH   1   8
BRANCH   4  18
HETATM   18  O1  UNL     1      21.035   0.274  51.184  1.00  0.00    -0.345 OA
BRANCH  18  19
HETATM   19  C10 UNL     1      19.788   0.855  51.323  1.00  0.00     0.214 C 
BRANCH  19  20
HETATM   20  C11 UNL     1      18.721  -0.029  51.835  1.00  0.00    -0.031 A 
HETATM   21  C12 UNL     1      18.650  -0.790  52.965  1.00  0.00     0.009 A 
HETATM   22  C13 UNL     1      17.571  -1.561  53.322  1.00  0.00     0.004 A 
HETATM   23  C14 UNL     1      16.460  -1.614  52.533  1.00  0.00     0.042 A 
HETATM   24  C15 UNL     1      16.446  -0.871  51.364  1.00  0.00     0.117 A 
HETATM   25  F1  UNL     1      15.342  -0.931  50.588  1.00  0.00    -0.206 F 
HETATM   26  C16 UNL     1      17.565  -0.112  51.058  1.00  0.00     0.051 A 
ENDBRANCH  19  20
ENDBRANCH  18  19
ENDBRANCH   4  18
TORSDOF 7
ENDMDL
MODEL 9
REMARK VINA RESULT:      -7.6      4.341      7.339
REMARK  7 active torsions:
REMARK  status: ('A' for Active; 'I' for Inactive)
REMARK    1  A    between atoms: C2_3  and  C3_4 
REMARK    2  A    between atoms: C3_4  and  C4_5 
REMARK    3  A    between atoms: C5_6  and  N2_7 
REMARK    4  A    between atoms: N2_7  and  C6_8 
REMARK    5  A    between atoms: C9_11  and  O1_12 
REMARK    6  A    between atoms: O1_12  and  C10_13 
REMARK    7  A    between atoms: C10_13  and  C11_14 
ROOT
HETATM    1  C6  UNL     1      25.561   0.405  53.032  1.00  0.00     0.035 A 
HETATM    2  C7  UNL     1      26.532   0.590  52.080  1.00  0.00     0.032 A 
HETATM    3  C8  UNL     1      26.543   1.714  51.288  1.00  0.00     0.041 A 
HETATM    4  C9  UNL     1      25.600   2.713  51.387  1.00  0.00     0.091 A 
HETATM    5  C17 UNL     1      24.603   2.530  52.360  1.00  0.00     0.069 A 
HETATM    6 CL1  UNL     1      23.253   3.576  52.769  1.00  0.00    -0.081 Cl
HETATM    7  C18 UNL     1      24.576   1.390  53.179  1.00  0.00     0.056 A 
ENDROOT
BRANCH   1   8
HETATM    8  N2  UNL     1      25.595  -0.773  53.827  1.00  0.00    -0.341 N 
HETATM    9  H7  UNL     1      26.351  -1.376  53.395  1.00  0.00     0.167 HD
BRANCH   8  10
HETATM   10  C5  UNL     1      24.763  -1.028  54.949  1.00  0.00     0.129 A 
HETATM   11  C4  UNL     1      23.418  -1.303  55.041  1.00  0.00     0.060 A 
HETATM   12  N3  UNL     1      24.224  -1.234  56.200  1.00  0.00    -0.341 N 
HETATM   13  H17 UNL     1      24.413  -1.277  57.222  1.00  0.00     0.167 HD
BRANCH  11  14
HETATM   14  C3  UNL     1      21.998  -1.554  54.630  1.00  0.00     0.107 C 
BRANCH  14  15
HETATM   15  C2  UNL     1      21.262  -0.238  54.585  1.00  0.00     0.088 C 
HETATM   16  N1  UNL     1      20.689   0.783  54.100  1.00  0.00    -0.310 NA
HETATM   17  C1  UNL     1      20.536   1.049  52.706  1.00  0.00     0.176 C 
ENDBRANCH  14  15
ENDBRANCH  11  14
ENDBRANCH   8  10
ENDBRANCH   1   8
BRANCH   4  18
HETATM   18  O1  UNL     1      25.325   3.891  50.800  1.00  0.00    -0.345 OA
BRANCH  18  19
HETATM   19  C10 UNL     1      25.269   4.256  49.467  1.00  0.00     0.214 C 
BRANCH  19  20
HETATM   20  C11 UNL     1      26.294   5.223  49.022  1.00  0.00    -0.031 A 
HETATM   21  C12 UNL     1      26.246   6.579  48.879  1.00  0.00     0.009 A 
HETATM   22  C13 UNL     1      27.298   7.359  48.464  1.00  0.00     0.004 A 
HETATM   23  C14 UNL     1      28.503   6.799  48.157  1.00  0.00     0.042 A 
HETATM   24  C15 UNL     1      28.639   5.425  48.274  1.00  0.00     0.117 A 
HETATM   25  F1  UNL     1      29.836   4.879  47.966  1.00  0.00    -0.206 F 
HETATM   26  C16 UNL     1      27.542   4.692  48.698  1.00  0.00     0.051 A 
ENDBRANCH  19  20
ENDBRANCH  18  19
ENDBRANCH   4  18
TORSDOF 7
ENDMDL
