MODEL 1
REMARK VINA RESULT:      -9.0      0.000      0.000
REMARK  6 active torsions:
REMARK  status: ('A' for Active; 'I' for Inactive)
REMARK    1  A    between atoms: N1_2  and  C2_3 
REMARK    2  A    between atoms: C3_4  and  C4_5 
REMARK    3  A    between atoms: C5_6  and  C6_7 
REMARK    4  A    between atoms: N3_10  and  C8_11 
REMARK    5  A    between atoms: C10_13  and  N4_14 
REMARK       I    between atoms: N4_14  and  C11_15 
REMARK    6  A    between atoms: C11_15  and  C12_17 
ROOT
HETATM    1  C8  UNL     1      26.793   6.650  48.990  1.00  0.00     0.031 A 
HETATM    2  C9  UNL     1      25.857   6.041  49.726  1.00  0.00     0.055 A 
HETATM    3  C10 UNL     1      26.101   4.599  49.685  1.00  0.00     0.033 A 
HETATM    4  C22 UNL     1      27.166   4.352  48.938  1.00  0.00     0.009 A 
HETATM    5  C23 UNL     1      27.719   5.641  48.416  1.00  0.00     0.088 A 
ENDROOT
BRANCH   3   6
HETATM    6  N4  UNL     1      25.244   3.681  50.393  1.00  0.00    -0.323 N 
HETATM    7  C11 UNL     1      25.804   2.730  51.291  1.00  0.00     0.256 C 
HETATM    8  O1  UNL     1      27.052   2.713  51.449  1.00  0.00    -0.267 OA
HETATM    9  H10 UNL     1      24.215   3.693  50.265  1.00  0.00     0.169 HD
BRANCH   7  10
HETATM   10  C12 UNL     1      25.020   1.766  52.049  1.00  0.00     0.033 A 
HETATM   11  C13 UNL     1      25.659   0.695  52.596  1.00  0.00     0.018 A 
HETATM   12  C14 UNL     1      25.007  -0.287  53.339  1.00  0.00     0.013 A 
HETATM   13  C15 UNL     1      23.633  -0.165  53.530  1.00  0.00    -0.026 A 
HETATM   14  C16 UNL     1      22.971  -1.138  54.267  1.00  0.00     0.012 A 
HETATM   15  C20 UNL     1      22.997   0.923  52.970  1.00  0.00    -0.025 A 
HETATM   16  C17 UNL     1      21.595  -1.011  54.455  1.00  0.00     0.001 A 
HETATM   17  C18 UNL     1      20.948   0.085  53.894  1.00  0.00     0.001 A 
HETATM   18  C19 UNL     1      21.629   1.042  53.161  1.00  0.00     0.012 A 
HETATM   19  C21 UNL     1      23.659   1.887  52.237  1.00  0.00     0.029 A 
ENDBRANCH   7  10
ENDBRANCH   3   6
BRANCH   1  20
HETATM   20  N3  UNL     1      26.839   8.062  48.822  1.00  0.00    -0.296 N 
HETATM   21  C7  UNL     1      26.803   8.862  50.023  1.00  0.00     0.291 C 
HETATM   22  N2  UNL     1      27.021  10.276  49.728  1.00  0.00    -0.272 NA
HETATM   23  C6  UNL     1      27.536  10.685  48.635  1.00  0.00     0.045 C 
HETATM   24  C24 UNL     1      27.947   9.728  47.585  1.00  0.00     0.169 C 
HETATM   25  N5  UNL     1      26.916   8.679  47.562  1.00  0.00    -0.231 NA
HETATM   26  H21 UNL     1      25.996   9.112  47.294  1.00  0.00     0.147 HD
BRANCH  23  27
HETATM   27  C5  UNL     1      27.726  12.109  48.401  1.00  0.00     0.028 C 
HETATM   28  C4  UNL     1      28.867  12.606  47.953  1.00  0.00     0.003 C 
BRANCH  28  29
HETATM   29  C3  UNL     1      29.104  14.043  47.703  1.00  0.00     0.019 C 
HETATM   30  C2  UNL     1      29.262  14.543  46.485  1.00  0.00     0.110 C 
BRANCH  30  31
HETATM   31  N1  UNL     1      29.486  15.965  46.396  1.00  0.00    -0.300 NA
HETATM   32  C1  UNL     1      30.099  16.322  45.296  1.00  0.00     0.170 C 
ENDBRANCH  30  31
ENDBRANCH  28  29
ENDBRANCH  23  27
ENDBRANCH   1  20
TORSDOF 6
ENDMDL
MODEL 2
REMARK VINA RESULT:      -8.9      4.152     13.298
REMARK  6 active torsions:
REMARK  status: ('A' for Active; 'I' for Inactive)
REMARK    1  A    between atoms: N1_2  and  C2_3 
REMARK    2  A    between atoms: C3_4  and  C4_5 
REMARK    3  A    between atoms: C5_6  and  C6_7 
REMARK    4  A    between atoms: N3_10  and  C8_11 
REMARK    5  A    between atoms: C10_13  and  N4_14 
REMARK       I    between atoms: N4_14  and  C11_15 
REMARK    6  A    between atoms: C11_15  and  C12_17 
ROOT
HETATM    1  C8  UNL     1      23.183   1.122  52.563  1.00  0.00     0.031 A 
HETATM    2  C9  UNL     1      23.290   2.190  51.764  1.00  0.00     0.055 A 
HETATM    3  C10 UNL     1      24.622   2.767  51.939  1.00  0.00     0.033 A 
HETATM    4  C22 UNL     1      25.300   2.055  52.826  1.00  0.00     0.009 A 
HETATM    5  C23 UNL     1      24.447   0.928  53.317  1.00  0.00     0.088 A 
ENDROOT
BRANCH   3   6
HETATM    6  N4  UNL     1      25.027   3.938  51.200  1.00  0.00    -0.323 N 
HETATM    7  C11 UNL     1      25.903   3.812  50.087  1.00  0.00     0.256 C 
HETATM    8  O1  UNL     1      26.310   2.664  49.768  1.00  0.00    -0.267 OA
HETATM    9  H10 UNL     1      24.693   4.884  51.461  1.00  0.00     0.169 HD
BRANCH   7  10
HETATM   10  C12 UNL     1      26.365   4.933  49.282  1.00  0.00     0.033 A 
HETATM   11  C13 UNL     1      25.465   5.890  48.923  1.00  0.00     0.018 A 
HETATM   12  C14 UNL     1      25.799   7.004  48.156  1.00  0.00     0.013 A 
HETATM   13  C15 UNL     1      27.120   7.143  47.735  1.00  0.00    -0.026 A 
HETATM   14  C16 UNL     1      27.466   8.248  46.969  1.00  0.00     0.012 A 
HETATM   15  C20 UNL     1      28.021   6.166  48.104  1.00  0.00    -0.025 A 
HETATM   16  C17 UNL     1      28.789   8.382  46.550  1.00  0.00     0.001 A 
HETATM   17  C18 UNL     1      29.703   7.402  46.920  1.00  0.00     0.001 A 
HETATM   18  C19 UNL     1      29.335   6.307  47.684  1.00  0.00     0.012 A 
HETATM   19  C21 UNL     1      27.673   5.069  48.866  1.00  0.00     0.029 A 
ENDBRANCH   7  10
ENDBRANCH   3   6
BRANCH   1  20
HETATM   20  N3  UNL     1      22.003   0.331  52.632  1.00  0.00    -0.296 N 
HETATM   21  C7  UNL     1      21.734  -0.327  53.889  1.00  0.00     0.291 C 
HETATM   22  N2  UNL     1      20.421  -0.969  53.884  1.00  0.00    -0.272 NA
HETATM   23  C6  UNL     1      19.508  -0.674  53.043  1.00  0.00     0.045 C 
HETATM   24  C24 UNL     1      19.736   0.356  52.007  1.00  0.00     0.169 C 
HETATM   25  N5  UNL     1      21.123   0.176  51.549  1.00  0.00    -0.231 NA
HETATM   26  H21 UNL     1      21.216  -0.778  51.116  1.00  0.00     0.147 HD
BRANCH  23  27
HETATM   27  C5  UNL     1      18.221  -1.350  53.091  1.00  0.00     0.028 C 
HETATM   28  C4  UNL     1      18.089  -2.593  53.524  1.00  0.00     0.003 C 
BRANCH  28  29
HETATM   29  C3  UNL     1      16.802  -3.317  53.589  1.00  0.00     0.019 C 
HETATM   30  C2  UNL     1      16.721  -4.614  53.848  1.00  0.00     0.110 C 
BRANCH  30  31
HETATM   31  N1  UNL     1      15.396  -5.183  53.879  1.00  0.00    -0.300 NA
HETATM   32  C1  UNL     1      14.830  -5.234  52.700  1.00  0.00     0.170 C 
ENDBRANCH  30  31
ENDBRANCH  28  29
ENDBRANCH  23  27
ENDBRANCH   1  20
TORSDOF 6
ENDMDL
MODEL 3
REMARK VINA RESULT:      -8.7      3.564      6.525
REMARK  6 active torsions:
REMARK  status: ('A' for Active; 'I' for Inactive)
REMARK    1  A    between atoms: N1_2  and  C2_3 
REMARK    2  A    between atoms: C3_4  and  C4_5 
REMARK    3  A    between atoms: C5_6  and  C6_7 
REMARK    4  A    between atoms: N3_10  and  C8_11 
REMARK    5  A    between atoms: C10_13  and  N4_14 
REMARK       I    between atoms: N4_14  and  C11_15 
REMARK    6  A    between atoms: C11_15  and  C12_17 
ROOT
HETATM    1  C8  UNL     1      24.558   2.131  51.822  1.00  0.00     0.031 A 
HETATM    2  C9  UNL     1      23.398   1.655  51.355  1.00  0.00     0.055 A 
HETATM    3  C10 UNL     1      22.903   0.645  52.290  1.00  0.00     0.033 A 
HETATM    4  C22 UNL     1      23.753   0.521  53.298  1.00  0.00     0.009 A 
HETATM    5  C23 UNL     1      24.901   1.460  53.101  1.00  0.00     0.088 A 
ENDROOT
BRANCH   3   6
HETATM    6  N4  UNL     1      21.661  -0.046  52.047  1.00  0.00    -0.323 N 
HETATM    7  C11 UNL     1      20.432   0.516  52.493  1.00  0.00     0.256 C 
HETATM    8  O1  UNL     1      20.459   1.619  53.098  1.00  0.00    -0.267 OA
HETATM    9  H10 UNL     1      21.636  -0.955  51.550  1.00  0.00     0.169 HD
BRANCH   7  10
HETATM   10  C12 UNL     1      19.132  -0.107  52.294  1.00  0.00     0.033 A 
HETATM   11  C13 UNL     1      18.651  -0.931  53.265  1.00  0.00     0.018 A 
HETATM   12  C14 UNL     1      17.419  -1.578  53.177  1.00  0.00     0.013 A 
HETATM   13  C15 UNL     1      16.645  -1.370  52.038  1.00  0.00    -0.026 A 
HETATM   14  C16 UNL     1      15.417  -2.010  51.937  1.00  0.00     0.012 A 
HETATM   15  C20 UNL     1      17.145  -0.534  51.061  1.00  0.00    -0.025 A 
HETATM   16  C17 UNL     1      14.646  -1.799  50.794  1.00  0.00     0.001 A 
HETATM   17  C18 UNL     1      15.144  -0.956  49.806  1.00  0.00     0.001 A 
HETATM   18  C19 UNL     1      16.373  -0.329  49.928  1.00  0.00     0.012 A 
HETATM   19  C21 UNL     1      18.367   0.099  51.165  1.00  0.00     0.029 A 
ENDBRANCH   7  10
ENDBRANCH   3   6
BRANCH   1  20
HETATM   20  N3  UNL     1      25.305   3.133  51.142  1.00  0.00    -0.296 N 
HETATM   21  C7  UNL     1      26.499   2.701  50.455  1.00  0.00     0.291 C 
HETATM   22  N2  UNL     1      27.081   3.785  49.666  1.00  0.00    -0.272 NA
HETATM   23  C6  UNL     1      26.430   4.831  49.339  1.00  0.00     0.045 C 
HETATM   24  C24 UNL     1      25.020   5.007  49.749  1.00  0.00     0.169 C 
HETATM   25  N5  UNL     1      24.926   4.486  51.121  1.00  0.00    -0.231 NA
HETATM   26  H21 UNL     1      25.543   5.064  51.747  1.00  0.00     0.147 HD
BRANCH  23  27
HETATM   27  C5  UNL     1      27.068   5.876  48.551  1.00  0.00     0.028 C 
HETATM   28  C4  UNL     1      28.355   5.848  48.248  1.00  0.00     0.003 C 
BRANCH  28  29
HETATM   29  C3  UNL     1      29.042   6.886  47.452  1.00  0.00     0.019 C 
HETATM   30  C2  UNL     1      28.765   8.177  47.564  1.00  0.00     0.110 C 
BRANCH  30  31
HETATM   31  N1  UNL     1      29.518   9.074  46.722  1.00  0.00    -0.300 NA
HETATM   32  C1  UNL     1      29.941  10.140  47.353  1.00  0.00     0.170 C 
ENDBRANCH  30  31
ENDBRANCH  28  29
ENDBRANCH  23  27
ENDBRANCH   1  20
TORSDOF 6
ENDMDL
MODEL 4
REMARK VINA RESULT:      -8.7      3.957      5.078
REMARK  6 active torsions:
REMARK  status: ('A' for Active; 'I' for Inactive)
REMARK    1  A    between atoms: N1_2  and  C2_3 
REMARK    2  A    between atoms: C3_4  and  C4_5 
REMARK    3  A    between atoms: C5_6  and  C6_7 
REMARK    4  A    between atoms: N3_10  and  C8_11 
REMARK    5  A    between atoms: C10_13  and  N4_14 
REMARK       I    between atoms: N4_14  and  C11_15 
REMARK    6  A    between atoms: C11_15  and  C12_17 
ROOT
HETATM    1  C8  UNL     1      25.390   5.303  49.124  1.00  0.00     0.031 A 
HETATM    2  C9  UNL     1      24.975   4.146  49.652  1.00  0.00     0.055 A 
HETATM    3  C10 UNL     1      23.515   4.099  49.574  1.00  0.00     0.033 A 
HETATM    4  C22 UNL     1      23.066   5.209  49.009  1.00  0.00     0.009 A 
HETATM    5  C23 UNL     1      24.221   6.095  48.664  1.00  0.00     0.088 A 
ENDROOT
BRANCH   3   6
HETATM    6  N4  UNL     1      22.782   2.960  50.070  1.00  0.00    -0.323 N 
HETATM    7  C11 UNL     1      22.316   2.942  51.414  1.00  0.00     0.256 C 
HETATM    8  O1  UNL     1      22.557   3.934  52.149  1.00  0.00    -0.267 OA
HETATM    9  H10 UNL     1      22.582   2.141  49.466  1.00  0.00     0.169 HD
BRANCH   7  10
HETATM   10  C12 UNL     1      21.568   1.839  52.001  1.00  0.00     0.033 A 
HETATM   11  C13 UNL     1      22.155   1.111  52.990  1.00  0.00     0.018 A 
HETATM   12  C14 UNL     1      21.531   0.036  53.621  1.00  0.00     0.013 A 
HETATM   13  C15 UNL     1      20.243  -0.308  53.217  1.00  0.00    -0.026 A 
HETATM   14  C16 UNL     1      19.611  -1.377  53.837  1.00  0.00     0.012 A 
HETATM   15  C20 UNL     1      19.661   0.437  52.213  1.00  0.00    -0.025 A 
HETATM   16  C17 UNL     1      18.322  -1.719  53.428  1.00  0.00     0.001 A 
HETATM   17  C18 UNL     1      17.728  -0.970  52.417  1.00  0.00     0.001 A 
HETATM   18  C19 UNL     1      18.379   0.092  51.812  1.00  0.00     0.012 A 
HETATM   19  C21 UNL     1      20.293   1.499  51.600  1.00  0.00     0.029 A 
ENDBRANCH   7  10
ENDBRANCH   3   6
BRANCH   1  20
HETATM   20  N3  UNL     1      26.764   5.663  49.047  1.00  0.00    -0.296 N 
HETATM   21  C7  UNL     1      27.683   4.632  48.625  1.00  0.00     0.291 C 
HETATM   22  N2  UNL     1      29.029   5.167  48.428  1.00  0.00    -0.272 NA
HETATM   23  C6  UNL     1      29.267   6.412  48.287  1.00  0.00     0.045 C 
HETATM   24  C24 UNL     1      28.169   7.402  48.315  1.00  0.00     0.169 C 
HETATM   25  N5  UNL     1      27.236   6.948  49.359  1.00  0.00    -0.231 NA
HETATM   26  H21 UNL     1      27.734   6.957  50.286  1.00  0.00     0.147 HD
BRANCH  23  27
HETATM   27  C5  UNL     1      30.631   6.881  48.095  1.00  0.00     0.028 C 
HETATM   28  C4  UNL     1      31.615   6.555  48.917  1.00  0.00     0.003 C 
BRANCH  28  29
HETATM   29  C3  UNL     1      33.012   7.009  48.759  1.00  0.00     0.019 C 
HETATM   30  C2  UNL     1      34.035   6.170  48.689  1.00  0.00     0.110 C 
BRANCH  30  31
HETATM   31  N1  UNL     1      35.343   6.759  48.535  1.00  0.00    -0.300 NA
HETATM   32  C1  UNL     1      35.301   8.022  48.193  1.00  0.00     0.170 C 
ENDBRANCH  30  31
ENDBRANCH  28  29
ENDBRANCH  23  27
ENDBRANCH   1  20
TORSDOF 6
ENDMDL
MODEL 5
REMARK VINA RESULT:      -8.6      8.417     14.998
REMARK  6 active torsions:
REMARK  status: ('A' for Active; 'I' for Inactive)
REMARK    1  A    between atoms: N1_2  and  C2_3 
REMARK    2  A    between atoms: C3_4  and  C4_5 
REMARK    3  A    between atoms: C5_6  and  C6_7 
REMARK    4  A    between atoms: N3_10  and  C8_11 
REMARK    5  A    between atoms: C10_13  and  N4_14 
REMARK       I    between atoms: N4_14  and  C11_15 
REMARK    6  A    between atoms: C11_15  and  C12_17 
ROOT
HETATM    1  C8  UNL     1      19.072  -0.501  52.985  1.00  0.00     0.031 A 
HETATM    2  C9  UNL     1      20.290  -0.754  53.476  1.00  0.00     0.055 A 
HETATM    3  C10 UNL     1      21.174   0.353  53.113  1.00  0.00     0.033 A 
HETATM    4  C22 UNL     1      20.494   1.253  52.419  1.00  0.00     0.009 A 
HETATM    5  C23 UNL     1      19.078   0.798  52.265  1.00  0.00     0.088 A 
ENDROOT
BRANCH   3   6
HETATM    6  N4  UNL     1      22.561   0.357  53.509  1.00  0.00    -0.323 N 
HETATM    7  C11 UNL     1      23.568   0.743  52.581  1.00  0.00     0.256 C 
HETATM    8  O1  UNL     1      23.219   1.078  51.419  1.00  0.00    -0.267 OA
HETATM    9  H10 UNL     1      22.851   0.081  54.466  1.00  0.00     0.169 HD
BRANCH   7  10
HETATM   10  C12 UNL     1      24.990   0.778  52.890  1.00  0.00     0.033 A 
HETATM   11  C13 UNL     1      25.540   1.959  53.284  1.00  0.00     0.018 A 
HETATM   12  C14 UNL     1      26.889   2.105  53.603  1.00  0.00     0.013 A 
HETATM   13  C15 UNL     1      27.713   0.985  53.513  1.00  0.00    -0.026 A 
HETATM   14  C16 UNL     1      29.059   1.117  53.827  1.00  0.00     0.012 A 
HETATM   15  C20 UNL     1      27.143  -0.205  53.111  1.00  0.00    -0.025 A 
HETATM   16  C17 UNL     1      29.879  -0.006  53.734  1.00  0.00     0.001 A 
HETATM   17  C18 UNL     1      29.310  -1.210  53.331  1.00  0.00     0.001 A 
HETATM   18  C19 UNL     1      27.965  -1.318  53.021  1.00  0.00     0.012 A 
HETATM   19  C21 UNL     1      25.805  -0.331  52.799  1.00  0.00     0.029 A 
ENDBRANCH   7  10
ENDBRANCH   3   6
BRANCH   1  20
HETATM   20  N3  UNL     1      17.974  -1.388  53.163  1.00  0.00    -0.296 N 
HETATM   21  C7  UNL     1      16.838  -1.200  52.290  1.00  0.00     0.291 C 
HETATM   22  N2  UNL     1      15.854  -2.267  52.459  1.00  0.00    -0.272 NA
HETATM   23  C6  UNL     1      16.130  -3.383  53.013  1.00  0.00     0.045 C 
HETATM   24  C24 UNL     1      17.489  -3.661  53.524  1.00  0.00     0.169 C 
HETATM   25  N5  UNL     1      17.963  -2.407  54.129  1.00  0.00    -0.231 NA
HETATM   26  H21 UNL     1      17.334  -2.160  54.935  1.00  0.00     0.147 HD
BRANCH  23  27
HETATM   27  C5  UNL     1      15.105  -4.406  53.151  1.00  0.00     0.028 C 
HETATM   28  C4  UNL     1      14.937  -5.095  54.268  1.00  0.00     0.003 C 
BRANCH  28  29
HETATM   29  C3  UNL     1      13.910  -6.142  54.451  1.00  0.00     0.019 C 
HETATM   30  C2  UNL     1      13.238  -6.671  53.440  1.00  0.00     0.110 C 
BRANCH  30  31
HETATM   31  N1  UNL     1      12.266  -7.684  53.772  1.00  0.00    -0.300 NA
HETATM   32  C1  UNL     1      12.192  -8.639  52.880  1.00  0.00     0.170 C 
ENDBRANCH  30  31
ENDBRANCH  28  29
ENDBRANCH  23  27
ENDBRANCH   1  20
TORSDOF 6
ENDMDL
MODEL 6
REMARK VINA RESULT:      -8.4      3.300      4.545
REMARK  6 active torsions:
REMARK  status: ('A' for Active; 'I' for Inactive)
REMARK    1  A    between atoms: N1_2  and  C2_3 
REMARK    2  A    between atoms: C3_4  and  C4_5 
REMARK    3  A    between atoms: C5_6  and  C6_7 
REMARK    4  A    between atoms: N3_10  and  C8_11 
REMARK    5  A    between atoms: C10_13  and  N4_14 
REMARK       I    between atoms: N4_14  and  C11_15 
REMARK    6  A    between atoms: C11_15  and  C12_17 
ROOT
HETATM    1  C8  UNL     1      25.119   7.743  49.952  1.00  0.00     0.031 A 
HETATM    2  C9  UNL     1      24.953   6.631  50.679  1.00  0.00     0.055 A 
HETATM    3  C10 UNL     1      23.552   6.553  51.090  1.00  0.00     0.033 A 
HETATM    4  C22 UNL     1      22.892   7.599  50.617  1.00  0.00     0.009 A 
HETATM    5  C23 UNL     1      23.829   8.469  49.840  1.00  0.00     0.088 A 
ENDROOT
BRANCH   3   6
HETATM    6  N4  UNL     1      23.074   5.452  51.890  1.00  0.00    -0.323 N 
HETATM    7  C11 UNL     1      22.685   4.233  51.268  1.00  0.00     0.256 C 
HETATM    8  O1  UNL     1      22.768   4.143  50.015  1.00  0.00    -0.267 OA
HETATM    9  H10 UNL     1      23.004   5.523  52.922  1.00  0.00     0.169 HD
BRANCH   7  10
HETATM   10  C12 UNL     1      22.192   3.070  51.991  1.00  0.00     0.033 A 
HETATM   11  C13 UNL     1      20.856   2.973  52.232  1.00  0.00     0.018 A 
HETATM   12  C14 UNL     1      20.278   1.904  52.914  1.00  0.00     0.013 A 
HETATM   13  C15 UNL     1      21.111   0.886  53.372  1.00  0.00    -0.026 A 
HETATM   14  C16 UNL     1      20.548  -0.184  54.054  1.00  0.00     0.012 A 
HETATM   15  C20 UNL     1      22.463   0.997  53.123  1.00  0.00    -0.025 A 
HETATM   16  C17 UNL     1      21.386  -1.200  54.511  1.00  0.00     0.001 A 
HETATM   17  C18 UNL     1      22.750  -1.095  54.261  1.00  0.00     0.001 A 
HETATM   18  C19 UNL     1      23.290  -0.017  53.579  1.00  0.00     0.012 A 
HETATM   19  C21 UNL     1      23.018   2.063  52.445  1.00  0.00     0.029 A 
ENDBRANCH   7  10
ENDBRANCH   3   6
BRANCH   1  20
HETATM   20  N3  UNL     1      26.374   8.117  49.398  1.00  0.00    -0.296 N 
HETATM   21  C7  UNL     1      27.130   9.118  50.114  1.00  0.00     0.291 C 
HETATM   22  N2  UNL     1      28.461   9.294  49.538  1.00  0.00    -0.272 NA
HETATM   23  C6  UNL     1      29.002   8.434  48.766  1.00  0.00     0.045 C 
HETATM   24  C24 UNL     1      28.294   7.187  48.405  1.00  0.00     0.169 C 
HETATM   25  N5  UNL     1      26.883   7.559  48.213  1.00  0.00    -0.231 NA
HETATM   26  H21 UNL     1      26.817   8.239  47.413  1.00  0.00     0.147 HD
BRANCH  23  27
HETATM   27  C5  UNL     1      30.332   8.668  48.225  1.00  0.00     0.028 C 
HETATM   28  C4  UNL     1      31.371   7.915  48.547  1.00  0.00     0.003 C 
BRANCH  28  29
HETATM   29  C3  UNL     1      32.737   8.118  48.022  1.00  0.00     0.019 C 
HETATM   30  C2  UNL     1      33.825   7.829  48.722  1.00  0.00     0.110 C 
BRANCH  30  31
HETATM   31  N1  UNL     1      35.091   8.080  48.078  1.00  0.00    -0.300 NA
HETATM   32  C1  UNL     1      36.069   7.363  48.570  1.00  0.00     0.170 C 
ENDBRANCH  30  31
ENDBRANCH  28  29
ENDBRANCH  23  27
ENDBRANCH   1  20
TORSDOF 6
ENDMDL
MODEL 7
REMARK VINA RESULT:      -8.3      4.908      6.165
REMARK  6 active torsions:
REMARK  status: ('A' for Active; 'I' for Inactive)
REMARK    1  A    between atoms: N1_2  and  C2_3 
REMARK    2  A    between atoms: C3_4  and  C4_5 
REMARK    3  A    between atoms: C5_6  and  C6_7 
REMARK    4  A    between atoms: N3_10  and  C8_11 
REMARK    5  A    between atoms: C10_13  and  N4_14 
REMARK       I    between atoms: N4_14  and  C11_15 
REMARK    6  A    between atoms: C11_15  and  C12_17 
ROOT
HETATM    1  C8  UNL     1      22.059   4.964  50.468  1.00  0.00     0.031 A 
HETATM    2  C9  UNL     1      23.266   4.386  50.473  1.00  0.00     0.055 A 
HETATM    3  C10 UNL     1      23.158   3.097  51.156  1.00  0.00     0.033 A 
HETATM    4  C22 UNL     1      21.908   2.908  51.550  1.00  0.00     0.009 A 
HETATM    5  C23 UNL     1      21.076   4.086  51.151  1.00  0.00     0.088 A 
ENDROOT
BRANCH   3   6
HETATM    6  N4  UNL     1      24.309   2.243  51.314  1.00  0.00    -0.323 N 
HETATM    7  C11 UNL     1      25.031   2.238  52.540  1.00  0.00     0.256 C 
HETATM    8  O1  UNL     1      24.641   2.990  53.472  1.00  0.00    -0.267 OA
HETATM    9  H10 UNL     1      24.632   1.623  50.549  1.00  0.00     0.169 HD
BRANCH   7  10
HETATM   10  C12 UNL     1      26.202   1.411  52.793  1.00  0.00     0.033 A 
HETATM   11  C13 UNL     1      27.350   2.018  53.200  1.00  0.00     0.018 A 
HETATM   12  C14 UNL     1      28.528   1.323  53.469  1.00  0.00     0.013 A 
HETATM   13  C15 UNL     1      28.527  -0.061  53.313  1.00  0.00    -0.026 A 
HETATM   14  C16 UNL     1      29.695  -0.765  53.577  1.00  0.00     0.012 A 
HETATM   15  C20 UNL     1      27.358  -0.663  52.899  1.00  0.00    -0.025 A 
HETATM   16  C17 UNL     1      29.689  -2.150  53.418  1.00  0.00     0.001 A 
HETATM   17  C18 UNL     1      28.512  -2.764  53.003  1.00  0.00     0.001 A 
HETATM   18  C19 UNL     1      27.360  -2.041  52.744  1.00  0.00     0.012 A 
HETATM   19  C21 UNL     1      26.200   0.040  52.637  1.00  0.00     0.029 A 
ENDBRANCH   7  10
ENDBRANCH   3   6
BRANCH   1  20
HETATM   20  N3  UNL     1      21.820   6.236  49.878  1.00  0.00    -0.296 N 
HETATM   21  C7  UNL     1      20.480   6.763  49.988  1.00  0.00     0.291 C 
HETATM   22  N2  UNL     1      20.405   8.136  49.492  1.00  0.00    -0.272 NA
HETATM   23  C6  UNL     1      21.433   8.875  49.339  1.00  0.00     0.045 C 
HETATM   24  C24 UNL     1      22.785   8.371  49.663  1.00  0.00     0.169 C 
HETATM   25  N5  UNL     1      22.817   6.970  49.215  1.00  0.00    -0.231 NA
HETATM   26  H21 UNL     1      22.679   6.945  48.172  1.00  0.00     0.147 HD
BRANCH  23  27
HETATM   27  C5  UNL     1      21.292  10.235  48.841  1.00  0.00     0.028 C 
HETATM   28  C4  UNL     1      20.410  11.085  49.341  1.00  0.00     0.003 C 
BRANCH  28  29
HETATM   29  C3  UNL     1      20.232  12.472  48.865  1.00  0.00     0.019 C 
HETATM   30  C2  UNL     1      20.653  13.525  49.551  1.00  0.00     0.110 C 
BRANCH  30  31
HETATM   31  N1  UNL     1      20.410  14.818  48.961  1.00  0.00    -0.300 NA
HETATM   32  C1  UNL     1      21.510  15.464  48.664  1.00  0.00     0.170 C 
ENDBRANCH  30  31
ENDBRANCH  28  29
ENDBRANCH  23  27
ENDBRANCH   1  20
TORSDOF 6
ENDMDL
MODEL 8
REMARK VINA RESULT:      -8.2      8.053     13.215
REMARK  6 active torsions:
REMARK  status: ('A' for Active; 'I' for Inactive)
REMARK    1  A    between atoms: N1_2  and  C2_3 
REMARK    2  A    between atoms: C3_4  and  C4_5 
REMARK    3  A    between atoms: C5_6  and  C6_7 
REMARK    4  A    between atoms: N3_10  and  C8_11 
REMARK    5  A    between atoms: C10_13  and  N4_14 
REMARK       I    between atoms: N4_14  and  C11_15 
REMARK    6  A    between atoms: C11_15  and  C12_17 
ROOT
HETATM    1  C8  UNL     1      19.652   1.278  51.623  1.00  0.00     0.031 A 
HETATM    2  C9  UNL     1      20.791   0.698  52.019  1.00  0.00     0.055 A 
HETATM    3  C10 UNL     1      21.695   1.739  52.505  1.00  0.00     0.033 A 
HETATM    4  C22 UNL     1      21.106   2.921  52.403  1.00  0.00     0.009 A 
HETATM    5  C23 UNL     1      19.736   2.746  51.826  1.00  0.00     0.088 A 
ENDROOT
BRANCH   3   6
HETATM    6  N4  UNL     1      23.008   1.409  53.001  1.00  0.00    -0.323 N 
HETATM    7  C11 UNL     1      24.127   1.420  52.122  1.00  0.00     0.256 C 
HETATM    8  O1  UNL     1      23.941   1.721  50.914  1.00  0.00    -0.267 OA
HETATM    9  H10 UNL     1      23.164   1.160  53.996  1.00  0.00     0.169 HD
BRANCH   7  10
HETATM   10  C12 UNL     1      25.487   1.102  52.531  1.00  0.00     0.033 A 
HETATM   11  C13 UNL     1      26.284   2.111  52.978  1.00  0.00     0.018 A 
HETATM   12  C14 UNL     1      27.600   1.919  53.394  1.00  0.00     0.013 A 
HETATM   13  C15 UNL     1      28.125   0.629  53.347  1.00  0.00    -0.026 A 
HETATM   14  C16 UNL     1      29.435   0.424  53.757  1.00  0.00     0.012 A 
HETATM   15  C20 UNL     1      27.308  -0.384  52.891  1.00  0.00    -0.025 A 
HETATM   16  C17 UNL     1      29.956  -0.868  53.708  1.00  0.00     0.001 A 
HETATM   17  C18 UNL     1      29.136  -1.895  53.250  1.00  0.00     0.001 A 
HETATM   18  C19 UNL     1      27.832  -1.667  52.845  1.00  0.00     0.012 A 
HETATM   19  C21 UNL     1      26.006  -0.176  52.483  1.00  0.00     0.029 A 
ENDBRANCH   7  10
ENDBRANCH   3   6
BRANCH   1  20
HETATM   20  N3  UNL     1      18.558   0.538  51.093  1.00  0.00    -0.296 N 
HETATM   21  C7  UNL     1      17.865  -0.342  52.005  1.00  0.00     0.291 C 
HETATM   22  N2  UNL     1      16.671  -0.914  51.387  1.00  0.00    -0.272 NA
HETATM   23  C6  UNL     1      16.125  -0.421  50.345  1.00  0.00     0.045 C 
HETATM   24  C24 UNL     1      16.684   0.781  49.692  1.00  0.00     0.169 C 
HETATM   25  N5  UNL     1      18.147   0.637  49.754  1.00  0.00    -0.231 NA
HETATM   26  H21 UNL     1      18.427  -0.217  49.206  1.00  0.00     0.147 HD
BRANCH  23  27
HETATM   27  C5  UNL     1      14.935  -1.039  49.778  1.00  0.00     0.028 C 
HETATM   28  C4  UNL     1      14.783  -2.351  49.708  1.00  0.00     0.003 C 
BRANCH  28  29
HETATM   29  C3  UNL     1      13.593  -3.019  49.141  1.00  0.00     0.019 C 
HETATM   30  C2  UNL     1      12.667  -3.594  49.894  1.00  0.00     0.110 C 
BRANCH  30  31
HETATM   31  N1  UNL     1      11.561  -4.207  49.200  1.00  0.00    -0.300 NA
HETATM   32  C1  UNL     1      10.464  -3.495  49.249  1.00  0.00     0.170 C 
ENDBRANCH  30  31
ENDBRANCH  28  29
ENDBRANCH  23  27
ENDBRANCH   1  20
TORSDOF 6
ENDMDL
MODEL 9
REMARK VINA RESULT:      -8.1      5.857     14.335
REMARK  6 active torsions:
REMARK  status: ('A' for Active; 'I' for Inactive)
REMARK    1  A    between atoms: N1_2  and  C2_3 
REMARK    2  A    between atoms: C3_4  and  C4_5 
REMARK    3  A    between atoms: C5_6  and  C6_7 
REMARK    4  A    between atoms: N3_10  and  C8_11 
REMARK    5  A    between atoms: C10_13  and  N4_14 
REMARK       I    between atoms: N4_14  and  C11_15 
REMARK    6  A    between atoms: C11_15  and  C12_17 
ROOT
HETATM    1  C8  UNL     1      20.189  -0.187  53.196  1.00  0.00     0.031 A 
HETATM    2  C9  UNL     1      20.652   0.949  52.664  1.00  0.00     0.055 A 
HETATM    3  C10 UNL     1      22.065   1.083  53.017  1.00  0.00     0.033 A 
HETATM    4  C22 UNL     1      22.439   0.044  53.747  1.00  0.00     0.009 A 
HETATM    5  C23 UNL     1      21.274  -0.876  53.938  1.00  0.00     0.088 A 
ENDROOT
BRANCH   3   6
HETATM    6  N4  UNL     1      22.836   2.220  52.577  1.00  0.00    -0.323 N 
HETATM    7  C11 UNL     1      23.246   2.321  51.218  1.00  0.00     0.256 C 
HETATM    8  O1  UNL     1      22.922   1.403  50.421  1.00  0.00    -0.267 OA
HETATM    9  H10 UNL     1      23.104   2.977  53.232  1.00  0.00     0.169 HD
BRANCH   7  10
HETATM   10  C12 UNL     1      24.025   3.429  50.683  1.00  0.00     0.033 A 
HETATM   11  C13 UNL     1      23.517   4.688  50.785  1.00  0.00     0.018 A 
HETATM   12  C14 UNL     1      24.178   5.819  50.307  1.00  0.00     0.013 A 
HETATM   13  C15 UNL     1      25.417   5.649  49.695  1.00  0.00    -0.026 A 
HETATM   14  C16 UNL     1      26.085   6.767  49.213  1.00  0.00     0.012 A 
HETATM   15  C20 UNL     1      25.919   4.368  49.597  1.00  0.00    -0.025 A 
HETATM   16  C17 UNL     1      27.325   6.592  48.601  1.00  0.00     0.001 A 
HETATM   17  C18 UNL     1      27.837   5.303  48.500  1.00  0.00     0.001 A 
HETATM   18  C19 UNL     1      27.153   4.201  48.987  1.00  0.00     0.012 A 
HETATM   19  C21 UNL     1      25.252   3.259  50.076  1.00  0.00     0.029 A 
ENDBRANCH   7  10
ENDBRANCH   3   6
BRANCH   1  20
HETATM   20  N3  UNL     1      18.841  -0.614  53.039  1.00  0.00    -0.296 N 
HETATM   21  C7  UNL     1      18.182  -0.248  51.807  1.00  0.00     0.291 C 
HETATM   22  N2  UNL     1      16.869  -0.881  51.697  1.00  0.00    -0.272 NA
HETATM   23  C6  UNL     1      16.525  -1.890  52.397  1.00  0.00     0.045 C 
HETATM   24  C24 UNL     1      17.456  -2.485  53.380  1.00  0.00     0.169 C 
HETATM   25  N5  UNL     1      18.156  -1.358  54.014  1.00  0.00    -0.231 NA
HETATM   26  H21 UNL     1      17.452  -0.763  54.521  1.00  0.00     0.147 HD
BRANCH  23  27
HETATM   27  C5  UNL     1      15.202  -2.475  52.240  1.00  0.00     0.028 C 
HETATM   28  C4  UNL     1      14.996  -3.588  51.555  1.00  0.00     0.003 C 
BRANCH  28  29
HETATM   29  C3  UNL     1      13.671  -4.215  51.371  1.00  0.00     0.019 C 
HETATM   30  C2  UNL     1      13.494  -5.529  51.360  1.00  0.00     0.110 C 
BRANCH  30  31
HETATM   31  N1  UNL     1      12.143  -5.995  51.170  1.00  0.00    -0.300 NA
HETATM   32  C1  UNL     1      11.628  -6.533  52.247  1.00  0.00     0.170 C 
ENDBRANCH  30  31
ENDBRANCH  28  29
ENDBRANCH  23  27
ENDBRANCH   1  20
TORSDOF 6
ENDMDL
