MODEL 1
REMARK VINA RESULT:      -9.5      0.000      0.000
REMARK  3 active torsions:
REMARK  status: ('A' for Active; 'I' for Inactive)
REMARK    1  A    between atoms: C2_2  and  C3_3 
REMARK    2  A    between atoms: C4_4  and  C5_5 
REMARK    3  A    between atoms: C5_5  and  C6_6 
ROOT
HETATM    1  C5  UNL     1      24.014  -0.325  53.403  1.00  0.00     0.032 C 
ENDROOT
BRANCH   1   2
HETATM    2  C4  UNL     1      25.316   0.139  53.237  1.00  0.00    -0.006 C 
HETATM    3  C3  UNL     1      25.599   1.464  53.213  1.00  0.00     0.066 C 
HETATM    4  O3  UNL     1      26.768   2.263  53.077  1.00  0.00    -0.282 OA
HETATM    5  C18 UNL     1      28.099   1.889  53.424  1.00  0.00     0.264 C 
HETATM    6  C17 UNL     1      28.999   0.786  53.077  1.00  0.00     0.115 C 
HETATM    7  O2  UNL     1      28.789   2.613  54.233  1.00  0.00    -0.265 OA
HETATM    8  C16 UNL     1      28.653  -0.408  53.950  1.00  0.00     0.037 C 
HETATM    9  C15 UNL     1      27.615  -1.249  53.235  1.00  0.00    -0.025 C 
HETATM   10  C14 UNL     1      26.356  -0.896  53.038  1.00  0.00     0.010 C 
BRANCH   3  11
HETATM   11  C2  UNL     1      24.539   2.478  53.355  1.00  0.00     0.061 C 
HETATM   12  C1  UNL     1      24.305   3.064  51.943  1.00  0.00     0.012 C 
ENDBRANCH   3  11
ENDBRANCH   1   2
BRANCH   1  13
HETATM   13  C6  UNL     1      22.747  -0.449  53.448  1.00  0.00     0.045 A 
HETATM   14  C7  UNL     1      22.280  -1.124  54.644  1.00  0.00     0.257 A 
HETATM   15  O1  UNL     1      22.725  -1.635  55.690  1.00  0.00    -0.267 OA
HETATM   16  N1  UNL     1      20.861  -1.226  54.599  1.00  0.00    -0.322 N 
HETATM   17  C8  UNL     1      20.467  -0.616  53.379  1.00  0.00     0.046 A 
HETATM   18  H7  UNL     1      20.095  -1.606  55.187  1.00  0.00     0.169 HD
HETATM   19  C9  UNL     1      19.295  -0.361  52.698  1.00  0.00     0.030 A 
HETATM   20  C13 UNL     1      21.551  -0.147  52.676  1.00  0.00     0.006 A 
HETATM   21  C10 UNL     1      19.157   0.269  51.485  1.00  0.00     0.002 A 
HETATM   22  C11 UNL     1      20.306   0.701  50.861  1.00  0.00     0.001 A 
HETATM   23  C12 UNL     1      21.516   0.496  51.455  1.00  0.00     0.015 A 
ENDBRANCH   1  13
TORSDOF 3
ENDMDL
MODEL 2
REMARK VINA RESULT:      -9.0      2.484      6.723
REMARK  3 active torsions:
REMARK  status: ('A' for Active; 'I' for Inactive)
REMARK    1  A    between atoms: C2_2  and  C3_3 
REMARK    2  A    between atoms: C4_4  and  C5_5 
REMARK    3  A    between atoms: C5_5  and  C6_6 
ROOT
HETATM    1  C5  UNL     1      24.831   0.089  53.121  1.00  0.00     0.032 C 
ENDROOT
BRANCH   1   2
HETATM    2  C4  UNL     1      23.441   0.153  53.170  1.00  0.00    -0.006 C 
HETATM    3  C3  UNL     1      22.733   0.891  52.281  1.00  0.00     0.066 C 
HETATM    4  O3  UNL     1      21.358   1.167  52.038  1.00  0.00    -0.282 OA
HETATM    5  C18 UNL     1      20.252   0.333  52.371  1.00  0.00     0.264 C 
HETATM    6  C17 UNL     1      19.750  -0.298  53.595  1.00  0.00     0.115 C 
HETATM    7  O2  UNL     1      19.411  -0.027  51.466  1.00  0.00    -0.265 OA
HETATM    8  C16 UNL     1      20.525  -1.584  53.824  1.00  0.00     0.037 C 
HETATM    9  C15 UNL     1      21.738  -1.274  54.678  1.00  0.00    -0.025 C 
HETATM   10  C14 UNL     1      22.793  -0.586  54.278  1.00  0.00     0.010 C 
BRANCH   3  11
HETATM   11  C2  UNL     1      23.402   1.666  51.221  1.00  0.00     0.061 C 
HETATM   12  C1  UNL     1      23.312   3.151  51.645  1.00  0.00     0.012 C 
ENDBRANCH   3  11
ENDBRANCH   1   2
BRANCH   1  13
HETATM   13  C6  UNL     1      26.076   0.125  53.389  1.00  0.00     0.045 A 
HETATM   14  C7  UNL     1      26.511   1.404  53.916  1.00  0.00     0.257 A 
HETATM   15  O1  UNL     1      26.051   2.523  54.215  1.00  0.00    -0.267 OA
HETATM   16  N1  UNL     1      27.911   1.352  54.172  1.00  0.00    -0.322 N 
HETATM   17  C8  UNL     1      28.323   0.045  53.802  1.00  0.00     0.046 A 
HETATM   18  H7  UNL     1      28.653   1.980  54.534  1.00  0.00     0.169 HD
HETATM   19  C9  UNL     1      29.493  -0.686  53.778  1.00  0.00     0.030 A 
HETATM   20  C13 UNL     1      27.270  -0.705  53.336  1.00  0.00     0.006 A 
HETATM   21  C10 UNL     1      29.654  -1.985  53.360  1.00  0.00     0.002 A 
HETATM   22  C11 UNL     1      28.534  -2.650  52.911  1.00  0.00     0.001 A 
HETATM   23  C12 UNL     1      27.329  -2.011  52.897  1.00  0.00     0.015 A 
ENDBRANCH   1  13
TORSDOF 3
ENDMDL
MODEL 3
REMARK VINA RESULT:      -8.7      3.009      6.473
REMARK  3 active torsions:
REMARK  status: ('A' for Active; 'I' for Inactive)
REMARK    1  A    between atoms: C2_2  and  C3_3 
REMARK    2  A    between atoms: C4_4  and  C5_5 
REMARK    3  A    between atoms: C5_5  and  C6_6 
ROOT
HETATM    1  C5  UNL     1      24.035   2.282  51.635  1.00  0.00     0.032 C 
ENDROOT
BRANCH   1   2
HETATM    2  C4  UNL     1      23.511   1.214  52.358  1.00  0.00    -0.006 C 
HETATM    3  C3  UNL     1      24.313   0.335  53.007  1.00  0.00     0.066 C 
HETATM    4  O3  UNL     1      24.129  -0.820  53.816  1.00  0.00    -0.282 OA
HETATM    5  C18 UNL     1      22.989  -1.126  54.614  1.00  0.00     0.264 C 
HETATM    6  C17 UNL     1      21.549  -1.253  54.376  1.00  0.00     0.115 C 
HETATM    7  O2  UNL     1      23.120  -1.370  55.871  1.00  0.00    -0.265 OA
HETATM    8  C16 UNL     1      20.935   0.136  54.395  1.00  0.00     0.037 C 
HETATM    9  C15 UNL     1      20.953   0.695  52.985  1.00  0.00    -0.025 C 
HETATM   10  C14 UNL     1      22.038   1.068  52.330  1.00  0.00     0.010 C 
BRANCH   3  11
HETATM   11  C2  UNL     1      25.781   0.466  52.972  1.00  0.00     0.061 C 
HETATM   12  C1  UNL     1      26.334  -0.932  52.606  1.00  0.00     0.012 C 
ENDBRANCH   3  11
ENDBRANCH   1   2
BRANCH   1  13
HETATM   13  C6  UNL     1      24.328   3.435  51.178  1.00  0.00     0.045 A 
HETATM   14  C7  UNL     1      23.406   4.470  51.606  1.00  0.00     0.257 A 
HETATM   15  O1  UNL     1      22.387   4.614  52.309  1.00  0.00    -0.267 OA
HETATM   16  N1  UNL     1      23.805   5.714  51.039  1.00  0.00    -0.322 N 
HETATM   17  C8  UNL     1      24.964   5.434  50.268  1.00  0.00     0.046 A 
HETATM   18  H7  UNL     1      23.487   6.702  51.043  1.00  0.00     0.169 HD
HETATM   19  C9  UNL     1      25.852   6.128  49.473  1.00  0.00     0.030 A 
HETATM   20  C13 UNL     1      25.301   4.103  50.328  1.00  0.00     0.006 A 
HETATM   21  C10 UNL     1      26.940   5.624  48.804  1.00  0.00     0.002 A 
HETATM   22  C11 UNL     1      27.192   4.276  48.927  1.00  0.00     0.001 A 
HETATM   23  C12 UNL     1      26.370   3.503  49.694  1.00  0.00     0.015 A 
ENDBRANCH   1  13
TORSDOF 3
ENDMDL
MODEL 4
REMARK VINA RESULT:      -8.6      2.100      2.669
REMARK  3 active torsions:
REMARK  status: ('A' for Active; 'I' for Inactive)
REMARK    1  A    between atoms: C2_2  and  C3_3 
REMARK    2  A    between atoms: C4_4  and  C5_5 
REMARK    3  A    between atoms: C5_5  and  C6_6 
ROOT
HETATM    1  C5  UNL     1      24.313   0.831  51.874  1.00  0.00     0.032 C 
ENDROOT
BRANCH   1   2
HETATM    2  C4  UNL     1      25.648   0.888  52.261  1.00  0.00    -0.006 C 
HETATM    3  C3  UNL     1      26.417   1.974  52.000  1.00  0.00     0.066 C 
HETATM    4  O3  UNL     1      27.762   2.364  52.247  1.00  0.00    -0.282 OA
HETATM    5  C18 UNL     1      28.598   1.911  53.308  1.00  0.00     0.264 C 
HETATM    6  C17 UNL     1      29.049   0.607  53.799  1.00  0.00     0.115 C 
HETATM    7  O2  UNL     1      29.155   2.754  54.104  1.00  0.00    -0.265 OA
HETATM    8  C16 UNL     1      27.959   0.023  54.682  1.00  0.00     0.037 C 
HETATM    9  C15 UNL     1      27.028  -0.807  53.821  1.00  0.00    -0.025 C 
HETATM   10  C14 UNL     1      26.188  -0.321  52.923  1.00  0.00     0.010 C 
BRANCH   3  11
HETATM   11  C2  UNL     1      25.874   3.144  51.287  1.00  0.00     0.061 C 
HETATM   12  C1  UNL     1      26.480   3.107  49.864  1.00  0.00     0.012 C 
ENDBRANCH   3  11
ENDBRANCH   1   2
BRANCH   1  13
HETATM   13  C6  UNL     1      23.040   0.775  51.844  1.00  0.00     0.045 A 
HETATM   14  C7  UNL     1      22.456   1.618  50.819  1.00  0.00     0.257 A 
HETATM   15  O1  UNL     1      22.799   2.404  49.914  1.00  0.00    -0.267 OA
HETATM   16  N1  UNL     1      21.037   1.501  50.870  1.00  0.00    -0.322 N 
HETATM   17  C8  UNL     1      20.763   0.589  51.923  1.00  0.00     0.046 A 
HETATM   18  H7  UNL     1      20.212   1.883  50.370  1.00  0.00     0.169 HD
HETATM   19  C9  UNL     1      19.654   0.023  52.519  1.00  0.00     0.030 A 
HETATM   20  C13 UNL     1      21.918   0.141  52.518  1.00  0.00     0.006 A 
HETATM   21  C10 UNL     1      19.635  -0.868  53.564  1.00  0.00     0.002 A 
HETATM   22  C11 UNL     1      20.847  -1.253  54.091  1.00  0.00     0.001 A 
HETATM   23  C12 UNL     1      22.002  -0.749  53.569  1.00  0.00     0.015 A 
ENDBRANCH   1  13
TORSDOF 3
ENDMDL
MODEL 5
REMARK VINA RESULT:      -8.5      2.638      6.737
REMARK  3 active torsions:
REMARK  status: ('A' for Active; 'I' for Inactive)
REMARK    1  A    between atoms: C2_2  and  C3_3 
REMARK    2  A    between atoms: C4_4  and  C5_5 
REMARK    3  A    between atoms: C5_5  and  C6_6 
ROOT
HETATM    1  C5  UNL     1      24.982   0.477  52.707  1.00  0.00     0.032 C 
ENDROOT
BRANCH   1   2
HETATM    2  C4  UNL     1      23.765   0.991  52.270  1.00  0.00    -0.006 C 
HETATM    3  C3  UNL     1      22.594   0.641  52.856  1.00  0.00     0.066 C 
HETATM    4  O3  UNL     1      21.220   0.964  52.681  1.00  0.00    -0.282 OA
HETATM    5  C18 UNL     1      20.693   2.170  52.134  1.00  0.00     0.264 C 
HETATM    6  C17 UNL     1      20.867   2.914  50.884  1.00  0.00     0.115 C 
HETATM    7  O2  UNL     1      19.846   2.873  52.800  1.00  0.00    -0.265 OA
HETATM    8  C16 UNL     1      22.126   3.757  50.999  1.00  0.00     0.037 C 
HETATM    9  C15 UNL     1      23.302   2.947  50.489  1.00  0.00    -0.025 C 
HETATM   10  C14 UNL     1      23.823   1.897  51.099  1.00  0.00     0.010 C 
BRANCH   3  11
HETATM   11  C2  UNL     1      22.554  -0.309  53.982  1.00  0.00     0.061 C 
HETATM   12  C1  UNL     1      21.202  -1.053  53.877  1.00  0.00     0.012 C 
ENDBRANCH   3  11
ENDBRANCH   1   2
BRANCH   1  13
HETATM   13  C6  UNL     1      26.171   0.323  53.138  1.00  0.00     0.045 A 
HETATM   14  C7  UNL     1      26.687   1.494  53.821  1.00  0.00     0.257 A 
HETATM   15  O1  UNL     1      26.336   2.645  54.148  1.00  0.00    -0.267 OA
HETATM   16  N1  UNL     1      28.019   1.234  54.253  1.00  0.00    -0.322 N 
HETATM   17  C8  UNL     1      28.310  -0.091  53.833  1.00  0.00     0.046 A 
HETATM   18  H7  UNL     1      28.777   1.729  54.759  1.00  0.00     0.169 HD
HETATM   19  C9  UNL     1      29.368  -0.973  53.901  1.00  0.00     0.030 A 
HETATM   20  C13 UNL     1      27.245  -0.657  53.174  1.00  0.00     0.006 A 
HETATM   21  C10 UNL     1      29.419  -2.252  53.403  1.00  0.00     0.002 A 
HETATM   22  C11 UNL     1      28.299  -2.726  52.758  1.00  0.00     0.001 A 
HETATM   23  C12 UNL     1      27.199  -1.929  52.639  1.00  0.00     0.015 A 
ENDBRANCH   1  13
TORSDOF 3
ENDMDL
MODEL 6
REMARK VINA RESULT:      -8.3      2.573      6.967
REMARK  3 active torsions:
REMARK  status: ('A' for Active; 'I' for Inactive)
REMARK    1  A    between atoms: C2_2  and  C3_3 
REMARK    2  A    between atoms: C4_4  and  C5_5 
REMARK    3  A    between atoms: C5_5  and  C6_6 
ROOT
HETATM    1  C5  UNL     1      23.643   0.708  52.639  1.00  0.00     0.032 C 
ENDROOT
BRANCH   1   2
HETATM    2  C4  UNL     1      22.378   0.700  52.058  1.00  0.00    -0.006 C 
HETATM    3  C3  UNL     1      21.267   0.415  52.781  1.00  0.00     0.066 C 
HETATM    4  O3  UNL     1      19.870   0.328  52.527  1.00  0.00    -0.282 OA
HETATM    5  C18 UNL     1      19.147   1.015  51.510  1.00  0.00     0.264 C 
HETATM    6  C17 UNL     1      19.247   1.132  50.053  1.00  0.00     0.115 C 
HETATM    7  O2  UNL     1      18.133   1.748  51.813  1.00  0.00    -0.265 OA
HETATM    8  C16 UNL     1      20.298   2.179  49.727  1.00  0.00     0.037 C 
HETATM    9  C15 UNL     1      21.644   1.494  49.600  1.00  0.00    -0.025 C 
HETATM   10  C14 UNL     1      22.327   0.969  50.603  1.00  0.00     0.010 C 
BRANCH   3  11
HETATM   11  C2  UNL     1      21.348   0.093  54.217  1.00  0.00     0.061 C 
HETATM   12  C1  UNL     1      21.125  -1.434  54.334  1.00  0.00     0.012 C 
ENDBRANCH   3  11
ENDBRANCH   1   2
BRANCH   1  13
HETATM   13  C6  UNL     1      24.838   0.983  52.986  1.00  0.00     0.045 A 
HETATM   14  C7  UNL     1      25.010   2.364  53.395  1.00  0.00     0.257 A 
HETATM   15  O1  UNL     1      24.349   3.411  53.534  1.00  0.00    -0.267 OA
HETATM   16  N1  UNL     1      26.372   2.580  53.751  1.00  0.00    -0.322 N 
HETATM   17  C8  UNL     1      27.024   1.333  53.559  1.00  0.00     0.046 A 
HETATM   18  H7  UNL     1      26.968   3.358  54.090  1.00  0.00     0.169 HD
HETATM   19  C9  UNL     1      28.294   0.814  53.697  1.00  0.00     0.030 A 
HETATM   20  C13 UNL     1      26.151   0.370  53.110  1.00  0.00     0.006 A 
HETATM   21  C10 UNL     1      28.701  -0.472  53.441  1.00  0.00     0.002 A 
HETATM   22  C11 UNL     1      27.749  -1.361  52.993  1.00  0.00     0.001 A 
HETATM   23  C12 UNL     1      26.462  -0.944  52.825  1.00  0.00     0.015 A 
ENDBRANCH   1  13
TORSDOF 3
ENDMDL
MODEL 7
REMARK VINA RESULT:      -8.1      2.619      6.681
REMARK  3 active torsions:
REMARK  status: ('A' for Active; 'I' for Inactive)
REMARK    1  A    between atoms: C2_2  and  C3_3 
REMARK    2  A    between atoms: C4_4  and  C5_5 
REMARK    3  A    between atoms: C5_5  and  C6_6 
ROOT
HETATM    1  C5  UNL     1      22.321  -0.347  53.153  1.00  0.00     0.032 C 
ENDROOT
BRANCH   1   2
HETATM    2  C4  UNL     1      21.065   0.088  52.739  1.00  0.00    -0.006 C 
HETATM    3  C3  UNL     1      20.922   1.081  51.827  1.00  0.00     0.066 C 
HETATM    4  O3  UNL     1      19.837   1.745  51.193  1.00  0.00    -0.282 OA
HETATM    5  C18 UNL     1      18.535   1.215  50.958  1.00  0.00     0.264 C 
HETATM    6  C17 UNL     1      17.484   0.619  51.787  1.00  0.00     0.115 C 
HETATM    7  O2  UNL     1      18.043   1.196  49.769  1.00  0.00    -0.265 OA
HETATM    8  C16 UNL     1      17.819  -0.847  52.006  1.00  0.00     0.037 C 
HETATM    9  C15 UNL     1      18.654  -0.972  53.265  1.00  0.00    -0.025 C 
HETATM   10  C14 UNL     1      19.903  -0.559  53.391  1.00  0.00     0.010 C 
BRANCH   3  11
HETATM   11  C2  UNL     1      22.093   1.751  51.234  1.00  0.00     0.061 C 
HETATM   12  C1  UNL     1      22.091   1.383  49.731  1.00  0.00     0.012 C 
ENDBRANCH   3  11
ENDBRANCH   1   2
BRANCH   1  13
HETATM   13  C6  UNL     1      23.505  -0.430  53.615  1.00  0.00     0.045 A 
HETATM   14  C7  UNL     1      23.574  -1.116  54.891  1.00  0.00     0.257 A 
HETATM   15  O1  UNL     1      22.830  -1.683  55.715  1.00  0.00    -0.267 OA
HETATM   16  N1  UNL     1      24.927  -1.149  55.332  1.00  0.00    -0.322 N 
HETATM   17  C8  UNL     1      25.678  -0.484  54.326  1.00  0.00     0.046 A 
HETATM   18  H7  UNL     1      25.468  -1.508  56.142  1.00  0.00     0.169 HD
HETATM   19  C9  UNL     1      26.996  -0.152  54.089  1.00  0.00     0.030 A 
HETATM   20  C13 UNL     1      24.873  -0.048  53.300  1.00  0.00     0.006 A 
HETATM   21  C10 UNL     1      27.503   0.519  53.003  1.00  0.00     0.002 A 
HETATM   22  C11 UNL     1      26.612   0.914  52.030  1.00  0.00     0.001 A 
HETATM   23  C12 UNL     1      25.286   0.631  52.172  1.00  0.00     0.015 A 
ENDBRANCH   1  13
TORSDOF 3
ENDMDL
MODEL 8
REMARK VINA RESULT:      -8.1      2.756      6.975
REMARK  3 active torsions:
REMARK  status: ('A' for Active; 'I' for Inactive)
REMARK    1  A    between atoms: C2_2  and  C3_3 
REMARK    2  A    between atoms: C4_4  and  C5_5 
REMARK    3  A    between atoms: C5_5  and  C6_6 
ROOT
HETATM    1  C5  UNL     1      24.011   1.242  52.332  1.00  0.00     0.032 C 
ENDROOT
BRANCH   1   2
HETATM    2  C4  UNL     1      22.678   0.933  52.581  1.00  0.00    -0.006 C 
HETATM    3  C3  UNL     1      21.689   1.322  51.739  1.00  0.00     0.066 C 
HETATM    4  O3  UNL     1      20.275   1.180  51.678  1.00  0.00    -0.282 OA
HETATM    5  C18 UNL     1      19.501   0.132  52.254  1.00  0.00     0.264 C 
HETATM    6  C17 UNL     1      19.345  -0.437  53.595  1.00  0.00     0.115 C 
HETATM    7  O2  UNL     1      18.700  -0.562  51.525  1.00  0.00    -0.265 OA
HETATM    8  C16 UNL     1      20.478  -1.422  53.832  1.00  0.00     0.037 C 
HETATM    9  C15 UNL     1      21.642  -0.681  54.460  1.00  0.00    -0.025 C 
HETATM   10  C14 UNL     1      22.401   0.206  53.841  1.00  0.00     0.010 C 
BRANCH   3  11
HETATM   11  C2  UNL     1      21.982   2.097  50.519  1.00  0.00     0.061 C 
HETATM   12  C1  UNL     1      21.657   1.169  49.325  1.00  0.00     0.012 C 
ENDBRANCH   3  11
ENDBRANCH   1   2
BRANCH   1  13
HETATM   13  C6  UNL     1      25.236   1.582  52.426  1.00  0.00     0.045 A 
HETATM   14  C7  UNL     1      25.620   2.605  51.473  1.00  0.00     0.257 A 
HETATM   15  O1  UNL     1      25.128   3.298  50.561  1.00  0.00    -0.267 OA
HETATM   16  N1  UNL     1      27.000   2.909  51.644  1.00  0.00    -0.322 N 
HETATM   17  C8  UNL     1      27.452   2.072  52.699  1.00  0.00     0.046 A 
HETATM   18  H7  UNL     1      27.710   3.540  51.226  1.00  0.00     0.169 HD
HETATM   19  C9  UNL     1      28.630   1.832  53.377  1.00  0.00     0.030 A 
HETATM   20  C13 UNL     1      26.441   1.278  53.183  1.00  0.00     0.006 A 
HETATM   21  C10 UNL     1      28.833   0.940  54.401  1.00  0.00     0.002 A 
HETATM   22  C11 UNL     1      27.754   0.190  54.812  1.00  0.00     0.001 A 
HETATM   23  C12 UNL     1      26.545   0.355  54.203  1.00  0.00     0.015 A 
ENDBRANCH   1  13
TORSDOF 3
ENDMDL
MODEL 9
REMARK VINA RESULT:      -8.0      3.558      5.879
REMARK  3 active torsions:
REMARK  status: ('A' for Active; 'I' for Inactive)
REMARK    1  A    between atoms: C2_2  and  C3_3 
REMARK    2  A    between atoms: C4_4  and  C5_5 
REMARK    3  A    between atoms: C5_5  and  C6_6 
ROOT
HETATM    1  C5  UNL     1      25.832   2.628  51.082  1.00  0.00     0.032 C 
ENDROOT
BRANCH   1   2
HETATM    2  C4  UNL     1      25.634   3.730  50.255  1.00  0.00    -0.006 C 
HETATM    3  C3  UNL     1      24.471   4.426  50.268  1.00  0.00     0.066 C 
HETATM    4  O3  UNL     1      23.946   5.563  49.593  1.00  0.00    -0.282 OA
HETATM    5  C18 UNL     1      24.694   6.639  49.033  1.00  0.00     0.264 C 
HETATM    6  C17 UNL     1      25.786   6.760  48.063  1.00  0.00     0.115 C 
HETATM    7  O2  UNL     1      24.449   7.854  49.380  1.00  0.00    -0.265 OA
HETATM    8  C16 UNL     1      27.097   6.493  48.783  1.00  0.00     0.037 C 
HETATM    9  C15 UNL     1      27.406   5.012  48.697  1.00  0.00    -0.025 C 
HETATM   10  C14 UNL     1      26.743   4.060  49.331  1.00  0.00     0.010 C 
BRANCH   3  11
HETATM   11  C2  UNL     1      23.357   4.044  51.154  1.00  0.00     0.061 C 
HETATM   12  C1  UNL     1      23.413   5.007  52.364  1.00  0.00     0.012 C 
ENDBRANCH   3  11
ENDBRANCH   1   2
BRANCH   1  13
HETATM   13  C6  UNL     1      25.890   1.820  52.066  1.00  0.00     0.045 A 
HETATM   14  C7  UNL     1      27.206   1.753  52.671  1.00  0.00     0.257 A 
HETATM   15  O1  UNL     1      28.343   2.249  52.551  1.00  0.00    -0.267 OA
HETATM   16  N1  UNL     1      27.178   0.821  53.748  1.00  0.00    -0.322 N 
HETATM   17  C8  UNL     1      25.848   0.326  53.795  1.00  0.00     0.046 A 
HETATM   18  H7  UNL     1      27.833   0.439  54.457  1.00  0.00     0.169 HD
HETATM   19  C9  UNL     1      25.120  -0.571  54.550  1.00  0.00     0.030 A 
HETATM   20  C13 UNL     1      25.063   0.892  52.820  1.00  0.00     0.006 A 
HETATM   21  C10 UNL     1      23.795  -0.899  54.403  1.00  0.00     0.002 A 
HETATM   22  C11 UNL     1      23.095  -0.276  53.394  1.00  0.00     0.001 A 
HETATM   23  C12 UNL     1      23.727   0.629  52.592  1.00  0.00     0.015 A 
ENDBRANCH   1  13
TORSDOF 3
ENDMDL
