MODEL 1
REMARK VINA RESULT:      -9.1      0.000      0.000
REMARK  6 active torsions:
REMARK  status: ('A' for Active; 'I' for Inactive)
REMARK    1  A    between atoms: C7_7  and  C8_8 
REMARK    2  A    between atoms: C8_8  and  C9_9 
REMARK    3  A    between atoms: C9_9  and  O1_10 
REMARK    4  A    between atoms: C11_13  and  O2_14 
REMARK    5  A    between atoms: O2_14  and  C12_15 
REMARK    6  A    between atoms: C12_15  and  C13_16 
ROOT
HETATM    1  C1  UNL     1      17.957  -1.059  53.042  1.00  0.00     0.045 C 
HETATM    2  C2  UNL     1      19.105  -0.210  52.609  1.00  0.00    -0.066 C 
HETATM    3  C3  UNL     1      19.030  -0.002  51.284  1.00  0.00     0.004 C 
HETATM    4  C4  UNL     1      19.963   0.782  50.438  1.00  0.00     0.003 C 
HETATM    5  C5  UNL     1      20.899   1.754  50.518  1.00  0.00    -0.072 C 
HETATM    6  C6  UNL     1      21.378   1.965  49.121  1.00  0.00     0.044 C 
HETATM    7  C7  UNL     1      21.277   2.375  51.810  1.00  0.00     0.086 C 
HETATM    8  C10 UNL     1      21.902   1.385  52.707  1.00  0.00     0.120 A 
HETATM    9  N1  UNL     1      23.228   1.540  52.586  1.00  0.00    -0.208 NA
HETATM   10  C11 UNL     1      24.049   0.729  53.314  1.00  0.00     0.194 A 
HETATM   11  C19 UNL     1      23.466  -0.212  54.143  1.00  0.00     0.154 A 
HETATM   12 CL1  UNL     1      24.442  -1.301  55.120  1.00  0.00    -0.074 Cl
HETATM   13  C20 UNL     1      22.087  -0.337  54.237  1.00  0.00     0.275 A 
HETATM   14  O3  UNL     1      21.590  -1.208  55.005  1.00  0.00    -0.266 OA
HETATM   15  N2  UNL     1      21.278   0.476  53.506  1.00  0.00    -0.296 N 
HETATM   16  C21 UNL     1      19.916   0.095  53.827  1.00  0.00     0.167 C 
ENDROOT
BRANCH  10  17
HETATM   17  O2  UNL     1      25.430   0.746  53.313  1.00  0.00    -0.328 OA
BRANCH  17  18
HETATM   18  C12 UNL     1      26.162   0.203  52.251  1.00  0.00     0.219 C 
BRANCH  18  19
HETATM   19  C13 UNL     1      27.447  -0.403  52.752  1.00  0.00     0.005 A 
HETATM   20  C14 UNL     1      28.411   0.463  53.282  1.00  0.00     0.015 A 
HETATM   21  C15 UNL     1      29.630   0.081  53.784  1.00  0.00     0.043 A 
HETATM   22  C16 UNL     1      29.925  -1.275  53.758  1.00  0.00     0.119 A 
HETATM   23  F1  UNL     1      31.124  -1.661  54.251  1.00  0.00    -0.206 F 
HETATM   24  C17 UNL     1      28.994  -2.154  53.242  1.00  0.00     0.085 A 
HETATM   25  C18 UNL     1      27.777  -1.738  52.745  1.00  0.00     0.127 A 
HETATM   26  F2  UNL     1      26.848  -2.577  52.233  1.00  0.00    -0.205 F 
ENDBRANCH  18  19
ENDBRANCH  17  18
ENDBRANCH  10  17
BRANCH   7  27
HETATM   27  C8  UNL     1      22.156   3.557  51.566  1.00  0.00     0.043 C 
BRANCH  27  28
HETATM   28  C9  UNL     1      21.424   4.868  51.711  1.00  0.00     0.165 C 
BRANCH  28  29
HETATM   29  O1  UNL     1      22.350   5.929  51.803  1.00  0.00    -0.401 OA
HETATM   30  H14 UNL     1      21.957   6.680  52.300  1.00  0.00     0.209 HD
ENDBRANCH  28  29
ENDBRANCH  27  28
ENDBRANCH   7  27
TORSDOF 6
ENDMDL
MODEL 2
REMARK VINA RESULT:      -8.8      1.293      1.678
REMARK  6 active torsions:
REMARK  status: ('A' for Active; 'I' for Inactive)
REMARK    1  A    between atoms: C7_7  and  C8_8 
REMARK    2  A    between atoms: C8_8  and  C9_9 
REMARK    3  A    between atoms: C9_9  and  O1_10 
REMARK    4  A    between atoms: C11_13  and  O2_14 
REMARK    5  A    between atoms: O2_14  and  C12_15 
REMARK    6  A    between atoms: C12_15  and  C13_16 
ROOT
HETATM    1  C1  UNL     1      17.719  -0.169  51.495  1.00  0.00     0.045 C 
HETATM    2  C2  UNL     1      19.042   0.499  51.325  1.00  0.00    -0.066 C 
HETATM    3  C3  UNL     1      19.295   0.659  50.015  1.00  0.00     0.004 C 
HETATM    4  C4  UNL     1      20.494   1.275  49.395  1.00  0.00     0.003 C 
HETATM    5  C5  UNL     1      21.515   2.114  49.676  1.00  0.00    -0.072 C 
HETATM    6  C6  UNL     1      22.319   2.201  48.421  1.00  0.00     0.044 C 
HETATM    7  C7  UNL     1      21.679   2.732  51.013  1.00  0.00     0.086 C 
HETATM    8  C10 UNL     1      21.942   1.706  52.039  1.00  0.00     0.120 A 
HETATM    9  N1  UNL     1      23.270   1.675  52.220  1.00  0.00    -0.208 NA
HETATM   10  C11 UNL     1      23.785   0.793  53.124  1.00  0.00     0.194 A 
HETATM   11  C19 UNL     1      22.906  -0.026  53.808  1.00  0.00     0.154 A 
HETATM   12 CL1  UNL     1      23.476  -1.194  54.993  1.00  0.00    -0.074 Cl
HETATM   13  C20 UNL     1      21.537   0.040  53.589  1.00  0.00     0.275 A 
HETATM   14  O3  UNL     1      20.764  -0.723  54.233  1.00  0.00    -0.266 OA
HETATM   15  N2  UNL     1      21.034   0.923  52.685  1.00  0.00    -0.296 N 
HETATM   16  C21 UNL     1      19.595   0.742  52.692  1.00  0.00     0.167 C 
ENDROOT
BRANCH  10  17
HETATM   17  O2  UNL     1      25.120   0.624  53.436  1.00  0.00    -0.328 OA
BRANCH  17  18
HETATM   18  C12 UNL     1      26.127   0.966  52.527  1.00  0.00     0.219 C 
BRANCH  18  19
HETATM   19  C13 UNL     1      27.453   0.408  52.973  1.00  0.00     0.005 A 
HETATM   20  C14 UNL     1      27.618  -0.982  52.936  1.00  0.00     0.015 A 
HETATM   21  C15 UNL     1      28.758  -1.655  53.301  1.00  0.00     0.043 A 
HETATM   22  C16 UNL     1      29.827  -0.889  53.745  1.00  0.00     0.119 A 
HETATM   23  F1  UNL     1      30.955  -1.544  54.106  1.00  0.00    -0.206 F 
HETATM   24  C17 UNL     1      29.694   0.484  53.792  1.00  0.00     0.085 A 
HETATM   25  C18 UNL     1      28.535   1.130  53.417  1.00  0.00     0.127 A 
HETATM   26  F2  UNL     1      28.379   2.473  53.455  1.00  0.00    -0.205 F 
ENDBRANCH  18  19
ENDBRANCH  17  18
ENDBRANCH  10  17
BRANCH   7  27
HETATM   27  C8  UNL     1      22.747   3.775  50.963  1.00  0.00     0.043 C 
BRANCH  27  28
HETATM   28  C9  UNL     1      22.614   4.800  52.061  1.00  0.00     0.165 C 
BRANCH  28  29
HETATM   29  O1  UNL     1      23.784   4.813  52.852  1.00  0.00    -0.401 OA
HETATM   30  H14 UNL     1      24.343   4.034  52.642  1.00  0.00     0.209 HD
ENDBRANCH  28  29
ENDBRANCH  27  28
ENDBRANCH   7  27
TORSDOF 6
ENDMDL
MODEL 3
REMARK VINA RESULT:      -8.8      1.908      2.273
REMARK  6 active torsions:
REMARK  status: ('A' for Active; 'I' for Inactive)
REMARK    1  A    between atoms: C7_7  and  C8_8 
REMARK    2  A    between atoms: C8_8  and  C9_9 
REMARK    3  A    between atoms: C9_9  and  O1_10 
REMARK    4  A    between atoms: C11_13  and  O2_14 
REMARK    5  A    between atoms: O2_14  and  C12_15 
REMARK    6  A    between atoms: C12_15  and  C13_16 
ROOT
HETATM    1  C1  UNL     1      17.775   0.908  50.591  1.00  0.00     0.045 C 
HETATM    2  C2  UNL     1      19.216   1.235  50.805  1.00  0.00    -0.066 C 
HETATM    3  C3  UNL     1      19.785   1.530  49.624  1.00  0.00     0.004 C 
HETATM    4  C4  UNL     1      21.197   1.909  49.372  1.00  0.00     0.003 C 
HETATM    5  C5  UNL     1      22.286   2.405  50.000  1.00  0.00    -0.072 C 
HETATM    6  C6  UNL     1      23.351   2.481  48.956  1.00  0.00     0.044 C 
HETATM    7  C7  UNL     1      22.276   2.740  51.443  1.00  0.00     0.086 C 
HETATM    8  C10 UNL     1      22.072   1.531  52.264  1.00  0.00     0.120 A 
HETATM    9  N1  UNL     1      23.287   1.135  52.670  1.00  0.00    -0.208 NA
HETATM   10  C11 UNL     1      23.382   0.018  53.449  1.00  0.00     0.194 A 
HETATM   11  C19 UNL     1      22.215  -0.647  53.778  1.00  0.00     0.154 A 
HETATM   12 CL1  UNL     1      22.237  -2.094  54.777  1.00  0.00    -0.074 Cl
HETATM   13  C20 UNL     1      20.979  -0.199  53.335  1.00  0.00     0.275 A 
HETATM   14  O3  UNL     1      19.934  -0.832  53.656  1.00  0.00    -0.266 OA
HETATM   15  N2  UNL     1      20.895   0.915  52.559  1.00  0.00    -0.296 N 
HETATM   16  C21 UNL     1      19.487   1.109  52.270  1.00  0.00     0.167 C 
ENDROOT
BRANCH  10  17
HETATM   17  O2  UNL     1      24.543  -0.533  53.954  1.00  0.00    -0.328 OA
BRANCH  17  18
HETATM   18  C12 UNL     1      25.641  -0.794  53.127  1.00  0.00     0.219 C 
BRANCH  18  19
HETATM   19  C13 UNL     1      26.769   0.158  53.432  1.00  0.00     0.005 A 
HETATM   20  C14 UNL     1      27.600  -0.145  54.517  1.00  0.00     0.015 A 
HETATM   21  C15 UNL     1      28.672   0.608  54.930  1.00  0.00     0.043 A 
HETATM   22  C16 UNL     1      28.945   1.762  54.208  1.00  0.00     0.119 A 
HETATM   23  F1  UNL     1      30.000   2.510  54.607  1.00  0.00    -0.206 F 
HETATM   24  C17 UNL     1      28.143   2.087  53.133  1.00  0.00     0.085 A 
HETATM   25  C18 UNL     1      27.074   1.308  52.743  1.00  0.00     0.127 A 
HETATM   26  F2  UNL     1      26.272   1.604  51.695  1.00  0.00    -0.205 F 
ENDBRANCH  18  19
ENDBRANCH  17  18
ENDBRANCH  10  17
BRANCH   7  27
HETATM   27  C8  UNL     1      23.528   3.470  51.804  1.00  0.00     0.043 C 
BRANCH  27  28
HETATM   28  C9  UNL     1      23.347   4.967  51.823  1.00  0.00     0.165 C 
BRANCH  28  29
HETATM   29  O1  UNL     1      23.790   5.491  53.056  1.00  0.00    -0.401 OA
HETATM   30  H14 UNL     1      24.547   4.964  53.395  1.00  0.00     0.209 HD
ENDBRANCH  28  29
ENDBRANCH  27  28
ENDBRANCH   7  27
TORSDOF 6
ENDMDL
MODEL 4
REMARK VINA RESULT:      -8.7      3.798      7.194
REMARK  6 active torsions:
REMARK  status: ('A' for Active; 'I' for Inactive)
REMARK    1  A    between atoms: C7_7  and  C8_8 
REMARK    2  A    between atoms: C8_8  and  C9_9 
REMARK    3  A    between atoms: C9_9  and  O1_10 
REMARK    4  A    between atoms: C11_13  and  O2_14 
REMARK    5  A    between atoms: O2_14  and  C12_15 
REMARK    6  A    between atoms: C12_15  and  C13_16 
ROOT
HETATM    1  C1  UNL     1      27.998   5.554  48.584  1.00  0.00     0.045 C 
HETATM    2  C2  UNL     1      26.640   5.044  48.934  1.00  0.00    -0.066 C 
HETATM    3  C3  UNL     1      25.734   6.014  48.733  1.00  0.00     0.004 C 
HETATM    4  C4  UNL     1      24.269   5.943  48.953  1.00  0.00     0.003 C 
HETATM    5  C5  UNL     1      23.260   5.051  49.066  1.00  0.00    -0.072 C 
HETATM    6  C6  UNL     1      22.029   5.865  49.291  1.00  0.00     0.044 C 
HETATM    7  C7  UNL     1      23.490   3.590  48.981  1.00  0.00     0.086 C 
HETATM    8  C10 UNL     1      24.332   3.122  50.099  1.00  0.00     0.120 A 
HETATM    9  N1  UNL     1      23.498   2.635  51.029  1.00  0.00    -0.208 NA
HETATM   10  C11 UNL     1      24.028   2.139  52.184  1.00  0.00     0.194 A 
HETATM   11  C19 UNL     1      25.402   2.165  52.334  1.00  0.00     0.154 A 
HETATM   12 CL1  UNL     1      26.176   1.549  53.788  1.00  0.00    -0.074 Cl
HETATM   13  C20 UNL     1      26.227   2.680  51.344  1.00  0.00     0.275 A 
HETATM   14  O3  UNL     1      27.479   2.688  51.516  1.00  0.00    -0.266 OA
HETATM   15  N2  UNL     1      25.689   3.172  50.196  1.00  0.00    -0.296 N 
HETATM   16  C21 UNL     1      26.801   3.627  49.383  1.00  0.00     0.167 C 
ENDROOT
BRANCH  10  17
HETATM   17  O2  UNL     1      23.325   1.602  53.244  1.00  0.00    -0.328 OA
BRANCH  17  18
HETATM   18  C12 UNL     1      23.020   0.237  53.297  1.00  0.00     0.219 C 
BRANCH  18  19
HETATM   19  C13 UNL     1      21.557   0.012  53.021  1.00  0.00     0.005 A 
HETATM   20  C14 UNL     1      21.061   0.415  51.776  1.00  0.00     0.015 A 
HETATM   21  C15 UNL     1      19.759   0.282  51.359  1.00  0.00     0.043 A 
HETATM   22  C16 UNL     1      18.869  -0.300  52.251  1.00  0.00     0.119 A 
HETATM   23  F1  UNL     1      17.584  -0.436  51.849  1.00  0.00    -0.206 F 
HETATM   24  C17 UNL     1      19.328  -0.708  53.486  1.00  0.00     0.085 A 
HETATM   25  C18 UNL     1      20.643  -0.560  53.875  1.00  0.00     0.127 A 
HETATM   26  F2  UNL     1      21.119  -0.951  55.080  1.00  0.00    -0.205 F 
ENDBRANCH  18  19
ENDBRANCH  17  18
ENDBRANCH  10  17
BRANCH   7  27
HETATM   27  C8  UNL     1      22.183   2.873  48.914  1.00  0.00     0.043 C 
BRANCH  27  28
HETATM   28  C9  UNL     1      22.139   1.839  47.815  1.00  0.00     0.165 C 
BRANCH  28  29
HETATM   29  O1  UNL     1      21.567   0.644  48.302  1.00  0.00    -0.401 OA
HETATM   30  H14 UNL     1      20.884   0.317  47.677  1.00  0.00     0.209 HD
ENDBRANCH  28  29
ENDBRANCH  27  28
ENDBRANCH   7  27
TORSDOF 6
ENDMDL
MODEL 5
REMARK VINA RESULT:      -8.5      4.456      5.436
REMARK  6 active torsions:
REMARK  status: ('A' for Active; 'I' for Inactive)
REMARK    1  A    between atoms: C7_7  and  C8_8 
REMARK    2  A    between atoms: C8_8  and  C9_9 
REMARK    3  A    between atoms: C9_9  and  O1_10 
REMARK    4  A    between atoms: C11_13  and  O2_14 
REMARK    5  A    between atoms: O2_14  and  C12_15 
REMARK    6  A    between atoms: C12_15  and  C13_16 
ROOT
HETATM    1  C1  UNL     1      21.694  -1.408  54.161  1.00  0.00     0.045 C 
HETATM    2  C2  UNL     1      22.019  -0.317  53.195  1.00  0.00    -0.066 C 
HETATM    3  C3  UNL     1      21.294  -0.482  52.077  1.00  0.00     0.004 C 
HETATM    4  C4  UNL     1      21.302   0.369  50.861  1.00  0.00     0.003 C 
HETATM    5  C5  UNL     1      21.628   1.611  50.444  1.00  0.00    -0.072 C 
HETATM    6  C6  UNL     1      21.302   1.644  48.988  1.00  0.00     0.044 C 
HETATM    7  C7  UNL     1      22.202   2.623  51.363  1.00  0.00     0.086 C 
HETATM    8  C10 UNL     1      23.525   2.196  51.857  1.00  0.00     0.120 A 
HETATM    9  N1  UNL     1      24.437   2.810  51.090  1.00  0.00    -0.208 NA
HETATM   10  C11 UNL     1      25.759   2.577  51.336  1.00  0.00     0.194 A 
HETATM   11  C19 UNL     1      26.088   1.716  52.367  1.00  0.00     0.154 A 
HETATM   12 CL1  UNL     1      27.764   1.355  52.758  1.00  0.00    -0.074 Cl
HETATM   13  C20 UNL     1      25.109   1.102  53.135  1.00  0.00     0.275 A 
HETATM   14  O3  UNL     1      25.447   0.322  54.069  1.00  0.00    -0.266 OA
HETATM   15  N2  UNL     1      23.794   1.341  52.881  1.00  0.00    -0.296 N 
HETATM   16  C21 UNL     1      23.042   0.559  53.844  1.00  0.00     0.167 C 
ENDROOT
BRANCH  10  17
HETATM   17  O2  UNL     1      26.829   3.119  50.650  1.00  0.00    -0.328 OA
BRANCH  17  18
HETATM   18  C12 UNL     1      26.774   3.327  49.268  1.00  0.00     0.219 C 
BRANCH  18  19
HETATM   19  C13 UNL     1      27.065   4.769  48.939  1.00  0.00     0.005 A 
HETATM   20  C14 UNL     1      28.346   5.083  48.472  1.00  0.00     0.015 A 
HETATM   21  C15 UNL     1      28.777   6.339  48.124  1.00  0.00     0.043 A 
HETATM   22  C16 UNL     1      27.863   7.376  48.249  1.00  0.00     0.119 A 
HETATM   23  F1  UNL     1      28.279   8.618  47.908  1.00  0.00    -0.206 F 
HETATM   24  C17 UNL     1      26.591   7.097  48.707  1.00  0.00     0.085 A 
HETATM   25  C18 UNL     1      26.189   5.823  49.049  1.00  0.00     0.127 A 
HETATM   26  F2  UNL     1      24.950   5.523  49.501  1.00  0.00    -0.205 F 
ENDBRANCH  18  19
ENDBRANCH  17  18
ENDBRANCH  10  17
BRANCH   7  27
HETATM   27  C8  UNL     1      22.249   3.954  50.687  1.00  0.00     0.043 C 
BRANCH  27  28
HETATM   28  C9  UNL     1      21.595   5.044  51.500  1.00  0.00     0.165 C 
BRANCH  28  29
HETATM   29  O1  UNL     1      22.540   6.047  51.807  1.00  0.00    -0.401 OA
HETATM   30  H14 UNL     1      23.385   5.872  51.339  1.00  0.00     0.209 HD
ENDBRANCH  28  29
ENDBRANCH  27  28
ENDBRANCH   7  27
TORSDOF 6
ENDMDL
MODEL 6
REMARK VINA RESULT:      -8.2      4.157      7.096
REMARK  6 active torsions:
REMARK  status: ('A' for Active; 'I' for Inactive)
REMARK    1  A    between atoms: C7_7  and  C8_8 
REMARK    2  A    between atoms: C8_8  and  C9_9 
REMARK    3  A    between atoms: C9_9  and  O1_10 
REMARK    4  A    between atoms: C11_13  and  O2_14 
REMARK    5  A    between atoms: O2_14  and  C12_15 
REMARK    6  A    between atoms: C12_15  and  C13_16 
ROOT
HETATM    1  C1  UNL     1      28.731   5.375  48.387  1.00  0.00     0.045 C 
HETATM    2  C2  UNL     1      27.254   5.423  48.594  1.00  0.00    -0.066 C 
HETATM    3  C3  UNL     1      26.808   6.664  48.342  1.00  0.00     0.004 C 
HETATM    4  C4  UNL     1      25.411   7.157  48.424  1.00  0.00     0.003 C 
HETATM    5  C5  UNL     1      24.134   6.717  48.415  1.00  0.00    -0.072 C 
HETATM    6  C6  UNL     1      23.288   7.939  48.552  1.00  0.00     0.044 C 
HETATM    7  C7  UNL     1      23.800   5.278  48.304  1.00  0.00     0.086 C 
HETATM    8  C10 UNL     1      24.288   4.531  49.479  1.00  0.00     0.120 A 
HETATM    9  N1  UNL     1      23.245   4.402  50.312  1.00  0.00    -0.208 NA
HETATM   10  C11 UNL     1      23.433   3.748  51.494  1.00  0.00     0.194 A 
HETATM   11  C19 UNL     1      24.693   3.250  51.771  1.00  0.00     0.154 A 
HETATM   12 CL1  UNL     1      25.030   2.392  53.269  1.00  0.00    -0.074 Cl
HETATM   13  C20 UNL     1      25.743   3.406  50.878  1.00  0.00     0.275 A 
HETATM   14  O3  UNL     1      26.881   2.938  51.164  1.00  0.00    -0.266 OA
HETATM   15  N2  UNL     1      25.546   4.061  49.702  1.00  0.00    -0.296 N 
HETATM   16  C21 UNL     1      26.821   4.054  49.010  1.00  0.00     0.167 C 
ENDROOT
BRANCH  10  17
HETATM   17  O2  UNL     1      22.479   3.524  52.468  1.00  0.00    -0.328 OA
BRANCH  17  18
HETATM   18  C12 UNL     1      21.362   2.719  52.219  1.00  0.00     0.219 C 
BRANCH  18  19
HETATM   19  C13 UNL     1      21.561   1.346  52.806  1.00  0.00     0.005 A 
HETATM   20  C14 UNL     1      20.959   1.073  54.040  1.00  0.00     0.015 A 
HETATM   21  C15 UNL     1      21.033  -0.121  54.714  1.00  0.00     0.043 A 
HETATM   22  C16 UNL     1      21.770  -1.135  54.117  1.00  0.00     0.119 A 
HETATM   23  F1  UNL     1      21.848  -2.316  54.772  1.00  0.00    -0.206 F 
HETATM   24  C17 UNL     1      22.375  -0.897  52.900  1.00  0.00     0.085 A 
HETATM   25  C18 UNL     1      22.280   0.315  52.248  1.00  0.00     0.127 A 
HETATM   26  F2  UNL     1      22.864   0.575  51.056  1.00  0.00    -0.205 F 
ENDBRANCH  18  19
ENDBRANCH  17  18
ENDBRANCH  10  17
BRANCH   7  27
HETATM   27  C8  UNL     1      22.331   5.112  48.094  1.00  0.00     0.043 C 
BRANCH  27  28
HETATM   28  C9  UNL     1      21.997   4.505  46.754  1.00  0.00     0.165 C 
BRANCH  28  29
HETATM   29  O1  UNL     1      22.294   5.422  45.722  1.00  0.00    -0.401 OA
HETATM   30  H14 UNL     1      23.123   5.161  45.265  1.00  0.00     0.209 HD
ENDBRANCH  28  29
ENDBRANCH  27  28
ENDBRANCH   7  27
TORSDOF 6
ENDMDL
MODEL 7
REMARK VINA RESULT:      -8.1      1.736      2.283
REMARK  6 active torsions:
REMARK  status: ('A' for Active; 'I' for Inactive)
REMARK    1  A    between atoms: C7_7  and  C8_8 
REMARK    2  A    between atoms: C8_8  and  C9_9 
REMARK    3  A    between atoms: C9_9  and  O1_10 
REMARK    4  A    between atoms: C11_13  and  O2_14 
REMARK    5  A    between atoms: O2_14  and  C12_15 
REMARK    6  A    between atoms: C12_15  and  C13_16 
ROOT
HETATM    1  C1  UNL     1      18.008   2.985  50.735  1.00  0.00     0.045 C 
HETATM    2  C2  UNL     1      19.488   3.159  50.819  1.00  0.00    -0.066 C 
HETATM    3  C3  UNL     1      19.966   3.506  49.613  1.00  0.00     0.004 C 
HETATM    4  C4  UNL     1      21.377   3.776  49.244  1.00  0.00     0.003 C 
HETATM    5  C5  UNL     1      22.566   4.112  49.790  1.00  0.00    -0.072 C 
HETATM    6  C6  UNL     1      23.526   4.184  48.649  1.00  0.00     0.044 C 
HETATM    7  C7  UNL     1      22.731   4.315  51.249  1.00  0.00     0.086 C 
HETATM    8  C10 UNL     1      22.489   3.061  51.986  1.00  0.00     0.120 A 
HETATM    9  N1  UNL     1      23.691   2.520  52.228  1.00  0.00    -0.208 NA
HETATM   10  C11 UNL     1      23.750   1.334  52.900  1.00  0.00     0.194 A 
HETATM   11  C19 UNL     1      22.560   0.751  53.297  1.00  0.00     0.154 A 
HETATM   12 CL1  UNL     1      22.535  -0.777  54.168  1.00  0.00    -0.074 Cl
HETATM   13  C20 UNL     1      21.338   1.348  53.025  1.00  0.00     0.275 A 
HETATM   14  O3  UNL     1      20.271   0.786  53.404  1.00  0.00    -0.266 OA
HETATM   15  N2  UNL     1      21.290   2.530  52.354  1.00  0.00    -0.296 N 
HETATM   16  C21 UNL     1      19.887   2.877  52.232  1.00  0.00     0.167 C 
ENDROOT
BRANCH  10  17
HETATM   17  O2  UNL     1      24.894   0.635  53.233  1.00  0.00    -0.328 OA
BRANCH  17  18
HETATM   18  C12 UNL     1      25.521  -0.212  52.313  1.00  0.00     0.219 C 
BRANCH  18  19
HETATM   19  C13 UNL     1      26.914  -0.553  52.774  1.00  0.00     0.005 A 
HETATM   20  C14 UNL     1      27.659   0.457  53.396  1.00  0.00     0.015 A 
HETATM   21  C15 UNL     1      28.937   0.318  53.878  1.00  0.00     0.043 A 
HETATM   22  C16 UNL     1      29.533  -0.928  53.732  1.00  0.00     0.119 A 
HETATM   23  F1  UNL     1      30.791  -1.074  54.205  1.00  0.00    -0.206 F 
HETATM   24  C17 UNL     1      28.823  -1.943  53.124  1.00  0.00     0.085 A 
HETATM   25  C18 UNL     1      27.540  -1.771  52.650  1.00  0.00     0.127 A 
HETATM   26  F2  UNL     1      26.823  -2.749  52.049  1.00  0.00    -0.205 F 
ENDBRANCH  18  19
ENDBRANCH  17  18
ENDBRANCH  10  17
BRANCH   7  27
HETATM   27  C8  UNL     1      24.079   4.892  51.532  1.00  0.00     0.043 C 
BRANCH  27  28
HETATM   28  C9  UNL     1      24.116   6.392  51.381  1.00  0.00     0.165 C 
BRANCH  28  29
HETATM   29  O1  UNL     1      22.830   6.931  51.607  1.00  0.00    -0.401 OA
HETATM   30  H14 UNL     1      22.379   6.439  52.326  1.00  0.00     0.209 HD
ENDBRANCH  28  29
ENDBRANCH  27  28
ENDBRANCH   7  27
TORSDOF 6
ENDMDL
MODEL 8
REMARK VINA RESULT:      -7.7     10.037     13.455
REMARK  6 active torsions:
REMARK  status: ('A' for Active; 'I' for Inactive)
REMARK    1  A    between atoms: C7_7  and  C8_8 
REMARK    2  A    between atoms: C8_8  and  C9_9 
REMARK    3  A    between atoms: C9_9  and  O1_10 
REMARK    4  A    between atoms: C11_13  and  O2_14 
REMARK    5  A    between atoms: O2_14  and  C12_15 
REMARK    6  A    between atoms: C12_15  and  C13_16 
ROOT
HETATM    1  C1  UNL     1      34.710   7.020  42.212  1.00  0.00     0.045 C 
HETATM    2  C2  UNL     1      34.315   6.549  43.572  1.00  0.00    -0.066 C 
HETATM    3  C3  UNL     1      34.654   5.256  43.712  1.00  0.00     0.004 C 
HETATM    4  C4  UNL     1      34.446   4.391  44.898  1.00  0.00     0.003 C 
HETATM    5  C5  UNL     1      34.232   4.458  46.230  1.00  0.00    -0.072 C 
HETATM    6  C6  UNL     1      34.132   3.042  46.693  1.00  0.00     0.044 C 
HETATM    7  C7  UNL     1      34.123   5.753  46.944  1.00  0.00     0.086 C 
HETATM    8  C10 UNL     1      32.942   6.509  46.486  1.00  0.00     0.120 A 
HETATM    9  N1  UNL     1      31.968   6.277  47.377  1.00  0.00    -0.208 NA
HETATM   10  C11 UNL     1      30.751   6.861  47.181  1.00  0.00     0.194 A 
HETATM   11  C19 UNL     1      30.587   7.664  46.068  1.00  0.00     0.154 A 
HETATM   12 CL1  UNL     1      29.054   8.459  45.731  1.00  0.00    -0.074 Cl
HETATM   13  C20 UNL     1      31.624   7.877  45.171  1.00  0.00     0.275 A 
HETATM   14  O3  UNL     1      31.437   8.619  44.165  1.00  0.00    -0.266 OA
HETATM   15  N2  UNL     1      32.833   7.290  45.376  1.00  0.00    -0.296 N 
HETATM   16  C21 UNL     1      33.683   7.706  44.276  1.00  0.00     0.167 C 
ENDROOT
BRANCH  10  17
HETATM   17  O2  UNL     1      29.639   6.732  47.990  1.00  0.00    -0.328 OA
BRANCH  17  18
HETATM   18  C12 UNL     1      29.052   5.484  48.224  1.00  0.00     0.219 C 
BRANCH  18  19
HETATM   19  C13 UNL     1      27.598   5.643  48.583  1.00  0.00     0.005 A 
HETATM   20  C14 UNL     1      27.055   6.933  48.537  1.00  0.00     0.015 A 
HETATM   21  C15 UNL     1      25.752   7.256  48.828  1.00  0.00     0.043 A 
HETATM   22  C16 UNL     1      24.913   6.215  49.199  1.00  0.00     0.119 A 
HETATM   23  F1  UNL     1      23.628   6.524  49.486  1.00  0.00    -0.206 F 
HETATM   24  C17 UNL     1      25.419   4.932  49.253  1.00  0.00     0.085 A 
HETATM   25  C18 UNL     1      26.734   4.640  48.954  1.00  0.00     0.127 A 
HETATM   26  F2  UNL     1      27.255   3.393  49.001  1.00  0.00    -0.205 F 
ENDBRANCH  18  19
ENDBRANCH  17  18
ENDBRANCH  10  17
BRANCH   7  27
HETATM   27  C8  UNL     1      34.114   5.520  48.419  1.00  0.00     0.043 C 
BRANCH  27  28
HETATM   28  C9  UNL     1      35.431   5.858  49.071  1.00  0.00     0.165 C 
BRANCH  28  29
HETATM   29  O1  UNL     1      35.768   4.867  50.019  1.00  0.00    -0.401 OA
HETATM   30  H14 UNL     1      35.081   4.821  50.718  1.00  0.00     0.209 HD
ENDBRANCH  28  29
ENDBRANCH  27  28
ENDBRANCH   7  27
TORSDOF 6
ENDMDL
MODEL 9
REMARK VINA RESULT:      -7.7      4.256      6.047
REMARK  6 active torsions:
REMARK  status: ('A' for Active; 'I' for Inactive)
REMARK    1  A    between atoms: C7_7  and  C8_8 
REMARK    2  A    between atoms: C8_8  and  C9_9 
REMARK    3  A    between atoms: C9_9  and  O1_10 
REMARK    4  A    between atoms: C11_13  and  O2_14 
REMARK    5  A    between atoms: O2_14  and  C12_15 
REMARK    6  A    between atoms: C12_15  and  C13_16 
ROOT
HETATM    1  C1  UNL     1      20.650   6.751  47.004  1.00  0.00     0.045 C 
HETATM    2  C2  UNL     1      21.997   6.709  47.645  1.00  0.00    -0.066 C 
HETATM    3  C3  UNL     1      22.907   7.226  46.803  1.00  0.00     0.004 C 
HETATM    4  C4  UNL     1      24.365   7.379  47.031  1.00  0.00     0.003 C 
HETATM    5  C5  UNL     1      25.278   7.440  48.024  1.00  0.00    -0.072 C 
HETATM    6  C6  UNL     1      26.597   7.615  47.347  1.00  0.00     0.044 C 
HETATM    7  C7  UNL     1      24.895   7.323  49.451  1.00  0.00     0.086 C 
HETATM    8  C10 UNL     1      24.336   5.989  49.739  1.00  0.00     0.120 A 
HETATM    9  N1  UNL     1      25.334   5.259  50.257  1.00  0.00    -0.208 NA
HETATM   10  C11 UNL     1      25.082   3.964  50.607  1.00  0.00     0.194 A 
HETATM   11  C19 UNL     1      23.804   3.474  50.409  1.00  0.00     0.154 A 
HETATM   12 CL1  UNL     1      23.384   1.819  50.830  1.00  0.00    -0.074 Cl
HETATM   13  C20 UNL     1      22.801   4.267  49.871  1.00  0.00     0.275 A 
HETATM   14  O3  UNL     1      21.645   3.785  49.705  1.00  0.00    -0.266 OA
HETATM   15  N2  UNL     1      23.064   5.556  49.524  1.00  0.00    -0.296 N 
HETATM   16  C21 UNL     1      21.825   6.100  48.999  1.00  0.00     0.167 C 
ENDROOT
BRANCH  10  17
HETATM   17  O2  UNL     1      25.984   3.071  51.149  1.00  0.00    -0.328 OA
BRANCH  17  18
HETATM   18  C12 UNL     1      25.911   2.690  52.493  1.00  0.00     0.219 C 
BRANCH  18  19
HETATM   19  C13 UNL     1      26.842   1.538  52.767  1.00  0.00     0.005 A 
HETATM   20  C14 UNL     1      26.376   0.247  52.494  1.00  0.00     0.015 A 
HETATM   21  C15 UNL     1      27.090  -0.911  52.681  1.00  0.00     0.043 A 
HETATM   22  C16 UNL     1      28.378  -0.782  53.182  1.00  0.00     0.119 A 
HETATM   23  F1  UNL     1      29.090  -1.917  53.368  1.00  0.00    -0.206 F 
HETATM   24  C17 UNL     1      28.866   0.478  53.460  1.00  0.00     0.085 A 
HETATM   25  C18 UNL     1      28.123   1.622  53.261  1.00  0.00     0.127 A 
HETATM   26  F2  UNL     1      28.577   2.869  53.527  1.00  0.00    -0.205 F 
ENDBRANCH  18  19
ENDBRANCH  17  18
ENDBRANCH  10  17
BRANCH   7  27
HETATM   27  C8  UNL     1      26.065   7.651  50.319  1.00  0.00     0.043 C 
BRANCH  27  28
HETATM   28  C9  UNL     1      26.467   9.102  50.234  1.00  0.00     0.165 C 
BRANCH  28  29
HETATM   29  O1  UNL     1      27.464   9.382  51.194  1.00  0.00    -0.401 OA
HETATM   30  H14 UNL     1      27.408  10.321  51.476  1.00  0.00     0.209 HD
ENDBRANCH  28  29
ENDBRANCH  27  28
ENDBRANCH   7  27
TORSDOF 6
ENDMDL
