MODEL 1
REMARK VINA RESULT:      -9.2      0.000      0.000
REMARK  4 active torsions:
REMARK  status: ('A' for Active; 'I' for Inactive)
REMARK    1  A    between atoms: C2_2  and  C3_3 
REMARK       I    between atoms: C3_3  and  N1_5 
REMARK    2  A    between atoms: N1_5  and  C4_6 
REMARK    3  A    between atoms: C10_14  and  C11_15 
REMARK    4  A    between atoms: C23_28  and  O2_29 
ROOT
HETATM    1  C4  UNL     1      25.399   2.423  51.381  1.00  0.00     0.046 C 
HETATM    2  C5  UNL     1      26.572   1.723  51.092  1.00  0.00     0.063 C 
HETATM    3  C6  UNL     1      27.287   1.396  52.314  1.00  0.00     0.190 A 
HETATM    4  N2  UNL     1      28.505   2.051  52.636  1.00  0.00    -0.241 NA
HETATM    5  C7  UNL     1      28.392   2.651  53.753  1.00  0.00     0.230 A 
HETATM    6  N3  UNL     1      27.076   2.491  54.336  1.00  0.00    -0.242 NA
HETATM    7  C8  UNL     1      26.404   1.751  53.486  1.00  0.00     0.096 A 
HETATM    8  C9  UNL     1      24.980   1.294  53.437  1.00  0.00    -0.001 C 
HETATM    9  C10 UNL     1      24.363   0.136  53.886  1.00  0.00     0.038 A 
HETATM   10  C17 UNL     1      25.664  -0.588  54.158  1.00  0.00     0.023 A 
HETATM   11  C18 UNL     1      25.260  -1.038  52.879  1.00  0.00     0.060 A 
HETATM   12  C19 UNL     1      26.238  -1.168  51.938  1.00  0.00    -0.014 A 
HETATM   13  C20 UNL     1      26.668  -0.729  53.166  1.00  0.00     0.047 A 
HETATM   14  C21 UNL     1      27.079  -0.299  54.378  1.00  0.00     0.051 A 
HETATM   15  C22 UNL     1      26.087  -0.159  55.361  1.00  0.00    -0.031 A 
HETATM   16  N4  UNL     1      27.689  -0.038  52.361  1.00  0.00    -0.375 N 
HETATM   17  C23 UNL     1      24.457   2.428  52.552  1.00  0.00     0.202 C 
HETATM   18  H18 UNL     1      28.589  -0.243  51.833  1.00  0.00     0.157 HD
ENDROOT
BRANCH   1  19
HETATM   19  N1  UNL     1      25.026   3.320  50.301  1.00  0.00    -0.328 N 
HETATM   20  C3  UNL     1      23.799   3.444  49.628  1.00  0.00     0.221 C 
HETATM   21  O1  UNL     1      22.693   2.869  49.724  1.00  0.00    -0.273 OA
HETATM   22  H6  UNL     1      25.842   3.919  50.053  1.00  0.00     0.168 HD
BRANCH  20  23
HETATM   23  C2  UNL     1      23.753   4.482  48.543  1.00  0.00     0.098 C 
HETATM   24  C1  UNL     1      24.686   5.616  48.869  1.00  0.00     0.014 C 
ENDBRANCH  20  23
ENDBRANCH   1  19
BRANCH  17  25
HETATM   25  O2  UNL     1      24.678   3.593  53.256  1.00  0.00    -0.380 OA
HETATM   26  C24 UNL     1      23.616   4.487  53.172  1.00  0.00     0.202 C 
ENDBRANCH  17  25
BRANCH   9  27
HETATM   27  C11 UNL     1      22.990  -0.339  53.883  1.00  0.00    -0.043 A 
HETATM   28  C12 UNL     1      22.227   0.292  52.894  1.00  0.00     0.008 A 
HETATM   29  C13 UNL     1      20.900  -0.046  52.767  1.00  0.00     0.001 A 
HETATM   30  C14 UNL     1      20.438  -0.999  53.650  1.00  0.00     0.000 A 
HETATM   31  C15 UNL     1      21.140  -1.652  54.641  1.00  0.00     0.001 A 
HETATM   32  C16 UNL     1      22.466  -1.282  54.733  1.00  0.00     0.008 A 
ENDBRANCH   9  27
TORSDOF 4
ENDMDL
MODEL 2
REMARK VINA RESULT:      -8.7      3.180      6.060
REMARK  4 active torsions:
REMARK  status: ('A' for Active; 'I' for Inactive)
REMARK    1  A    between atoms: C2_2  and  C3_3 
REMARK       I    between atoms: C3_3  and  N1_5 
REMARK    2  A    between atoms: N1_5  and  C4_6 
REMARK    3  A    between atoms: C10_14  and  C11_15 
REMARK    4  A    between atoms: C23_28  and  O2_29 
ROOT
HETATM    1  C4  UNL     1      25.032   6.220  50.577  1.00  0.00     0.046 C 
HETATM    2  C5  UNL     1      23.715   6.595  50.851  1.00  0.00     0.063 C 
HETATM    3  C6  UNL     1      22.784   5.812  50.057  1.00  0.00     0.190 A 
HETATM    4  N2  UNL     1      22.066   6.409  48.987  1.00  0.00    -0.241 NA
HETATM    5  C7  UNL     1      22.332   5.807  47.898  1.00  0.00     0.230 A 
HETATM    6  N3  UNL     1      23.276   4.724  48.081  1.00  0.00    -0.242 NA
HETATM    7  C8  UNL     1      23.560   4.719  49.363  1.00  0.00     0.096 A 
HETATM    8  C9  UNL     1      24.519   3.924  50.190  1.00  0.00    -0.001 C 
HETATM    9  C10 UNL     1      24.367   2.752  50.915  1.00  0.00     0.038 A 
HETATM   10  C17 UNL     1      22.858   2.745  50.805  1.00  0.00     0.023 A 
HETATM   11  C18 UNL     1      23.126   3.323  52.068  1.00  0.00     0.060 A 
HETATM   12  C19 UNL     1      22.359   4.392  52.428  1.00  0.00    -0.014 A 
HETATM   13  C20 UNL     1      22.070   3.858  51.196  1.00  0.00     0.047 A 
HETATM   14  C21 UNL     1      21.794   3.324  49.987  1.00  0.00     0.051 A 
HETATM   15  C22 UNL     1      22.573   2.223  49.599  1.00  0.00    -0.031 A 
HETATM   16  N4  UNL     1      21.683   5.244  50.886  1.00  0.00    -0.375 N 
HETATM   17  C23 UNL     1      25.672   4.931  50.144  1.00  0.00     0.202 C 
HETATM   18  H18 UNL     1      20.889   5.929  51.062  1.00  0.00     0.157 HD
ENDROOT
BRANCH   1  19
HETATM   19  N1  UNL     1      25.959   7.321  50.769  1.00  0.00    -0.328 N 
HETATM   20  C3  UNL     1      26.382   8.301  49.856  1.00  0.00     0.221 C 
HETATM   21  O1  UNL     1      26.122   8.542  48.656  1.00  0.00    -0.273 OA
HETATM   22  H6  UNL     1      26.312   7.307  51.750  1.00  0.00     0.168 HD
BRANCH  20  23
HETATM   23  C2  UNL     1      27.364   9.306  50.386  1.00  0.00     0.098 C 
HETATM   24  C1  UNL     1      28.594   9.338  49.520  1.00  0.00     0.014 C 
ENDBRANCH  20  23
ENDBRANCH   1  19
BRANCH  17  25
HETATM   25  O2  UNL     1      26.010   5.061  48.814  1.00  0.00    -0.380 OA
HETATM   26  C24 UNL     1      27.378   4.949  48.588  1.00  0.00     0.202 C 
ENDBRANCH  17  25
BRANCH   9  27
HETATM   27  C11 UNL     1      25.269   1.935  51.709  1.00  0.00    -0.043 A 
HETATM   28  C12 UNL     1      24.623   0.807  52.229  1.00  0.00     0.008 A 
HETATM   29  C13 UNL     1      25.344  -0.065  53.010  1.00  0.00     0.001 A 
HETATM   30  C14 UNL     1      26.668   0.264  53.210  1.00  0.00     0.000 A 
HETATM   31  C15 UNL     1      27.355   1.357  52.725  1.00  0.00     0.001 A 
HETATM   32  C16 UNL     1      26.595   2.205  51.948  1.00  0.00     0.008 A 
ENDBRANCH   9  27
TORSDOF 4
ENDMDL
MODEL 3
REMARK VINA RESULT:      -8.5      2.753      7.289
REMARK  4 active torsions:
REMARK  status: ('A' for Active; 'I' for Inactive)
REMARK    1  A    between atoms: C2_2  and  C3_3 
REMARK       I    between atoms: C3_3  and  N1_5 
REMARK    2  A    between atoms: N1_5  and  C4_6 
REMARK    3  A    between atoms: C10_14  and  C11_15 
REMARK    4  A    between atoms: C23_28  and  O2_29 
ROOT
HETATM    1  C4  UNL     1      22.700   1.675  51.446  1.00  0.00     0.046 C 
HETATM    2  C5  UNL     1      21.767   1.134  50.558  1.00  0.00     0.063 C 
HETATM    3  C6  UNL     1      20.844   2.157  50.097  1.00  0.00     0.190 A 
HETATM    4  N2  UNL     1      19.492   2.159  50.530  1.00  0.00    -0.241 NA
HETATM    5  C7  UNL     1      19.229   3.253  51.124  1.00  0.00     0.230 A 
HETATM    6  N3  UNL     1      20.373   4.138  51.185  1.00  0.00    -0.242 NA
HETATM    7  C8  UNL     1      21.346   3.496  50.582  1.00  0.00     0.096 A 
HETATM    8  C9  UNL     1      22.796   3.803  50.377  1.00  0.00    -0.001 C 
HETATM    9  C10 UNL     1      23.473   4.420  49.336  1.00  0.00     0.038 A 
HETATM   10  C17 UNL     1      22.288   4.392  48.396  1.00  0.00     0.023 A 
HETATM   11  C18 UNL     1      23.059   3.261  48.040  1.00  0.00     0.060 A 
HETATM   12  C19 UNL     1      22.373   2.117  47.757  1.00  0.00    -0.014 A 
HETATM   13  C20 UNL     1      21.591   3.193  48.098  1.00  0.00     0.047 A 
HETATM   14  C21 UNL     1      20.834   4.259  48.435  1.00  0.00     0.051 A 
HETATM   15  C22 UNL     1      21.521   5.446  48.730  1.00  0.00    -0.031 A 
HETATM   16  N4  UNL     1      20.693   2.147  48.615  1.00  0.00    -0.375 N 
HETATM   17  C23 UNL     1      23.316   3.037  51.596  1.00  0.00     0.202 C 
HETATM   18  H18 UNL     1      19.995   1.425  48.265  1.00  0.00     0.157 HD
ENDROOT
BRANCH   1  19
HETATM   19  N1  UNL     1      23.164   0.691  52.407  1.00  0.00    -0.328 N 
HETATM   20  C3  UNL     1      22.518   0.183  53.547  1.00  0.00     0.221 C 
HETATM   21  O1  UNL     1      21.406   0.390  54.081  1.00  0.00    -0.273 OA
HETATM   22  H6  UNL     1      24.118   0.369  52.138  1.00  0.00     0.168 HD
BRANCH  20  23
HETATM   23  C2  UNL     1      23.292  -0.835  54.336  1.00  0.00     0.098 C 
HETATM   24  C1  UNL     1      24.769  -0.617  54.157  1.00  0.00     0.014 C 
ENDBRANCH  20  23
ENDBRANCH   1  19
BRANCH  17  25
HETATM   25  O2  UNL     1      22.738   3.635  52.696  1.00  0.00    -0.380 OA
HETATM   26  C24 UNL     1      23.449   4.741  53.149  1.00  0.00     0.202 C 
ENDBRANCH  17  25
BRANCH   9  27
HETATM   27  C11 UNL     1      24.867   4.760  49.104  1.00  0.00    -0.043 A 
HETATM   28  C12 UNL     1      25.009   6.079  48.656  1.00  0.00     0.008 A 
HETATM   29  C13 UNL     1      26.272   6.551  48.386  1.00  0.00     0.001 A 
HETATM   30  C14 UNL     1      27.303   5.657  48.587  1.00  0.00     0.000 A 
HETATM   31  C15 UNL     1      27.222   4.352  49.025  1.00  0.00     0.001 A 
HETATM   32  C16 UNL     1      25.938   3.919  49.284  1.00  0.00     0.008 A 
ENDBRANCH   9  27
TORSDOF 4
ENDMDL
MODEL 4
REMARK VINA RESULT:      -8.2      2.808      5.491
REMARK  4 active torsions:
REMARK  status: ('A' for Active; 'I' for Inactive)
REMARK    1  A    between atoms: C2_2  and  C3_3 
REMARK       I    between atoms: C3_3  and  N1_5 
REMARK    2  A    between atoms: N1_5  and  C4_6 
REMARK    3  A    between atoms: C10_14  and  C11_15 
REMARK    4  A    between atoms: C23_28  and  O2_29 
ROOT
HETATM    1  C4  UNL     1      24.042   5.035  50.649  1.00  0.00     0.046 C 
HETATM    2  C5  UNL     1      22.700   5.420  50.630  1.00  0.00     0.063 C 
HETATM    3  C6  UNL     1      21.910   4.486  49.846  1.00  0.00     0.190 A 
HETATM    4  N2  UNL     1      21.383   4.866  48.584  1.00  0.00    -0.241 NA
HETATM    5  C7  UNL     1      21.824   4.088  47.679  1.00  0.00     0.230 A 
HETATM    6  N3  UNL     1      22.719   3.079  48.205  1.00  0.00    -0.242 NA
HETATM    7  C8  UNL     1      22.785   3.307  49.496  1.00  0.00     0.096 A 
HETATM    8  C9  UNL     1      23.590   2.695  50.599  1.00  0.00    -0.001 C 
HETATM    9  C10 UNL     1      23.314   1.665  51.485  1.00  0.00     0.038 A 
HETATM   10  C17 UNL     1      21.844   1.601  51.131  1.00  0.00     0.023 A 
HETATM   11  C18 UNL     1      21.901   2.400  52.297  1.00  0.00     0.060 A 
HETATM   12  C19 UNL     1      21.089   3.496  52.329  1.00  0.00    -0.014 A 
HETATM   13  C20 UNL     1      21.007   2.745  51.182  1.00  0.00     0.047 A 
HETATM   14  C21 UNL     1      20.935   1.999  50.059  1.00  0.00     0.051 A 
HETATM   15  C22 UNL     1      21.762   0.867  50.006  1.00  0.00    -0.031 A 
HETATM   16  N4  UNL     1      20.684   4.045  50.570  1.00  0.00    -0.375 N 
HETATM   17  C23 UNL     1      24.739   3.707  50.565  1.00  0.00     0.202 C 
HETATM   18  H18 UNL     1      19.874   4.729  50.488  1.00  0.00     0.157 HD
ENDROOT
BRANCH   1  19
HETATM   19  N1  UNL     1      24.929   6.176  50.792  1.00  0.00    -0.328 N 
HETATM   20  C3  UNL     1      25.470   7.015  49.804  1.00  0.00     0.221 C 
HETATM   21  O1  UNL     1      25.377   7.062  48.558  1.00  0.00    -0.273 OA
HETATM   22  H6  UNL     1      25.143   6.322  51.802  1.00  0.00     0.168 HD
BRANCH  20  23
HETATM   23  C2  UNL     1      26.365   8.114  50.300  1.00  0.00     0.098 C 
HETATM   24  C1  UNL     1      27.394   8.457  49.258  1.00  0.00     0.014 C 
ENDBRANCH  20  23
ENDBRANCH   1  19
BRANCH  17  25
HETATM   25  O2  UNL     1      25.295   3.609  49.307  1.00  0.00    -0.380 OA
HETATM   26  C24 UNL     1      26.675   3.443  49.335  1.00  0.00     0.202 C 
ENDBRANCH  17  25
BRANCH   9  27
HETATM   27  C11 UNL     1      24.067   1.024  52.549  1.00  0.00    -0.043 A 
HETATM   28  C12 UNL     1      25.224   1.745  52.870  1.00  0.00     0.008 A 
HETATM   29  C13 UNL     1      26.049   1.262  53.858  1.00  0.00     0.001 A 
HETATM   30  C14 UNL     1      25.647   0.085  54.453  1.00  0.00     0.000 A 
HETATM   31  C15 UNL     1      24.523  -0.665  54.179  1.00  0.00     0.001 A 
HETATM   32  C16 UNL     1      23.724  -0.145  53.182  1.00  0.00     0.008 A 
ENDBRANCH   9  27
TORSDOF 4
ENDMDL
MODEL 5
REMARK VINA RESULT:      -7.8      9.619     11.619
REMARK  4 active torsions:
REMARK  status: ('A' for Active; 'I' for Inactive)
REMARK    1  A    between atoms: C2_2  and  C3_3 
REMARK       I    between atoms: C3_3  and  N1_5 
REMARK    2  A    between atoms: N1_5  and  C4_6 
REMARK    3  A    between atoms: C10_14  and  C11_15 
REMARK    4  A    between atoms: C23_28  and  O2_29 
ROOT
HETATM    1  C4  UNL     1      33.907   6.310  45.420  1.00  0.00     0.046 C 
HETATM    2  C5  UNL     1      34.119   5.126  46.129  1.00  0.00     0.063 C 
HETATM    3  C6  UNL     1      34.101   5.375  47.561  1.00  0.00     0.190 A 
HETATM    4  N2  UNL     1      35.297   5.305  48.322  1.00  0.00    -0.241 NA
HETATM    5  C7  UNL     1      35.515   6.422  48.890  1.00  0.00     0.230 A 
HETATM    6  N3  UNL     1      34.499   7.406  48.582  1.00  0.00    -0.242 NA
HETATM    7  C8  UNL     1      33.652   6.799  47.785  1.00  0.00     0.096 A 
HETATM    8  C9  UNL     1      32.441   7.264  47.040  1.00  0.00    -0.001 C 
HETATM    9  C10 UNL     1      31.093   7.253  47.365  1.00  0.00     0.038 A 
HETATM   10  C17 UNL     1      31.274   6.355  48.570  1.00  0.00     0.023 A 
HETATM   11  C18 UNL     1      30.885   5.484  47.526  1.00  0.00     0.060 A 
HETATM   12  C19 UNL     1      31.529   4.284  47.457  1.00  0.00    -0.014 A 
HETATM   13  C20 UNL     1      31.932   5.103  48.484  1.00  0.00     0.047 A 
HETATM   14  C21 UNL     1      32.321   5.916  49.489  1.00  0.00     0.051 A 
HETATM   15  C22 UNL     1      31.670   7.156  49.576  1.00  0.00    -0.031 A 
HETATM   16  N4  UNL     1      33.220   4.416  48.284  1.00  0.00    -0.375 N 
HETATM   17  C23 UNL     1      33.151   7.575  45.719  1.00  0.00     0.202 C 
HETATM   18  H18 UNL     1      33.690   3.486  48.497  1.00  0.00     0.157 HD
ENDROOT
BRANCH   1  19
HETATM   19  N1  UNL     1      34.553   6.285  44.121  1.00  0.00    -0.328 N 
HETATM   20  C3  UNL     1      34.189   5.588  42.956  1.00  0.00     0.221 C 
HETATM   21  O1  UNL     1      33.252   4.812  42.665  1.00  0.00    -0.273 OA
HETATM   22  H6  UNL     1      35.397   6.896  44.143  1.00  0.00     0.168 HD
BRANCH  20  23
HETATM   23  C2  UNL     1      35.090   5.783  41.771  1.00  0.00     0.098 C 
HETATM   24  C1  UNL     1      36.287   6.608  42.158  1.00  0.00     0.014 C 
ENDBRANCH  20  23
ENDBRANCH   1  19
BRANCH  17  25
HETATM   25  O2  UNL     1      34.078   8.554  46.007  1.00  0.00    -0.380 OA
HETATM   26  C24 UNL     1      33.676   9.819  45.593  1.00  0.00     0.202 C 
ENDBRANCH  17  25
BRANCH   9  27
HETATM   27  C11 UNL     1      29.891   7.712  46.689  1.00  0.00    -0.043 A 
HETATM   28  C12 UNL     1      28.783   7.704  47.544  1.00  0.00     0.008 A 
HETATM   29  C13 UNL     1      27.565   8.108  47.050  1.00  0.00     0.001 A 
HETATM   30  C14 UNL     1      27.553   8.492  45.725  1.00  0.00     0.000 A 
HETATM   31  C15 UNL     1      28.610   8.520  44.839  1.00  0.00     0.001 A 
HETATM   32  C16 UNL     1      29.811   8.107  45.376  1.00  0.00     0.008 A 
ENDBRANCH   9  27
TORSDOF 4
ENDMDL
MODEL 6
REMARK VINA RESULT:      -7.7      8.924     12.086
REMARK  4 active torsions:
REMARK  status: ('A' for Active; 'I' for Inactive)
REMARK    1  A    between atoms: C2_2  and  C3_3 
REMARK       I    between atoms: C3_3  and  N1_5 
REMARK    2  A    between atoms: N1_5  and  C4_6 
REMARK    3  A    between atoms: C10_14  and  C11_15 
REMARK    4  A    between atoms: C23_28  and  O2_29 
ROOT
HETATM    1  C4  UNL     1      32.426   8.046  47.414  1.00  0.00     0.046 C 
HETATM    2  C5  UNL     1      32.985   7.433  48.537  1.00  0.00     0.063 C 
HETATM    3  C6  UNL     1      32.471   6.083  48.694  1.00  0.00     0.190 A 
HETATM    4  N2  UNL     1      31.574   5.769  49.749  1.00  0.00    -0.241 NA
HETATM    5  C7  UNL     1      30.483   5.324  49.271  1.00  0.00     0.230 A 
HETATM    6  N3  UNL     1      30.487   5.285  47.824  1.00  0.00    -0.242 NA
HETATM    7  C8  UNL     1      31.664   5.741  47.465  1.00  0.00     0.096 A 
HETATM    8  C9  UNL     1      32.278   6.041  46.134  1.00  0.00    -0.001 C 
HETATM    9  C10 UNL     1      33.071   5.281  45.287  1.00  0.00     0.038 A 
HETATM   10  C17 UNL     1      33.321   4.194  46.310  1.00  0.00     0.023 A 
HETATM   11  C18 UNL     1      34.456   5.034  46.389  1.00  0.00     0.060 A 
HETATM   12  C19 UNL     1      34.938   5.298  47.638  1.00  0.00    -0.014 A 
HETATM   13  C20 UNL     1      33.835   4.480  47.601  1.00  0.00     0.047 A 
HETATM   14  C21 UNL     1      32.751   3.676  47.552  1.00  0.00     0.051 A 
HETATM   15  C22 UNL     1      32.241   3.393  46.276  1.00  0.00    -0.031 A 
HETATM   16  N4  UNL     1      33.561   5.091  48.912  1.00  0.00    -0.375 N 
HETATM   17  C23 UNL     1      31.915   7.528  46.099  1.00  0.00     0.202 C 
HETATM   18  H18 UNL     1      33.888   5.036  49.923  1.00  0.00     0.157 HD
ENDROOT
BRANCH   1  19
HETATM   19  N1  UNL     1      32.343   9.487  47.570  1.00  0.00    -0.328 N 
HETATM   20  C3  UNL     1      31.321  10.266  48.139  1.00  0.00     0.221 C 
HETATM   21  O1  UNL     1      30.218  10.002  48.666  1.00  0.00    -0.273 OA
HETATM   22  H6  UNL     1      33.204   9.926  47.179  1.00  0.00     0.168 HD
BRANCH  20  23
HETATM   23  C2  UNL     1      31.555  11.750  48.137  1.00  0.00     0.098 C 
HETATM   24  C1  UNL     1      30.601  12.427  49.082  1.00  0.00     0.014 C 
ENDBRANCH  20  23
ENDBRANCH   1  19
BRANCH  17  25
HETATM   25  O2  UNL     1      30.538   7.584  46.139  1.00  0.00    -0.380 OA
HETATM   26  C24 UNL     1      29.995   8.321  45.091  1.00  0.00     0.202 C 
ENDBRANCH  17  25
BRANCH   9  27
HETATM   27  C11 UNL     1      33.666   5.518  43.983  1.00  0.00    -0.043 A 
HETATM   28  C12 UNL     1      33.396   4.472  43.093  1.00  0.00     0.008 A 
HETATM   29  C13 UNL     1      33.897   4.546  41.815  1.00  0.00     0.001 A 
HETATM   30  C14 UNL     1      34.638   5.673  41.526  1.00  0.00     0.000 A 
HETATM   31  C15 UNL     1      34.936   6.731  42.359  1.00  0.00     0.001 A 
HETATM   32  C16 UNL     1      34.414   6.616  43.631  1.00  0.00     0.008 A 
ENDBRANCH   9  27
TORSDOF 4
ENDMDL
MODEL 7
REMARK VINA RESULT:      -7.6      3.786      6.983
REMARK  4 active torsions:
REMARK  status: ('A' for Active; 'I' for Inactive)
REMARK    1  A    between atoms: C2_2  and  C3_3 
REMARK       I    between atoms: C3_3  and  N1_5 
REMARK    2  A    between atoms: N1_5  and  C4_6 
REMARK    3  A    between atoms: C10_14  and  C11_15 
REMARK    4  A    between atoms: C23_28  and  O2_29 
ROOT
HETATM    1  C4  UNL     1      21.151   4.658  49.156  1.00  0.00     0.046 C 
HETATM    2  C5  UNL     1      20.778   4.511  50.494  1.00  0.00     0.063 C 
HETATM    3  C6  UNL     1      21.332   3.288  51.050  1.00  0.00     0.190 A 
HETATM    4  N2  UNL     1      20.492   2.184  51.348  1.00  0.00    -0.241 NA
HETATM    5  C7  UNL     1      20.867   1.163  50.687  1.00  0.00     0.230 A 
HETATM    6  N3  UNL     1      22.008   1.441  49.841  1.00  0.00    -0.242 NA
HETATM    7  C8  UNL     1      22.293   2.706  50.041  1.00  0.00     0.096 A 
HETATM    8  C9  UNL     1      23.289   3.636  49.423  1.00  0.00    -0.001 C 
HETATM    9  C10 UNL     1      24.578   3.991  49.791  1.00  0.00     0.038 A 
HETATM   10  C17 UNL     1      24.488   3.346  51.156  1.00  0.00     0.023 A 
HETATM   11  C18 UNL     1      24.199   4.712  51.382  1.00  0.00     0.060 A 
HETATM   12  C19 UNL     1      23.193   4.988  52.260  1.00  0.00    -0.014 A 
HETATM   13  C20 UNL     1      23.445   3.652  52.067  1.00  0.00     0.047 A 
HETATM   14  C21 UNL     1      23.701   2.341  51.868  1.00  0.00     0.051 A 
HETATM   15  C22 UNL     1      24.734   2.037  50.968  1.00  0.00    -0.031 A 
HETATM   16  N4  UNL     1      22.007   3.524  52.358  1.00  0.00    -0.375 N 
HETATM   17  C23 UNL     1      22.352   4.223  48.363  1.00  0.00     0.202 C 
HETATM   18  H18 UNL     1      21.336   3.541  53.183  1.00  0.00     0.157 HD
ENDROOT
BRANCH   1  19
HETATM   19  N1  UNL     1      20.161   5.400  48.397  1.00  0.00    -0.328 N 
HETATM   20  C3  UNL     1      18.917   4.976  47.900  1.00  0.00     0.221 C 
HETATM   21  O1  UNL     1      18.287   3.896  47.939  1.00  0.00    -0.273 OA
HETATM   22  H6  UNL     1      20.501   6.373  48.246  1.00  0.00     0.168 HD
BRANCH  20  23
HETATM   23  C2  UNL     1      18.131   6.009  47.143  1.00  0.00     0.098 C 
HETATM   24  C1  UNL     1      18.805   7.350  47.244  1.00  0.00     0.014 C 
ENDBRANCH  20  23
ENDBRANCH   1  19
BRANCH  17  25
HETATM   25  O2  UNL     1      21.964   3.164  47.570  1.00  0.00    -0.380 OA
HETATM   26  C24 UNL     1      21.961   3.475  46.214  1.00  0.00     0.202 C 
ENDBRANCH  17  25
BRANCH   9  27
HETATM   27  C11 UNL     1      25.585   4.866  49.213  1.00  0.00    -0.043 A 
HETATM   28  C12 UNL     1      26.837   4.244  49.156  1.00  0.00     0.008 A 
HETATM   29  C13 UNL     1      27.900   4.946  48.638  1.00  0.00     0.001 A 
HETATM   30  C14 UNL     1      27.621   6.228  48.214  1.00  0.00     0.000 A 
HETATM   31  C15 UNL     1      26.412   6.890  48.245  1.00  0.00     0.001 A 
HETATM   32  C16 UNL     1      25.374   6.149  48.772  1.00  0.00     0.008 A 
ENDBRANCH   9  27
TORSDOF 4
ENDMDL
MODEL 8
REMARK VINA RESULT:      -7.4      4.621      8.478
REMARK  4 active torsions:
REMARK  status: ('A' for Active; 'I' for Inactive)
REMARK    1  A    between atoms: C2_2  and  C3_3 
REMARK       I    between atoms: C3_3  and  N1_5 
REMARK    2  A    between atoms: N1_5  and  C4_6 
REMARK    3  A    between atoms: C10_14  and  C11_15 
REMARK    4  A    between atoms: C23_28  and  O2_29 
ROOT
HETATM    1  C4  UNL     1      21.635   4.471  49.803  1.00  0.00     0.046 C 
HETATM    2  C5  UNL     1      20.792   4.934  48.791  1.00  0.00     0.063 C 
HETATM    3  C6  UNL     1      20.771   6.386  48.766  1.00  0.00     0.190 A 
HETATM    4  N2  UNL     1      19.618   7.100  49.187  1.00  0.00    -0.241 NA
HETATM    5  C7  UNL     1      19.914   7.870  50.155  1.00  0.00     0.230 A 
HETATM    6  N3  UNL     1      21.310   7.775  50.530  1.00  0.00    -0.242 NA
HETATM    7  C8  UNL     1      21.832   6.889  49.715  1.00  0.00     0.096 A 
HETATM    8  C9  UNL     1      23.190   6.268  49.620  1.00  0.00    -0.001 C 
HETATM    9  C10 UNL     1      24.313   6.606  48.880  1.00  0.00     0.038 A 
HETATM   10  C17 UNL     1      23.583   7.612  48.017  1.00  0.00     0.023 A 
HETATM   11  C18 UNL     1      23.608   6.426  47.248  1.00  0.00     0.060 A 
HETATM   12  C19 UNL     1      22.470   6.116  46.562  1.00  0.00    -0.014 A 
HETATM   13  C20 UNL     1      22.409   7.275  47.298  1.00  0.00     0.047 A 
HETATM   14  C21 UNL     1      22.360   8.411  48.024  1.00  0.00     0.051 A 
HETATM   15  C22 UNL     1      23.522   8.747  48.737  1.00  0.00    -0.031 A 
HETATM   16  N4  UNL     1      20.981   6.925  47.393  1.00  0.00    -0.375 N 
HETATM   17  C23 UNL     1      22.875   5.021  50.450  1.00  0.00     0.202 C 
HETATM   18  H18 UNL     1      20.095   6.947  46.806  1.00  0.00     0.157 HD
ENDROOT
BRANCH   1  19
HETATM   19  N1  UNL     1      21.208   3.180  50.313  1.00  0.00    -0.328 N 
HETATM   20  C3  UNL     1      20.347   2.884  51.384  1.00  0.00     0.221 C 
HETATM   21  O1  UNL     1      19.703   3.580  52.199  1.00  0.00    -0.273 OA
HETATM   22  H6  UNL     1      21.649   2.423  49.749  1.00  0.00     0.168 HD
BRANCH  20  23
HETATM   23  C2  UNL     1      20.118   1.424  51.651  1.00  0.00     0.098 C 
HETATM   24  C1  UNL     1      21.000   0.588  50.764  1.00  0.00     0.014 C 
ENDBRANCH  20  23
ENDBRANCH   1  19
BRANCH  17  25
HETATM   25  O2  UNL     1      22.523   5.477  51.702  1.00  0.00    -0.380 OA
HETATM   26  C24 UNL     1      23.260   4.884  52.722  1.00  0.00     0.202 C 
ENDBRANCH  17  25
BRANCH   9  27
HETATM   27  C11 UNL     1      25.653   6.052  48.774  1.00  0.00    -0.043 A 
HETATM   28  C12 UNL     1      26.558   6.984  48.253  1.00  0.00     0.008 A 
HETATM   29  C13 UNL     1      27.870   6.608  48.086  1.00  0.00     0.001 A 
HETATM   30  C14 UNL     1      28.174   5.315  48.456  1.00  0.00     0.000 A 
HETATM   31  C15 UNL     1      27.327   4.356  48.972  1.00  0.00     0.001 A 
HETATM   32  C16 UNL     1      26.022   4.776  49.123  1.00  0.00     0.008 A 
ENDBRANCH   9  27
TORSDOF 4
ENDMDL
MODEL 9
REMARK VINA RESULT:      -7.4      9.433     12.052
REMARK  4 active torsions:
REMARK  status: ('A' for Active; 'I' for Inactive)
REMARK    1  A    between atoms: C2_2  and  C3_3 
REMARK       I    between atoms: C3_3  and  N1_5 
REMARK    2  A    between atoms: N1_5  and  C4_6 
REMARK    3  A    between atoms: C10_14  and  C11_15 
REMARK    4  A    between atoms: C23_28  and  O2_29 
ROOT
HETATM    1  C4  UNL     1      32.836   8.913  45.911  1.00  0.00     0.046 C 
HETATM    2  C5  UNL     1      32.329   9.704  46.945  1.00  0.00     0.063 C 
HETATM    3  C6  UNL     1      30.944   9.362  47.220  1.00  0.00     0.190 A 
HETATM    4  N2  UNL     1      29.897  10.254  46.873  1.00  0.00    -0.241 NA
HETATM    5  C7  UNL     1      29.092   9.686  46.068  1.00  0.00     0.230 A 
HETATM    6  N3  UNL     1      29.491   8.330  45.753  1.00  0.00    -0.242 NA
HETATM    7  C8  UNL     1      30.598   8.125  46.427  1.00  0.00     0.096 A 
HETATM    8  C9  UNL     1      31.561   6.981  46.481  1.00  0.00    -0.001 C 
HETATM    9  C10 UNL     1      31.649   5.883  47.323  1.00  0.00     0.038 A 
HETATM   10  C17 UNL     1      30.632   6.414  48.310  1.00  0.00     0.023 A 
HETATM   11  C18 UNL     1      31.887   6.760  48.862  1.00  0.00     0.060 A 
HETATM   12  C19 UNL     1      31.988   7.998  49.426  1.00  0.00    -0.014 A 
HETATM   13  C20 UNL     1      30.756   7.698  48.900  1.00  0.00     0.047 A 
HETATM   14  C21 UNL     1      29.548   7.391  48.380  1.00  0.00     0.051 A 
HETATM   15  C22 UNL     1      29.424   6.122  47.795  1.00  0.00    -0.031 A 
HETATM   16  N4  UNL     1      30.698   9.152  48.675  1.00  0.00    -0.375 N 
HETATM   17  C23 UNL     1      32.538   7.520  45.432  1.00  0.00     0.202 C 
HETATM   18  H18 UNL     1      30.535  10.055  49.212  1.00  0.00     0.157 HD
ENDROOT
BRANCH   1  19
HETATM   19  N1  UNL     1      33.874   9.601  45.165  1.00  0.00    -0.328 N 
HETATM   20  C3  UNL     1      33.754  10.504  44.095  1.00  0.00     0.221 C 
HETATM   21  O1  UNL     1      32.785  10.987  43.469  1.00  0.00    -0.273 OA
HETATM   22  H6  UNL     1      34.807   9.330  45.541  1.00  0.00     0.168 HD
BRANCH  20  23
HETATM   23  C2  UNL     1      35.046  11.035  43.542  1.00  0.00     0.098 C 
HETATM   24  C1  UNL     1      36.177  10.102  43.879  1.00  0.00     0.014 C 
ENDBRANCH  20  23
ENDBRANCH   1  19
BRANCH  17  25
HETATM   25  O2  UNL     1      31.818   7.629  44.262  1.00  0.00    -0.380 OA
HETATM   26  C24 UNL     1      32.379   6.911  43.211  1.00  0.00     0.202 C 
ENDBRANCH  17  25
BRANCH   9  27
HETATM   27  C11 UNL     1      32.545   4.742  47.398  1.00  0.00    -0.043 A 
HETATM   28  C12 UNL     1      31.916   3.562  46.982  1.00  0.00     0.008 A 
HETATM   29  C13 UNL     1      32.634   2.390  47.001  1.00  0.00     0.001 A 
HETATM   30  C14 UNL     1      33.938   2.491  47.440  1.00  0.00     0.000 A 
HETATM   31  C15 UNL     1      34.607   3.622  47.860  1.00  0.00     0.001 A 
HETATM   32  C16 UNL     1      33.851   4.774  47.825  1.00  0.00     0.008 A 
ENDBRANCH   9  27
TORSDOF 4
ENDMDL
