MODEL 1
REMARK VINA RESULT:      -8.8      0.000      0.000
REMARK  5 active torsions:
REMARK  status: ('A' for Active; 'I' for Inactive)
REMARK    1  A    between atoms: O1_2  and  C2_3 
REMARK    2  A    between atoms: C11_14  and  N3_15 
REMARK       I    between atoms: N3_15  and  C12_16 
REMARK    3  A    between atoms: C12_16  and  C13_18 
REMARK    4  A    between atoms: C14_19  and  C15_20 
REMARK    5  A    between atoms: C15_20  and  N4_21 
ROOT
HETATM    1  C2  UNL     1      21.521   4.195  52.124  1.00  0.00     0.097 A 
HETATM    2  C3  UNL     1      21.388   5.457  51.590  1.00  0.00     0.071 A 
HETATM    3  C4  UNL     1      22.503   6.052  51.100  1.00  0.00     0.072 A 
HETATM    4  N1  UNL     1      22.403   7.327  50.552  1.00  0.00    -0.248 NA
HETATM    5  C5  UNL     1      23.547   7.855  50.099  1.00  0.00     0.092 A 
HETATM    6  C6  UNL     1      24.840   7.526  50.011  1.00  0.00     0.099 A 
HETATM    7  C7  UNL     1      25.949   8.270  49.624  1.00  0.00     0.104 C 
HETATM    8  N2  UNL     1      26.865   8.899  49.318  1.00  0.00    -0.191 NA
HETATM    9  C8  UNL     1      24.839   6.269  50.548  1.00  0.00     0.064 A 
HETATM   10  C9  UNL     1      23.809   5.535  51.066  1.00  0.00     0.023 A 
HETATM   11  C10 UNL     1      23.913   4.250  51.616  1.00  0.00     0.048 A 
HETATM   12  C11 UNL     1      22.793   3.610  52.126  1.00  0.00     0.069 A 
HETATM   13  N5  UNL     1      25.981   5.399  50.373  1.00  0.00    -0.384 N 
HETATM   14  C20 UNL     1      25.882   5.591  48.895  1.00  0.00     0.148 C 
HETATM   15  C21 UNL     1      24.421   5.796  48.514  1.00  0.00     0.012 C 
HETATM   16  C22 UNL     1      23.448   6.661  48.025  1.00  0.00     0.012 C 
HETATM   17 CL1  UNL     1      21.712   6.385  47.731  1.00  0.00    -0.089 Cl
HETATM   18  C23 UNL     1      23.829   8.111  47.730  1.00  0.00     0.095 C 
HETATM   19  C24 UNL     1      23.295   8.896  49.009  1.00  0.00     0.228 C 
HETATM   20  F1  UNL     1      22.030   9.265  48.874  1.00  0.00    -0.242 F 
HETATM   21  H19 UNL     1      26.326   5.065  51.261  1.00  0.00     0.160 HD
ENDROOT
BRANCH  12  22
HETATM   22  N3  UNL     1      23.060   2.312  52.645  1.00  0.00    -0.321 N 
HETATM   23  C12 UNL     1      22.986   0.966  52.254  1.00  0.00     0.245 C 
HETATM   24  O2  UNL     1      22.549   0.874  51.105  1.00  0.00    -0.268 OA
HETATM   25  H6  UNL     1      23.387   2.631  53.582  1.00  0.00     0.169 HD
BRANCH  23  26
HETATM   26  C13 UNL     1      23.388  -0.126  53.130  1.00  0.00     0.072 C 
HETATM   27  C14 UNL     1      24.562  -0.568  53.540  1.00  0.00     0.008 C 
BRANCH  27  28
HETATM   28  C15 UNL     1      26.021  -0.512  53.574  1.00  0.00     0.300 C 
BRANCH  28  29
HETATM   29  N4  UNL     1      26.585   0.530  54.374  1.00  0.00     0.091 N 
HETATM   30  C16 UNL     1      26.472   1.827  53.833  1.00  0.00     0.273 C 
HETATM   31  C17 UNL     1      27.781   1.973  53.059  1.00  0.00     0.032 C 
HETATM   32  C18 UNL     1      28.812   1.150  53.808  1.00  0.00     0.032 C 
HETATM   33  C19 UNL     1      27.952   0.281  54.708  1.00  0.00     0.273 C 
ENDBRANCH  28  29
ENDBRANCH  27  28
ENDBRANCH  23  26
ENDBRANCH  12  22
BRANCH   1  34
HETATM   34  O1  UNL     1      20.530   3.404  52.676  1.00  0.00    -0.354 OA
HETATM   35  C1  UNL     1      19.527   2.884  51.832  1.00  0.00     0.210 C 
ENDBRANCH   1  34
TORSDOF 5
ENDMDL
MODEL 2
REMARK VINA RESULT:      -8.5      2.065      2.831
REMARK  5 active torsions:
REMARK  status: ('A' for Active; 'I' for Inactive)
REMARK    1  A    between atoms: O1_2  and  C2_3 
REMARK    2  A    between atoms: C11_14  and  N3_15 
REMARK       I    between atoms: N3_15  and  C12_16 
REMARK    3  A    between atoms: C12_16  and  C13_18 
REMARK    4  A    between atoms: C14_19  and  C15_20 
REMARK    5  A    between atoms: C15_20  and  N4_21 
ROOT
HETATM    1  C2  UNL     1      20.479   1.246  51.462  1.00  0.00     0.097 A 
HETATM    2  C3  UNL     1      20.161   2.284  50.616  1.00  0.00     0.071 A 
HETATM    3  C4  UNL     1      20.966   3.376  50.633  1.00  0.00     0.072 A 
HETATM    4  N1  UNL     1      20.673   4.443  49.790  1.00  0.00    -0.248 NA
HETATM    5  C5  UNL     1      21.505   5.490  49.869  1.00  0.00     0.092 A 
HETATM    6  C6  UNL     1      22.590   5.860  50.556  1.00  0.00     0.099 A 
HETATM    7  C7  UNL     1      23.268   7.074  50.612  1.00  0.00     0.104 C 
HETATM    8  N2  UNL     1      23.812   8.088  50.666  1.00  0.00    -0.191 NA
HETATM    9  C8  UNL     1      22.812   4.758  51.333  1.00  0.00     0.064 A 
HETATM   10  C9  UNL     1      22.109   3.589  51.421  1.00  0.00     0.023 A 
HETATM   11  C10 UNL     1      22.407   2.515  52.270  1.00  0.00     0.048 A 
HETATM   12  C11 UNL     1      21.607   1.381  52.280  1.00  0.00     0.069 A 
HETATM   13  N5  UNL     1      24.074   4.588  52.017  1.00  0.00    -0.384 N 
HETATM   14  C20 UNL     1      24.786   4.751  50.714  1.00  0.00     0.148 C 
HETATM   15  C21 UNL     1      23.909   4.203  49.594  1.00  0.00     0.012 C 
HETATM   16  C22 UNL     1      23.153   4.475  48.459  1.00  0.00     0.012 C 
HETATM   17 CL1  UNL     1      22.240   3.370  47.398  1.00  0.00    -0.089 Cl
HETATM   18  C23 UNL     1      22.972   5.928  48.022  1.00  0.00     0.095 C 
HETATM   19  C24 UNL     1      21.523   6.296  48.571  1.00  0.00     0.228 C 
HETATM   20  F1  UNL     1      20.569   5.981  47.707  1.00  0.00    -0.242 F 
HETATM   21  H19 UNL     1      23.938   4.445  53.007  1.00  0.00     0.160 HD
ENDROOT
BRANCH  12  22
HETATM   22  N3  UNL     1      22.041   0.379  53.193  1.00  0.00    -0.321 N 
HETATM   23  C12 UNL     1      21.679  -0.169  54.433  1.00  0.00     0.245 C 
HETATM   24  O2  UNL     1      20.675   0.393  54.876  1.00  0.00    -0.268 OA
HETATM   25  H6  UNL     1      22.867   0.071  52.636  1.00  0.00     0.169 HD
BRANCH  23  26
HETATM   26  C13 UNL     1      22.425  -1.254  55.056  1.00  0.00     0.072 C 
HETATM   27  C14 UNL     1      23.700  -1.414  55.358  1.00  0.00     0.008 C 
BRANCH  27  28
HETATM   28  C15 UNL     1      25.084  -0.951  55.398  1.00  0.00     0.300 C 
BRANCH  28  29
HETATM   29  N4  UNL     1      25.492  -0.113  54.314  1.00  0.00     0.091 N 
HETATM   30  C16 UNL     1      25.410  -0.705  53.038  1.00  0.00     0.273 C 
HETATM   31  C17 UNL     1      26.809  -1.292  52.860  1.00  0.00     0.032 C 
HETATM   32  C18 UNL     1      27.753  -0.379  53.621  1.00  0.00     0.032 C 
HETATM   33  C19 UNL     1      26.805   0.418  54.500  1.00  0.00     0.273 C 
ENDBRANCH  28  29
ENDBRANCH  27  28
ENDBRANCH  23  26
ENDBRANCH  12  22
BRANCH   1  34
HETATM   34  O1  UNL     1      19.808   0.046  51.614  1.00  0.00    -0.354 OA
HETATM   35  C1  UNL     1      18.456   0.070  52.015  1.00  0.00     0.210 C 
ENDBRANCH   1  34
TORSDOF 5
ENDMDL
MODEL 3
REMARK VINA RESULT:      -8.1      4.437      7.019
REMARK  5 active torsions:
REMARK  status: ('A' for Active; 'I' for Inactive)
REMARK    1  A    between atoms: O1_2  and  C2_3 
REMARK    2  A    between atoms: C11_14  and  N3_15 
REMARK       I    between atoms: N3_15  and  C12_16 
REMARK    3  A    between atoms: C12_16  and  C13_18 
REMARK    4  A    between atoms: C14_19  and  C15_20 
REMARK    5  A    between atoms: C15_20  and  N4_21 
ROOT
HETATM    1  C2  UNL     1      25.298   6.618  48.089  1.00  0.00     0.097 A 
HETATM    2  C3  UNL     1      24.018   6.118  48.175  1.00  0.00     0.071 A 
HETATM    3  C4  UNL     1      23.811   5.065  49.003  1.00  0.00     0.072 A 
HETATM    4  N1  UNL     1      22.529   4.535  49.114  1.00  0.00    -0.248 NA
HETATM    5  C5  UNL     1      22.403   3.490  49.943  1.00  0.00     0.092 A 
HETATM    6  C6  UNL     1      23.173   2.741  50.738  1.00  0.00     0.099 A 
HETATM    7  C7  UNL     1      22.897   1.574  51.444  1.00  0.00     0.104 C 
HETATM    8  N2  UNL     1      22.665   0.598  52.011  1.00  0.00    -0.191 NA
HETATM    9  C8  UNL     1      24.392   3.338  50.581  1.00  0.00     0.064 A 
HETATM   10  C9  UNL     1      24.757   4.402  49.804  1.00  0.00     0.023 A 
HETATM   11  C10 UNL     1      26.048   4.934  49.695  1.00  0.00     0.048 A 
HETATM   12  C11 UNL     1      26.298   6.012  48.858  1.00  0.00     0.069 A 
HETATM   13  N5  UNL     1      25.471   3.050  51.500  1.00  0.00    -0.384 N 
HETATM   14  C20 UNL     1      24.583   3.429  52.640  1.00  0.00     0.148 C 
HETATM   15  C21 UNL     1      23.615   4.512  52.179  1.00  0.00     0.012 C 
HETATM   16  C22 UNL     1      22.299   4.866  51.900  1.00  0.00     0.012 C 
HETATM   17 CL1  UNL     1      21.623   6.417  51.342  1.00  0.00    -0.089 Cl
HETATM   18  C23 UNL     1      21.210   3.798  52.000  1.00  0.00     0.095 C 
HETATM   19  C24 UNL     1      20.980   3.368  50.484  1.00  0.00     0.228 C 
HETATM   20  F1  UNL     1      20.087   4.136  49.879  1.00  0.00    -0.242 F 
HETATM   21  H19 UNL     1      26.296   2.738  51.009  1.00  0.00     0.160 HD
ENDROOT
BRANCH  12  22
HETATM   22  N3  UNL     1      27.656   6.438  48.859  1.00  0.00    -0.321 N 
HETATM   23  C12 UNL     1      28.929   5.956  48.521  1.00  0.00     0.245 C 
HETATM   24  O2  UNL     1      28.854   4.802  48.094  1.00  0.00    -0.268 OA
HETATM   25  H6  UNL     1      27.475   7.386  49.255  1.00  0.00     0.169 HD
BRANCH  23  26
HETATM   26  C13 UNL     1      30.135   6.758  48.673  1.00  0.00     0.072 C 
HETATM   27  C14 UNL     1      31.414   6.452  48.787  1.00  0.00     0.008 C 
BRANCH  27  28
HETATM   28  C15 UNL     1      32.508   5.488  48.857  1.00  0.00     0.300 C 
BRANCH  28  29
HETATM   29  N4  UNL     1      32.952   4.958  47.605  1.00  0.00     0.091 N 
HETATM   30  C16 UNL     1      32.289   3.789  47.181  1.00  0.00     0.273 C 
HETATM   31  C17 UNL     1      33.181   2.685  47.747  1.00  0.00     0.032 C 
HETATM   32  C18 UNL     1      34.593   3.241  47.754  1.00  0.00     0.032 C 
HETATM   33  C19 UNL     1      34.362   4.732  47.579  1.00  0.00     0.273 C 
ENDBRANCH  28  29
ENDBRANCH  27  28
ENDBRANCH  23  26
ENDBRANCH  12  22
BRANCH   1  34
HETATM   34  O1  UNL     1      25.739   7.678  47.316  1.00  0.00    -0.354 OA
HETATM   35  C1  UNL     1      24.936   8.116  46.243  1.00  0.00     0.210 C 
ENDBRANCH   1  34
TORSDOF 5
ENDMDL
MODEL 4
REMARK VINA RESULT:      -8.0      2.295      3.288
REMARK  5 active torsions:
REMARK  status: ('A' for Active; 'I' for Inactive)
REMARK    1  A    between atoms: O1_2  and  C2_3 
REMARK    2  A    between atoms: C11_14  and  N3_15 
REMARK       I    between atoms: N3_15  and  C12_16 
REMARK    3  A    between atoms: C12_16  and  C13_18 
REMARK    4  A    between atoms: C14_19  and  C15_20 
REMARK    5  A    between atoms: C15_20  and  N4_21 
ROOT
HETATM    1  C2  UNL     1      23.397   6.781  50.742  1.00  0.00     0.097 A 
HETATM    2  C3  UNL     1      23.689   8.082  50.400  1.00  0.00     0.071 A 
HETATM    3  C4  UNL     1      24.942   8.347  49.954  1.00  0.00     0.072 A 
HETATM    4  N1  UNL     1      25.270   9.651  49.599  1.00  0.00    -0.248 NA
HETATM    5  C5  UNL     1      26.528   9.839  49.179  1.00  0.00     0.092 A 
HETATM    6  C6  UNL     1      27.641   9.124  48.992  1.00  0.00     0.099 A 
HETATM    7  C7  UNL     1      28.937   9.515  48.670  1.00  0.00     0.104 C 
HETATM    8  N2  UNL     1      30.011   9.849  48.420  1.00  0.00    -0.191 NA
HETATM    9  C8  UNL     1      27.224   7.871  49.344  1.00  0.00     0.064 A 
HETATM   10  C9  UNL     1      26.006   7.444  49.793  1.00  0.00     0.023 A 
HETATM   11  C10 UNL     1      25.678   6.129  50.149  1.00  0.00     0.048 A 
HETATM   12  C11 UNL     1      24.406   5.820  50.609  1.00  0.00     0.069 A 
HETATM   13  N5  UNL     1      28.019   6.713  48.999  1.00  0.00    -0.384 N 
HETATM   14  C20 UNL     1      28.000   7.143  47.569  1.00  0.00     0.148 C 
HETATM   15  C21 UNL     1      26.690   7.867  47.282  1.00  0.00     0.012 C 
HETATM   16  C22 UNL     1      26.059   9.064  46.961  1.00  0.00     0.012 C 
HETATM   17 CL1  UNL     1      24.331   9.415  46.703  1.00  0.00    -0.089 Cl
HETATM   18  C23 UNL     1      26.897  10.338  46.862  1.00  0.00     0.095 C 
HETATM   19  C24 UNL     1      26.641  11.055  48.260  1.00  0.00     0.228 C 
HETATM   20  F1  UNL     1      25.567  11.831  48.231  1.00  0.00    -0.242 F 
HETATM   21  H19 UNL     1      28.228   6.156  49.815  1.00  0.00     0.160 HD
ENDROOT
BRANCH  12  22
HETATM   22  N3  UNL     1      24.228   4.444  50.926  1.00  0.00    -0.321 N 
HETATM   23  C12 UNL     1      23.821   3.248  50.314  1.00  0.00     0.245 C 
HETATM   24  O2  UNL     1      23.515   3.448  49.137  1.00  0.00    -0.268 OA
HETATM   25  H6  UNL     1      24.519   4.520  51.924  1.00  0.00     0.169 HD
BRANCH  23  26
HETATM   26  C13 UNL     1      23.788   1.978  51.026  1.00  0.00     0.072 C 
HETATM   27  C14 UNL     1      24.455   1.508  52.064  1.00  0.00     0.008 C 
BRANCH  27  28
HETATM   28  C15 UNL     1      25.452   1.637  53.122  1.00  0.00     0.300 C 
BRANCH  28  29
HETATM   29  N4  UNL     1      25.703   0.457  53.888  1.00  0.00     0.091 N 
HETATM   30  C16 UNL     1      26.953   0.419  54.537  1.00  0.00     0.273 C 
HETATM   31  C17 UNL     1      27.834  -0.291  53.510  1.00  0.00     0.032 C 
HETATM   32  C18 UNL     1      26.925  -1.245  52.759  1.00  0.00     0.032 C 
HETATM   33  C19 UNL     1      25.540  -0.737  53.119  1.00  0.00     0.273 C 
ENDBRANCH  28  29
ENDBRANCH  27  28
ENDBRANCH  23  26
ENDBRANCH  12  22
BRANCH   1  34
HETATM   34  O1  UNL     1      22.196   6.283  51.216  1.00  0.00    -0.354 OA
HETATM   35  C1  UNL     1      21.104   6.187  50.330  1.00  0.00     0.210 C 
ENDBRANCH   1  34
TORSDOF 5
ENDMDL
MODEL 5
REMARK VINA RESULT:      -7.9      2.246      3.306
REMARK  5 active torsions:
REMARK  status: ('A' for Active; 'I' for Inactive)
REMARK    1  A    between atoms: O1_2  and  C2_3 
REMARK    2  A    between atoms: C11_14  and  N3_15 
REMARK       I    between atoms: N3_15  and  C12_16 
REMARK    3  A    between atoms: C12_16  and  C13_18 
REMARK    4  A    between atoms: C14_19  and  C15_20 
REMARK    5  A    between atoms: C15_20  and  N4_21 
ROOT
HETATM    1  C2  UNL     1      22.687   6.701  50.025  1.00  0.00     0.097 A 
HETATM    2  C3  UNL     1      22.720   7.775  49.165  1.00  0.00     0.071 A 
HETATM    3  C4  UNL     1      23.858   8.512  49.124  1.00  0.00     0.072 A 
HETATM    4  N1  UNL     1      23.925   9.603  48.265  1.00  0.00    -0.248 NA
HETATM    5  C5  UNL     1      25.075  10.290  48.288  1.00  0.00     0.092 A 
HETATM    6  C6  UNL     1      26.249  10.260  48.926  1.00  0.00     0.099 A 
HETATM    7  C7  UNL     1      27.313  11.158  48.927  1.00  0.00     0.104 C 
HETATM    8  N2  UNL     1      28.182  11.914  48.935  1.00  0.00    -0.191 NA
HETATM    9  C8  UNL     1      26.100   9.161  49.723  1.00  0.00     0.064 A 
HETATM   10  C9  UNL     1      25.035   8.316  49.866  1.00  0.00     0.023 A 
HETATM   11  C10 UNL     1      24.971   7.216  50.732  1.00  0.00     0.048 A 
HETATM   12  C11 UNL     1      23.823   6.439  50.799  1.00  0.00     0.069 A 
HETATM   13  N5  UNL     1      27.249   8.564  50.367  1.00  0.00    -0.384 N 
HETATM   14  C20 UNL     1      27.918   8.449  49.035  1.00  0.00     0.148 C 
HETATM   15  C21 UNL     1      26.858   8.233  47.962  1.00  0.00     0.012 C 
HETATM   16  C22 UNL     1      26.199   8.741  46.847  1.00  0.00     0.012 C 
HETATM   17 CL1  UNL     1      24.912   8.018  45.849  1.00  0.00    -0.089 Cl
HETATM   18  C23 UNL     1      26.523  10.159  46.380  1.00  0.00     0.095 C 
HETATM   19  C24 UNL     1      25.321  11.022  46.970  1.00  0.00     0.228 C 
HETATM   20  F1  UNL     1      24.282  11.054  46.149  1.00  0.00    -0.242 F 
HETATM   21  H19 UNL     1      27.113   8.490  51.364  1.00  0.00     0.160 HD
ENDROOT
BRANCH  12  22
HETATM   22  N3  UNL     1      23.915   5.359  51.722  1.00  0.00    -0.321 N 
HETATM   23  C12 UNL     1      24.150   3.975  51.730  1.00  0.00     0.245 C 
HETATM   24  O2  UNL     1      24.328   3.561  50.583  1.00  0.00    -0.268 OA
HETATM   25  H6  UNL     1      23.724   5.925  52.576  1.00  0.00     0.169 HD
BRANCH  23  26
HETATM   26  C13 UNL     1      24.171   3.194  52.959  1.00  0.00     0.072 C 
HETATM   27  C14 UNL     1      25.088   2.436  53.531  1.00  0.00     0.008 C 
BRANCH  27  28
HETATM   28  C15 UNL     1      26.415   1.830  53.575  1.00  0.00     0.300 C 
BRANCH  28  29
HETATM   29  N4  UNL     1      26.496   0.556  54.220  1.00  0.00     0.091 N 
HETATM   30  C16 UNL     1      27.799   0.141  54.562  1.00  0.00     0.273 C 
HETATM   31  C17 UNL     1      28.217  -0.667  53.335  1.00  0.00     0.032 C 
HETATM   32  C18 UNL     1      26.947  -1.283  52.779  1.00  0.00     0.032 C 
HETATM   33  C19 UNL     1      25.859  -0.477  53.466  1.00  0.00     0.273 C 
ENDBRANCH  28  29
ENDBRANCH  27  28
ENDBRANCH  23  26
ENDBRANCH  12  22
BRANCH   1  34
HETATM   34  O1  UNL     1      21.643   5.817  50.231  1.00  0.00    -0.354 OA
HETATM   35  C1  UNL     1      20.351   6.180  49.799  1.00  0.00     0.210 C 
ENDBRANCH   1  34
TORSDOF 5
ENDMDL
MODEL 6
REMARK VINA RESULT:      -7.9      3.076      4.599
REMARK  5 active torsions:
REMARK  status: ('A' for Active; 'I' for Inactive)
REMARK    1  A    between atoms: O1_2  and  C2_3 
REMARK    2  A    between atoms: C11_14  and  N3_15 
REMARK       I    between atoms: N3_15  and  C12_16 
REMARK    3  A    between atoms: C12_16  and  C13_18 
REMARK    4  A    between atoms: C14_19  and  C15_20 
REMARK    5  A    between atoms: C15_20  and  N4_21 
ROOT
HETATM    1  C2  UNL     1      24.372   3.189  50.601  1.00  0.00     0.097 A 
HETATM    2  C3  UNL     1      24.022   4.098  49.629  1.00  0.00     0.071 A 
HETATM    3  C4  UNL     1      22.887   3.861  48.926  1.00  0.00     0.072 A 
HETATM    4  N1  UNL     1      22.505   4.761  47.937  1.00  0.00    -0.248 NA
HETATM    5  C5  UNL     1      21.379   4.456  47.278  1.00  0.00     0.092 A 
HETATM    6  C6  UNL     1      20.455   3.490  47.264  1.00  0.00     0.099 A 
HETATM    7  C7  UNL     1      19.393   3.253  46.397  1.00  0.00     0.104 C 
HETATM    8  N2  UNL     1      18.527   3.053  45.663  1.00  0.00    -0.191 NA
HETATM    9  C8  UNL     1      20.896   2.674  48.267  1.00  0.00     0.064 A 
HETATM   10  C9  UNL     1      21.999   2.780  49.066  1.00  0.00     0.023 A 
HETATM   11  C10 UNL     1      22.381   1.873  50.063  1.00  0.00     0.048 A 
HETATM   12  C11 UNL     1      23.537   2.083  50.803  1.00  0.00     0.069 A 
HETATM   13  N5  UNL     1      20.028   1.656  48.816  1.00  0.00    -0.384 N 
HETATM   14  C20 UNL     1      18.998   2.702  49.090  1.00  0.00     0.148 C 
HETATM   15  C21 UNL     1      19.696   4.021  49.398  1.00  0.00     0.012 C 
HETATM   16  C22 UNL     1      19.961   5.327  49.000  1.00  0.00     0.012 C 
HETATM   17 CL1  UNL     1      20.925   6.596  49.799  1.00  0.00    -0.089 Cl
HETATM   18  C23 UNL     1      19.434   5.809  47.649  1.00  0.00     0.095 C 
HETATM   19  C24 UNL     1      20.708   5.701  46.700  1.00  0.00     0.228 C 
HETATM   20  F1  UNL     1      21.449   6.799  46.735  1.00  0.00    -0.242 F 
HETATM   21  H19 UNL     1      20.462   0.745  48.777  1.00  0.00     0.160 HD
ENDROOT
BRANCH  12  22
HETATM   22  N3  UNL     1      23.786   1.077  51.777  1.00  0.00    -0.321 N 
HETATM   23  C12 UNL     1      23.236   0.581  52.969  1.00  0.00     0.245 C 
HETATM   24  O2  UNL     1      22.225   1.216  53.275  1.00  0.00    -0.268 OA
HETATM   25  H6  UNL     1      24.653   0.704  51.333  1.00  0.00     0.169 HD
BRANCH  23  26
HETATM   26  C13 UNL     1      23.825  -0.535  53.697  1.00  0.00     0.072 C 
HETATM   27  C14 UNL     1      24.948  -0.676  54.376  1.00  0.00     0.008 C 
BRANCH  27  28
HETATM   28  C15 UNL     1      26.212  -0.166  54.900  1.00  0.00     0.300 C 
BRANCH  28  29
HETATM   29  N4  UNL     1      27.122   0.357  53.929  1.00  0.00     0.091 N 
HETATM   30  C16 UNL     1      27.267  -0.422  52.764  1.00  0.00     0.273 C 
HETATM   31  C17 UNL     1      28.455  -1.317  53.115  1.00  0.00     0.032 C 
HETATM   32  C18 UNL     1      29.337  -0.505  54.046  1.00  0.00     0.032 C 
HETATM   33  C19 UNL     1      28.414   0.620  54.479  1.00  0.00     0.273 C 
ENDBRANCH  28  29
ENDBRANCH  27  28
ENDBRANCH  23  26
ENDBRANCH  12  22
BRANCH   1  34
HETATM   34  O1  UNL     1      25.476   3.226  51.433  1.00  0.00    -0.354 OA
HETATM   35  C1  UNL     1      26.731   2.848  50.913  1.00  0.00     0.210 C 
ENDBRANCH   1  34
TORSDOF 5
ENDMDL
MODEL 7
REMARK VINA RESULT:      -7.7      5.065      7.919
REMARK  5 active torsions:
REMARK  status: ('A' for Active; 'I' for Inactive)
REMARK    1  A    between atoms: O1_2  and  C2_3 
REMARK    2  A    between atoms: C11_14  and  N3_15 
REMARK       I    between atoms: N3_15  and  C12_16 
REMARK    3  A    between atoms: C12_16  and  C13_18 
REMARK    4  A    between atoms: C14_19  and  C15_20 
REMARK    5  A    between atoms: C15_20  and  N4_21 
ROOT
HETATM    1  C2  UNL     1      27.217   5.697  48.660  1.00  0.00     0.097 A 
HETATM    2  C3  UNL     1      28.478   5.290  48.290  1.00  0.00     0.071 A 
HETATM    3  C4  UNL     1      29.361   6.247  47.910  1.00  0.00     0.072 A 
HETATM    4  N1  UNL     1      30.645   5.869  47.531  1.00  0.00    -0.248 NA
HETATM    5  C5  UNL     1      31.457   6.867  47.158  1.00  0.00     0.092 A 
HETATM    6  C6  UNL     1      31.415   8.195  47.016  1.00  0.00     0.099 A 
HETATM    7  C7  UNL     1      32.335   9.086  46.471  1.00  0.00     0.104 C 
HETATM    8  N2  UNL     1      33.094   9.815  46.002  1.00  0.00    -0.191 NA
HETATM    9  C8  UNL     1      30.141   8.474  47.423  1.00  0.00     0.064 A 
HETATM   10  C9  UNL     1      29.148   7.634  47.843  1.00  0.00     0.023 A 
HETATM   11  C10 UNL     1      27.856   8.018  48.226  1.00  0.00     0.048 A 
HETATM   12  C11 UNL     1      26.926   7.066  48.621  1.00  0.00     0.069 A 
HETATM   13  N5  UNL     1      29.754   9.833  47.731  1.00  0.00    -0.384 N 
HETATM   14  C20 UNL     1      30.894   9.925  48.692  1.00  0.00     0.148 C 
HETATM   15  C21 UNL     1      31.147   8.551  49.299  1.00  0.00     0.012 C 
HETATM   16  C22 UNL     1      32.004   7.461  49.413  1.00  0.00     0.012 C 
HETATM   17 CL1  UNL     1      31.823   5.954  50.347  1.00  0.00    -0.089 Cl
HETATM   18  C23 UNL     1      33.292   7.444  48.591  1.00  0.00     0.095 C 
HETATM   19  C24 UNL     1      32.927   6.502  47.359  1.00  0.00     0.228 C 
HETATM   20  F1  UNL     1      33.152   5.224  47.626  1.00  0.00    -0.242 F 
HETATM   21  H19 UNL     1      28.941  10.111  47.199  1.00  0.00     0.160 HD
ENDROOT
BRANCH  12  22
HETATM   22  N3  UNL     1      25.663   7.613  48.982  1.00  0.00    -0.321 N 
HETATM   23  C12 UNL     1      24.418   7.904  48.403  1.00  0.00     0.245 C 
HETATM   24  O2  UNL     1      24.415   7.598  47.209  1.00  0.00    -0.268 OA
HETATM   25  H6  UNL     1      25.902   7.801  49.979  1.00  0.00     0.169 HD
BRANCH  23  26
HETATM   26  C13 UNL     1      23.320   8.485  49.163  1.00  0.00     0.072 C 
HETATM   27  C14 UNL     1      22.433   7.978  49.999  1.00  0.00     0.008 C 
BRANCH  27  28
HETATM   28  C15 UNL     1      21.843   6.861  50.731  1.00  0.00     0.300 C 
BRANCH  28  29
HETATM   29  N4  UNL     1      22.532   5.613  50.624  1.00  0.00     0.091 N 
HETATM   30  C16 UNL     1      21.731   4.470  50.815  1.00  0.00     0.273 C 
HETATM   31  C17 UNL     1      21.884   4.208  52.312  1.00  0.00     0.032 C 
HETATM   32  C18 UNL     1      23.276   4.685  52.686  1.00  0.00     0.032 C 
HETATM   33  C19 UNL     1      23.664   5.540  51.493  1.00  0.00     0.273 C 
ENDBRANCH  28  29
ENDBRANCH  27  28
ENDBRANCH  23  26
ENDBRANCH  12  22
BRANCH   1  34
HETATM   34  O1  UNL     1      26.163   4.905  49.079  1.00  0.00    -0.354 OA
HETATM   35  C1  UNL     1      26.446   3.717  49.784  1.00  0.00     0.210 C 
ENDBRANCH   1  34
TORSDOF 5
ENDMDL
MODEL 8
REMARK VINA RESULT:      -7.7      3.871      7.334
REMARK  5 active torsions:
REMARK  status: ('A' for Active; 'I' for Inactive)
REMARK    1  A    between atoms: O1_2  and  C2_3 
REMARK    2  A    between atoms: C11_14  and  N3_15 
REMARK       I    between atoms: N3_15  and  C12_16 
REMARK    3  A    between atoms: C12_16  and  C13_18 
REMARK    4  A    between atoms: C14_19  and  C15_20 
REMARK    5  A    between atoms: C15_20  and  N4_21 
ROOT
HETATM    1  C2  UNL     1      23.733   5.373  48.332  1.00  0.00     0.097 A 
HETATM    2  C3  UNL     1      22.929   4.274  48.530  1.00  0.00     0.071 A 
HETATM    3  C4  UNL     1      23.269   3.418  49.525  1.00  0.00     0.072 A 
HETATM    4  N1  UNL     1      22.477   2.298  49.753  1.00  0.00    -0.248 NA
HETATM    5  C5  UNL     1      22.882   1.492  50.744  1.00  0.00     0.092 A 
HETATM    6  C6  UNL     1      23.877   1.417  51.632  1.00  0.00     0.099 A 
HETATM    7  C7  UNL     1      24.231   0.411  52.527  1.00  0.00     0.104 C 
HETATM    8  N2  UNL     1      24.527  -0.435  53.252  1.00  0.00    -0.191 NA
HETATM    9  C8  UNL     1      24.583   2.552  51.350  1.00  0.00     0.064 A 
HETATM   10  C9  UNL     1      24.365   3.511  50.401  1.00  0.00     0.023 A 
HETATM   11  C10 UNL     1      25.163   4.639  50.175  1.00  0.00     0.048 A 
HETATM   12  C11 UNL     1      24.846   5.537  49.166  1.00  0.00     0.069 A 
HETATM   13  N5  UNL     1      25.578   3.043  52.278  1.00  0.00    -0.384 N 
HETATM   14  C20 UNL     1      24.549   3.041  53.361  1.00  0.00     0.148 C 
HETATM   15  C21 UNL     1      23.184   3.334  52.752  1.00  0.00     0.012 C 
HETATM   16  C22 UNL     1      21.910   2.863  52.451  1.00  0.00     0.012 C 
HETATM   17 CL1  UNL     1      20.540   3.686  51.662  1.00  0.00    -0.089 Cl
HETATM   18  C23 UNL     1      21.572   1.403  52.751  1.00  0.00     0.095 C 
HETATM   19  C24 UNL     1      21.719   0.694  51.333  1.00  0.00     0.228 C 
HETATM   20  F1  UNL     1      20.596   0.748  50.631  1.00  0.00    -0.242 F 
HETATM   21  H19 UNL     1      26.473   3.164  51.825  1.00  0.00     0.160 HD
ENDROOT
BRANCH  12  22
HETATM   22  N3  UNL     1      25.750   6.631  49.065  1.00  0.00    -0.321 N 
HETATM   23  C12 UNL     1      27.066   6.898  48.657  1.00  0.00     0.245 C 
HETATM   24  O2  UNL     1      27.616   5.864  48.271  1.00  0.00    -0.268 OA
HETATM   25  H6  UNL     1      25.098   7.351  49.443  1.00  0.00     0.169 HD
BRANCH  23  26
HETATM   26  C13 UNL     1      27.644   8.234  48.706  1.00  0.00     0.072 C 
HETATM   27  C14 UNL     1      28.873   8.679  48.890  1.00  0.00     0.008 C 
BRANCH  27  28
HETATM   28  C15 UNL     1      30.298   8.470  49.130  1.00  0.00     0.300 C 
BRANCH  28  29
HETATM   29  N4  UNL     1      30.982   7.673  48.160  1.00  0.00     0.091 N 
HETATM   30  C16 UNL     1      31.019   6.292  48.438  1.00  0.00     0.273 C 
HETATM   31  C17 UNL     1      32.332   6.147  49.204  1.00  0.00     0.032 C 
HETATM   32  C18 UNL     1      33.264   7.211  48.654  1.00  0.00     0.032 C 
HETATM   33  C19 UNL     1      32.313   8.136  47.916  1.00  0.00     0.273 C 
ENDBRANCH  28  29
ENDBRANCH  27  28
ENDBRANCH  23  26
ENDBRANCH  12  22
BRANCH   1  34
HETATM   34  O1  UNL     1      23.581   6.371  47.386  1.00  0.00    -0.354 OA
HETATM   35  C1  UNL     1      22.440   6.353  46.558  1.00  0.00     0.210 C 
ENDBRANCH   1  34
TORSDOF 5
ENDMDL
MODEL 9
REMARK VINA RESULT:      -7.7      2.960      4.577
REMARK  5 active torsions:
REMARK  status: ('A' for Active; 'I' for Inactive)
REMARK    1  A    between atoms: O1_2  and  C2_3 
REMARK    2  A    between atoms: C11_14  and  N3_15 
REMARK       I    between atoms: N3_15  and  C12_16 
REMARK    3  A    between atoms: C12_16  and  C13_18 
REMARK    4  A    between atoms: C14_19  and  C15_20 
REMARK    5  A    between atoms: C15_20  and  N4_21 
ROOT
HETATM    1  C2  UNL     1      23.637   7.129  50.072  1.00  0.00     0.097 A 
HETATM    2  C3  UNL     1      24.149   8.403  49.967  1.00  0.00     0.071 A 
HETATM    3  C4  UNL     1      25.471   8.527  49.692  1.00  0.00     0.072 A 
HETATM    4  N1  UNL     1      26.021   9.800  49.579  1.00  0.00    -0.248 NA
HETATM    5  C5  UNL     1      27.334   9.844  49.317  1.00  0.00     0.092 A 
HETATM    6  C6  UNL     1      28.349   8.995  49.130  1.00  0.00     0.099 A 
HETATM    7  C7  UNL     1      29.716   9.218  48.999  1.00  0.00     0.104 C 
HETATM    8  N2  UNL     1      30.849   9.411  48.910  1.00  0.00    -0.191 NA
HETATM    9  C8  UNL     1      27.720   7.787  49.239  1.00  0.00     0.064 A 
HETATM   10  C9  UNL     1      26.409   7.498  49.496  1.00  0.00     0.023 A 
HETATM   11  C10 UNL     1      25.858   6.215  49.608  1.00  0.00     0.048 A 
HETATM   12  C11 UNL     1      24.509   6.049  49.888  1.00  0.00     0.069 A 
HETATM   13  N5  UNL     1      28.377   6.578  48.796  1.00  0.00    -0.384 N 
HETATM   14  C20 UNL     1      28.591   7.202  47.456  1.00  0.00     0.148 C 
HETATM   15  C21 UNL     1      27.441   8.156  47.160  1.00  0.00     0.012 C 
HETATM   16  C22 UNL     1      27.028   9.470  46.971  1.00  0.00     0.012 C 
HETATM   17 CL1  UNL     1      25.410  10.123  46.604  1.00  0.00    -0.089 Cl
HETATM   18  C23 UNL     1      28.044  10.597  47.153  1.00  0.00     0.095 C 
HETATM   19  C24 UNL     1      27.726  11.143  48.615  1.00  0.00     0.228 C 
HETATM   20  F1  UNL     1      26.784  12.075  48.604  1.00  0.00    -0.242 F 
HETATM   21  H19 UNL     1      28.407   5.887  49.531  1.00  0.00     0.160 HD
ENDROOT
BRANCH  12  22
HETATM   22  N3  UNL     1      24.101   4.688  49.968  1.00  0.00    -0.321 N 
HETATM   23  C12 UNL     1      23.804   3.714  50.933  1.00  0.00     0.245 C 
HETATM   24  O2  UNL     1      23.942   4.176  52.068  1.00  0.00    -0.268 OA
HETATM   25  H6  UNL     1      24.067   4.521  48.939  1.00  0.00     0.169 HD
BRANCH  23  26
HETATM   26  C13 UNL     1      23.391   2.363  50.580  1.00  0.00     0.072 C 
HETATM   27  C14 UNL     1      22.502   1.530  51.086  1.00  0.00     0.008 C 
BRANCH  27  28
HETATM   28  C15 UNL     1      21.468   1.180  52.056  1.00  0.00     0.300 C 
BRANCH  28  29
HETATM   29  N4  UNL     1      21.930   0.863  53.372  1.00  0.00     0.091 N 
HETATM   30  C16 UNL     1      23.029  -0.017  53.424  1.00  0.00     0.273 C 
HETATM   31  C17 UNL     1      22.351  -1.381  53.540  1.00  0.00     0.032 C 
HETATM   32  C18 UNL     1      21.056  -1.148  54.297  1.00  0.00     0.032 C 
HETATM   33  C19 UNL     1      20.887   0.359  54.208  1.00  0.00     0.273 C 
ENDBRANCH  28  29
ENDBRANCH  27  28
ENDBRANCH  23  26
ENDBRANCH  12  22
BRANCH   1  34
HETATM   34  O1  UNL     1      22.331   6.765  50.344  1.00  0.00    -0.354 OA
HETATM   35  C1  UNL     1      21.333   7.053  49.389  1.00  0.00     0.210 C 
ENDBRANCH   1  34
TORSDOF 5
ENDMDL
