MODEL 1
REMARK VINA RESULT:      -7.7      0.000      0.000
REMARK  9 active torsions:
REMARK  status: ('A' for Active; 'I' for Inactive)
REMARK    1  A    between atoms: C2_2  and  C3_3 
REMARK    2  A    between atoms: C3_3  and  C4_4 
REMARK    3  A    between atoms: C4_4  and  N1_5 
REMARK    4  A    between atoms: N1_5  and  C5_6 
REMARK    5  A    between atoms: N1_5  and  C12_14 
REMARK    6  A    between atoms: C5_6  and  C6_7 
REMARK    7  A    between atoms: C11_12  and  O1_13 
REMARK    8  A    between atoms: C12_14  and  C13_15 
REMARK    9  A    between atoms: C18_22  and  O2_23 
ROOT
HETATM    1  N1  UNL     1      25.984   2.123  52.298  1.00  0.00     0.097 N 
ENDROOT
BRANCH   1   2
HETATM    2  C4  UNL     1      26.834   2.767  51.365  1.00  0.00     0.273 C 
BRANCH   2   3
HETATM    3  C3  UNL     1      26.419   2.787  49.950  1.00  0.00     0.030 C 
BRANCH   3   4
HETATM    4  C2  UNL     1      26.308   4.261  49.533  1.00  0.00    -0.003 C 
HETATM    5  C1  UNL     1      27.515   4.694  48.744  1.00  0.00     0.005 C 
ENDBRANCH   3   4
ENDBRANCH   2   3
ENDBRANCH   1   2
BRANCH   1   6
HETATM    6  C5  UNL     1      26.757   1.989  53.534  1.00  0.00     0.314 C 
BRANCH   6   7
HETATM    7  C6  UNL     1      27.660   0.815  53.478  1.00  0.00     0.003 A 
HETATM    8  C7  UNL     1      27.178  -0.421  53.026  1.00  0.00     0.012 A 
HETATM    9  C8  UNL     1      28.023  -1.532  52.963  1.00  0.00     0.001 A 
HETATM   10  C9  UNL     1      29.332  -1.421  53.345  1.00  0.00     0.003 A 
HETATM   11  C10 UNL     1      29.802  -0.182  53.795  1.00  0.00     0.037 A 
HETATM   12  C11 UNL     1      28.977   0.911  53.859  1.00  0.00     0.073 A 
BRANCH  12  13
HETATM   13  O1  UNL     1      29.430   2.142  54.303  1.00  0.00    -0.360 OA
HETATM   14  H16 UNL     1      29.757   2.840  53.675  1.00  0.00     0.217 HD
ENDBRANCH  12  13
ENDBRANCH   6   7
ENDBRANCH   1   6
BRANCH   1  15
HETATM   15  C12 UNL     1      24.697   2.693  52.554  1.00  0.00     0.314 C 
BRANCH  15  16
HETATM   16  C13 UNL     1      23.529   1.876  52.180  1.00  0.00     0.006 A 
HETATM   17  C14 UNL     1      23.151   0.881  53.102  1.00  0.00     0.030 A 
HETATM   18  C15 UNL     1      22.096   0.012  52.995  1.00  0.00     0.013 A 
HETATM   19 BR1  UNL     1      21.721  -1.282  54.343  1.00  0.00    -0.051 Br
HETATM   20  C16 UNL     1      21.309   0.112  51.868  1.00  0.00     0.041 A 
HETATM   21  C17 UNL     1      21.608   1.048  50.928  1.00  0.00     0.045 A 
HETATM   22 BR2  UNL     1      20.560   1.237  49.346  1.00  0.00    -0.048 Br
HETATM   23  C18 UNL     1      22.683   1.886  51.101  1.00  0.00     0.091 A 
BRANCH  23  24
HETATM   24  O2  UNL     1      22.963   2.827  50.125  1.00  0.00    -0.359 OA
HETATM   25  H21 UNL     1      22.195   3.238  49.577  1.00  0.00     0.217 HD
ENDBRANCH  23  24
ENDBRANCH  15  16
ENDBRANCH   1  15
TORSDOF 9
ENDMDL
MODEL 2
REMARK VINA RESULT:      -7.6      2.773      5.646
REMARK  9 active torsions:
REMARK  status: ('A' for Active; 'I' for Inactive)
REMARK    1  A    between atoms: C2_2  and  C3_3 
REMARK    2  A    between atoms: C3_3  and  C4_4 
REMARK    3  A    between atoms: C4_4  and  N1_5 
REMARK    4  A    between atoms: N1_5  and  C5_6 
REMARK    5  A    between atoms: N1_5  and  C12_14 
REMARK    6  A    between atoms: C5_6  and  C6_7 
REMARK    7  A    between atoms: C11_12  and  O1_13 
REMARK    8  A    between atoms: C12_14  and  C13_15 
REMARK    9  A    between atoms: C18_22  and  O2_23 
ROOT
HETATM    1  N1  UNL     1      25.248   0.301  52.658  1.00  0.00     0.097 N 
ENDROOT
BRANCH   1   2
HETATM    2  C4  UNL     1      26.451  -0.361  52.306  1.00  0.00     0.273 C 
BRANCH   2   3
HETATM    3  C3  UNL     1      27.293  -0.891  53.395  1.00  0.00     0.030 C 
BRANCH   3   4
HETATM    4  C2  UNL     1      28.570  -0.040  53.434  1.00  0.00    -0.003 C 
HETATM    5  C1  UNL     1      29.798  -0.906  53.532  1.00  0.00     0.005 C 
ENDBRANCH   3   4
ENDBRANCH   2   3
ENDBRANCH   1   2
BRANCH   1   6
HETATM    6  C5  UNL     1      24.766  -0.346  53.880  1.00  0.00     0.314 C 
BRANCH   6   7
HETATM    7  C6  UNL     1      23.298  -0.545  53.839  1.00  0.00     0.003 A 
HETATM    8  C7  UNL     1      22.553  -0.054  52.758  1.00  0.00     0.012 A 
HETATM    9  C8  UNL     1      21.169  -0.242  52.706  1.00  0.00     0.001 A 
HETATM   10  C9  UNL     1      20.530  -0.910  53.715  1.00  0.00     0.003 A 
HETATM   11  C10 UNL     1      21.284  -1.396  54.788  1.00  0.00     0.037 A 
HETATM   12  C11 UNL     1      22.642  -1.213  54.844  1.00  0.00     0.073 A 
BRANCH  12  13
HETATM   13  O1  UNL     1      23.399  -1.689  55.901  1.00  0.00    -0.360 OA
HETATM   14  H16 UNL     1      24.307  -2.071  55.768  1.00  0.00     0.217 HD
ENDBRANCH  12  13
ENDBRANCH   6   7
ENDBRANCH   1   6
BRANCH   1  15
HETATM   15  C12 UNL     1      25.270   1.723  52.802  1.00  0.00     0.314 C 
BRANCH  15  16
HETATM   16  C13 UNL     1      25.207   2.512  51.559  1.00  0.00     0.006 A 
HETATM   17  C14 UNL     1      23.933   2.639  50.973  1.00  0.00     0.030 A 
HETATM   18  C15 UNL     1      23.611   3.333  49.835  1.00  0.00     0.013 A 
HETATM   19 BR1  UNL     1      21.825   3.405  49.175  1.00  0.00    -0.051 Br
HETATM   20  C16 UNL     1      24.637   3.983  49.183  1.00  0.00     0.041 A 
HETATM   21  C17 UNL     1      25.898   3.909  49.684  1.00  0.00     0.045 A 
HETATM   22 BR2  UNL     1      27.360   4.786  48.829  1.00  0.00    -0.048 Br
HETATM   23  C18 UNL     1      26.148   3.194  50.830  1.00  0.00     0.091 A 
BRANCH  23  24
HETATM   24  O2  UNL     1      27.443   3.135  51.315  1.00  0.00    -0.359 OA
HETATM   25  H21 UNL     1      27.719   2.366  51.941  1.00  0.00     0.217 HD
ENDBRANCH  23  24
ENDBRANCH  15  16
ENDBRANCH   1  15
TORSDOF 9
ENDMDL
MODEL 3
REMARK VINA RESULT:      -7.4      2.412      4.530
REMARK  9 active torsions:
REMARK  status: ('A' for Active; 'I' for Inactive)
REMARK    1  A    between atoms: C2_2  and  C3_3 
REMARK    2  A    between atoms: C3_3  and  C4_4 
REMARK    3  A    between atoms: C4_4  and  N1_5 
REMARK    4  A    between atoms: N1_5  and  C5_6 
REMARK    5  A    between atoms: N1_5  and  C12_14 
REMARK    6  A    between atoms: C5_6  and  C6_7 
REMARK    7  A    between atoms: C11_12  and  O1_13 
REMARK    8  A    between atoms: C12_14  and  C13_15 
REMARK    9  A    between atoms: C18_22  and  O2_23 
ROOT
HETATM    1  N1  UNL     1      25.136   0.055  53.461  1.00  0.00     0.097 N 
ENDROOT
BRANCH   1   2
HETATM    2  C4  UNL     1      24.109  -0.921  53.482  1.00  0.00     0.273 C 
BRANCH   2   3
HETATM    3  C3  UNL     1      23.090  -0.831  54.545  1.00  0.00     0.030 C 
BRANCH   3   4
HETATM    4  C2  UNL     1      21.718  -0.842  53.857  1.00  0.00    -0.003 C 
HETATM    5  C1  UNL     1      20.939   0.406  54.178  1.00  0.00     0.005 C 
ENDBRANCH   3   4
ENDBRANCH   2   3
ENDBRANCH   1   2
BRANCH   1   6
HETATM    6  C5  UNL     1      26.021  -0.304  52.351  1.00  0.00     0.314 C 
BRANCH   6   7
HETATM    7  C6  UNL     1      27.386  -0.623  52.833  1.00  0.00     0.003 A 
HETATM    8  C7  UNL     1      28.195   0.387  53.372  1.00  0.00     0.012 A 
HETATM    9  C8  UNL     1      29.480   0.096  53.835  1.00  0.00     0.001 A 
HETATM   10  C9  UNL     1      29.960  -1.184  53.767  1.00  0.00     0.003 A 
HETATM   11  C10 UNL     1      29.144  -2.185  53.228  1.00  0.00     0.037 A 
HETATM   12  C11 UNL     1      27.882  -1.903  52.771  1.00  0.00     0.073 A 
BRANCH  12  13
HETATM   13  O1  UNL     1      27.064  -2.884  52.235  1.00  0.00    -0.360 OA
HETATM   14  H16 UNL     1      26.166  -3.085  52.612  1.00  0.00     0.217 HD
ENDBRANCH  12  13
ENDBRANCH   6   7
ENDBRANCH   1   6
BRANCH   1  15
HETATM   15  C12 UNL     1      24.765   1.435  53.398  1.00  0.00     0.314 C 
BRANCH  15  16
HETATM   16  C13 UNL     1      24.666   2.029  52.054  1.00  0.00     0.006 A 
HETATM   17  C14 UNL     1      23.464   1.790  51.359  1.00  0.00     0.030 A 
HETATM   18  C15 UNL     1      23.124   2.247  50.112  1.00  0.00     0.013 A 
HETATM   19 BR1  UNL     1      21.445   1.828  49.314  1.00  0.00    -0.051 Br
HETATM   20  C16 UNL     1      24.049   3.028  49.454  1.00  0.00     0.041 A 
HETATM   21  C17 UNL     1      25.236   3.305  50.056  1.00  0.00     0.045 A 
HETATM   22 BR2  UNL     1      26.557   4.380  49.197  1.00  0.00    -0.048 Br
HETATM   23  C18 UNL     1      25.510   2.812  51.308  1.00  0.00     0.091 A 
BRANCH  23  24
HETATM   24  O2  UNL     1      26.728   3.110  51.894  1.00  0.00    -0.359 OA
HETATM   25  H21 UNL     1      26.979   2.683  52.796  1.00  0.00     0.217 HD
ENDBRANCH  23  24
ENDBRANCH  15  16
ENDBRANCH   1  15
TORSDOF 9
ENDMDL
MODEL 4
REMARK VINA RESULT:      -7.4      1.510      2.366
REMARK  9 active torsions:
REMARK  status: ('A' for Active; 'I' for Inactive)
REMARK    1  A    between atoms: C2_2  and  C3_3 
REMARK    2  A    between atoms: C3_3  and  C4_4 
REMARK    3  A    between atoms: C4_4  and  N1_5 
REMARK    4  A    between atoms: N1_5  and  C5_6 
REMARK    5  A    between atoms: N1_5  and  C12_14 
REMARK    6  A    between atoms: C5_6  and  C6_7 
REMARK    7  A    between atoms: C11_12  and  O1_13 
REMARK    8  A    between atoms: C12_14  and  C13_15 
REMARK    9  A    between atoms: C18_22  and  O2_23 
ROOT
HETATM    1  N1  UNL     1      25.438   2.299  51.613  1.00  0.00     0.097 N 
ENDROOT
BRANCH   1   2
HETATM    2  C4  UNL     1      25.269   2.885  50.334  1.00  0.00     0.273 C 
BRANCH   2   3
HETATM    3  C3  UNL     1      26.479   3.220  49.561  1.00  0.00     0.030 C 
BRANCH   3   4
HETATM    4  C2  UNL     1      26.399   4.715  49.220  1.00  0.00    -0.003 C 
HETATM    5  C1  UNL     1      27.662   5.189  48.553  1.00  0.00     0.005 C 
ENDBRANCH   3   4
ENDBRANCH   2   3
ENDBRANCH   1   2
BRANCH   1   6
HETATM    6  C5  UNL     1      26.851   2.468  51.959  1.00  0.00     0.314 C 
BRANCH   6   7
HETATM    7  C6  UNL     1      27.433   1.204  52.469  1.00  0.00     0.003 A 
HETATM    8  C7  UNL     1      26.793  -0.017  52.216  1.00  0.00     0.012 A 
HETATM    9  C8  UNL     1      27.338  -1.214  52.687  1.00  0.00     0.001 A 
HETATM   10  C9  UNL     1      28.504  -1.203  53.401  1.00  0.00     0.003 A 
HETATM   11  C10 UNL     1      29.135   0.021  53.648  1.00  0.00     0.037 A 
HETATM   12  C11 UNL     1      28.604   1.199  53.188  1.00  0.00     0.073 A 
BRANCH  12  13
HETATM   13  O1  UNL     1      29.218   2.418  53.425  1.00  0.00    -0.360 OA
HETATM   14  H16 UNL     1      30.185   2.563  53.248  1.00  0.00     0.217 HD
ENDBRANCH  12  13
ENDBRANCH   6   7
ENDBRANCH   1   6
BRANCH   1  15
HETATM   15  C12 UNL     1      24.591   2.735  52.680  1.00  0.00     0.314 C 
BRANCH  15  16
HETATM   16  C13 UNL     1      23.293   2.050  52.812  1.00  0.00     0.006 A 
HETATM   17  C14 UNL     1      22.178   2.731  52.286  1.00  0.00     0.030 A 
HETATM   18  C15 UNL     1      20.878   2.300  52.267  1.00  0.00     0.013 A 
HETATM   19 BR1  UNL     1      19.481   3.353  51.510  1.00  0.00    -0.051 Br
HETATM   20  C16 UNL     1      20.616   1.064  52.820  1.00  0.00     0.041 A 
HETATM   21  C17 UNL     1      21.638   0.342  53.351  1.00  0.00     0.045 A 
HETATM   22 BR2  UNL     1      21.342  -1.373  54.131  1.00  0.00    -0.048 Br
HETATM   23  C18 UNL     1      22.919   0.838  53.336  1.00  0.00     0.091 A 
BRANCH  23  24
HETATM   24  O2  UNL     1      23.938   0.080  53.886  1.00  0.00    -0.359 OA
HETATM   25  H21 UNL     1      23.922  -0.944  53.788  1.00  0.00     0.217 HD
ENDBRANCH  23  24
ENDBRANCH  15  16
ENDBRANCH   1  15
TORSDOF 9
ENDMDL
MODEL 5
REMARK VINA RESULT:      -7.2      2.101      4.262
REMARK  9 active torsions:
REMARK  status: ('A' for Active; 'I' for Inactive)
REMARK    1  A    between atoms: C2_2  and  C3_3 
REMARK    2  A    between atoms: C3_3  and  C4_4 
REMARK    3  A    between atoms: C4_4  and  N1_5 
REMARK    4  A    between atoms: N1_5  and  C5_6 
REMARK    5  A    between atoms: N1_5  and  C12_14 
REMARK    6  A    between atoms: C5_6  and  C6_7 
REMARK    7  A    between atoms: C11_12  and  O1_13 
REMARK    8  A    between atoms: C12_14  and  C13_15 
REMARK    9  A    between atoms: C18_22  and  O2_23 
ROOT
HETATM    1  N1  UNL     1      24.965   0.626  53.323  1.00  0.00     0.097 N 
ENDROOT
BRANCH   1   2
HETATM    2  C4  UNL     1      24.253  -0.595  53.430  1.00  0.00     0.273 C 
BRANCH   2   3
HETATM    3  C3  UNL     1      23.560  -0.882  54.700  1.00  0.00     0.030 C 
BRANCH   3   4
HETATM    4  C2  UNL     1      22.100  -1.209  54.355  1.00  0.00    -0.003 C 
HETATM    5  C1  UNL     1      21.197  -0.044  54.658  1.00  0.00     0.005 C 
ENDBRANCH   3   4
ENDBRANCH   2   3
ENDBRANCH   1   2
BRANCH   1   6
HETATM    6  C5  UNL     1      25.939   0.439  52.245  1.00  0.00     0.314 C 
BRANCH   6   7
HETATM    7  C6  UNL     1      27.288   0.150  52.784  1.00  0.00     0.003 A 
HETATM    8  C7  UNL     1      27.740  -1.174  52.876  1.00  0.00     0.012 A 
HETATM    9  C8  UNL     1      29.013  -1.457  53.377  1.00  0.00     0.001 A 
HETATM   10  C9  UNL     1      29.831  -0.439  53.783  1.00  0.00     0.003 A 
HETATM   11  C10 UNL     1      29.371   0.879  53.687  1.00  0.00     0.037 A 
HETATM   12  C11 UNL     1      28.122   1.162  53.197  1.00  0.00     0.073 A 
BRANCH  12  13
HETATM   13  O1  UNL     1      27.654   2.461  53.097  1.00  0.00    -0.360 OA
HETATM   14  H16 UNL     1      27.040   2.853  53.774  1.00  0.00     0.217 HD
ENDBRANCH  12  13
ENDBRANCH   6   7
ENDBRANCH   1   6
BRANCH   1  15
HETATM   15  C12 UNL     1      24.223   1.835  53.143  1.00  0.00     0.314 C 
BRANCH  15  16
HETATM   16  C13 UNL     1      23.921   2.222  51.754  1.00  0.00     0.006 A 
HETATM   17  C14 UNL     1      24.765   3.196  51.187  1.00  0.00     0.030 A 
HETATM   18  C15 UNL     1      24.705   3.704  49.915  1.00  0.00     0.013 A 
HETATM   19 BR1  UNL     1      25.934   5.025  49.303  1.00  0.00    -0.051 Br
HETATM   20  C16 UNL     1      23.714   3.218  49.089  1.00  0.00     0.041 A 
HETATM   21  C17 UNL     1      22.855   2.275  49.562  1.00  0.00     0.045 A 
HETATM   22 BR2  UNL     1      21.464   1.563  48.470  1.00  0.00    -0.048 Br
HETATM   23  C18 UNL     1      22.975   1.811  50.849  1.00  0.00     0.091 A 
BRANCH  23  24
HETATM   24  O2  UNL     1      22.085   0.853  51.302  1.00  0.00    -0.359 OA
HETATM   25  H21 UNL     1      21.513   1.042  52.137  1.00  0.00     0.217 HD
ENDBRANCH  23  24
ENDBRANCH  15  16
ENDBRANCH   1  15
TORSDOF 9
ENDMDL
MODEL 6
REMARK VINA RESULT:      -7.2      2.129      4.066
REMARK  9 active torsions:
REMARK  status: ('A' for Active; 'I' for Inactive)
REMARK    1  A    between atoms: C2_2  and  C3_3 
REMARK    2  A    between atoms: C3_3  and  C4_4 
REMARK    3  A    between atoms: C4_4  and  N1_5 
REMARK    4  A    between atoms: N1_5  and  C5_6 
REMARK    5  A    between atoms: N1_5  and  C12_14 
REMARK    6  A    between atoms: C5_6  and  C6_7 
REMARK    7  A    between atoms: C11_12  and  O1_13 
REMARK    8  A    between atoms: C12_14  and  C13_15 
REMARK    9  A    between atoms: C18_22  and  O2_23 
ROOT
HETATM    1  N1  UNL     1      24.760   0.592  53.343  1.00  0.00     0.097 N 
ENDROOT
BRANCH   1   2
HETATM    2  C4  UNL     1      23.964  -0.580  53.319  1.00  0.00     0.273 C 
BRANCH   2   3
HETATM    3  C3  UNL     1      23.250  -0.956  54.554  1.00  0.00     0.030 C 
BRANCH   3   4
HETATM    4  C2  UNL     1      21.770  -1.129  54.185  1.00  0.00    -0.003 C 
HETATM    5  C1  UNL     1      20.993   0.134  54.445  1.00  0.00     0.005 C 
ENDBRANCH   3   4
ENDBRANCH   2   3
ENDBRANCH   1   2
BRANCH   1   6
HETATM    6  C5  UNL     1      25.721   0.458  52.245  1.00  0.00     0.314 C 
BRANCH   6   7
HETATM    7  C6  UNL     1      27.087   0.196  52.757  1.00  0.00     0.003 A 
HETATM    8  C7  UNL     1      27.551  -1.121  52.879  1.00  0.00     0.012 A 
HETATM    9  C8  UNL     1      28.840  -1.379  53.353  1.00  0.00     0.001 A 
HETATM   10  C9  UNL     1      29.661  -0.342  53.704  1.00  0.00     0.003 A 
HETATM   11  C10 UNL     1      29.187   0.969  53.578  1.00  0.00     0.037 A 
HETATM   12  C11 UNL     1      27.923   1.226  53.114  1.00  0.00     0.073 A 
BRANCH  12  13
HETATM   13  O1  UNL     1      27.442   2.518  52.985  1.00  0.00    -0.360 OA
HETATM   14  H16 UNL     1      27.125   2.878  52.114  1.00  0.00     0.217 HD
ENDBRANCH  12  13
ENDBRANCH   6   7
ENDBRANCH   1   6
BRANCH   1  15
HETATM   15  C12 UNL     1      24.105   1.863  53.301  1.00  0.00     0.314 C 
BRANCH  15  16
HETATM   16  C13 UNL     1      23.713   2.357  51.970  1.00  0.00     0.006 A 
HETATM   17  C14 UNL     1      22.564   1.768  51.405  1.00  0.00     0.030 A 
HETATM   18  C15 UNL     1      21.989   2.067  50.198  1.00  0.00     0.013 A 
HETATM   19 BR1  UNL     1      20.425   1.169  49.581  1.00  0.00    -0.051 Br
HETATM   20  C16 UNL     1      22.589   3.051  49.441  1.00  0.00     0.041 A 
HETATM   21  C17 UNL     1      23.704   3.669  49.914  1.00  0.00     0.045 A 
HETATM   22 BR2  UNL     1      24.580   5.037  48.915  1.00  0.00    -0.048 Br
HETATM   23  C18 UNL     1      24.226   3.317  51.135  1.00  0.00     0.091 A 
BRANCH  23  24
HETATM   24  O2  UNL     1      25.363   3.963  51.589  1.00  0.00    -0.359 OA
HETATM   25  H21 UNL     1      26.202   3.415  51.824  1.00  0.00     0.217 HD
ENDBRANCH  23  24
ENDBRANCH  15  16
ENDBRANCH   1  15
TORSDOF 9
ENDMDL
MODEL 7
REMARK VINA RESULT:      -7.1      2.966      5.160
REMARK  9 active torsions:
REMARK  status: ('A' for Active; 'I' for Inactive)
REMARK    1  A    between atoms: C2_2  and  C3_3 
REMARK    2  A    between atoms: C3_3  and  C4_4 
REMARK    3  A    between atoms: C4_4  and  N1_5 
REMARK    4  A    between atoms: N1_5  and  C5_6 
REMARK    5  A    between atoms: N1_5  and  C12_14 
REMARK    6  A    between atoms: C5_6  and  C6_7 
REMARK    7  A    between atoms: C11_12  and  O1_13 
REMARK    8  A    between atoms: C12_14  and  C13_15 
REMARK    9  A    between atoms: C18_22  and  O2_23 
ROOT
HETATM    1  N1  UNL     1      24.809   1.718  52.241  1.00  0.00     0.097 N 
ENDROOT
BRANCH   1   2
HETATM    2  C4  UNL     1      23.935   1.200  53.228  1.00  0.00     0.273 C 
BRANCH   2   3
HETATM    3  C3  UNL     1      22.684   0.560  52.778  1.00  0.00     0.030 C 
BRANCH   3   4
HETATM    4  C2  UNL     1      22.625  -0.827  53.433  1.00  0.00    -0.003 C 
HETATM    5  C1  UNL     1      21.689  -0.832  54.612  1.00  0.00     0.005 C 
ENDBRANCH   3   4
ENDBRANCH   2   3
ENDBRANCH   1   2
BRANCH   1   6
HETATM    6  C5  UNL     1      25.820   0.685  52.005  1.00  0.00     0.314 C 
BRANCH   6   7
HETATM    7  C6  UNL     1      27.016   0.899  52.854  1.00  0.00     0.003 A 
HETATM    8  C7  UNL     1      27.650   2.149  52.871  1.00  0.00     0.012 A 
HETATM    9  C8  UNL     1      28.773   2.364  53.673  1.00  0.00     0.001 A 
HETATM   10  C9  UNL     1      29.264   1.351  54.451  1.00  0.00     0.003 A 
HETATM   11  C10 UNL     1      28.623   0.108  54.427  1.00  0.00     0.037 A 
HETATM   12  C11 UNL     1      27.521  -0.108  53.640  1.00  0.00     0.073 A 
BRANCH  12  13
HETATM   13  O1  UNL     1      26.877  -1.334  53.607  1.00  0.00    -0.360 OA
HETATM   14  H16 UNL     1      26.293  -1.601  52.848  1.00  0.00     0.217 HD
ENDBRANCH  12  13
ENDBRANCH   6   7
ENDBRANCH   1   6
BRANCH   1  15
HETATM   15  C12 UNL     1      24.249   2.181  51.009  1.00  0.00     0.314 C 
BRANCH  15  16
HETATM   16  C13 UNL     1      24.555   3.570  50.628  1.00  0.00     0.006 A 
HETATM   17  C14 UNL     1      25.768   3.770  49.939  1.00  0.00     0.030 A 
HETATM   18  C15 UNL     1      26.264   4.955  49.463  1.00  0.00     0.013 A 
HETATM   19 BR1  UNL     1      27.931   5.049  48.545  1.00  0.00    -0.051 Br
HETATM   20  C16 UNL     1      25.504   6.086  49.673  1.00  0.00     0.041 A 
HETATM   21  C17 UNL     1      24.320   5.979  50.333  1.00  0.00     0.045 A 
HETATM   22 BR2  UNL     1      23.223   7.505  50.656  1.00  0.00    -0.048 Br
HETATM   23  C18 UNL     1      23.884   4.757  50.783  1.00  0.00     0.091 A 
BRANCH  23  24
HETATM   24  O2  UNL     1      22.675   4.681  51.452  1.00  0.00    -0.359 OA
HETATM   25  H21 UNL     1      22.121   5.534  51.603  1.00  0.00     0.217 HD
ENDBRANCH  23  24
ENDBRANCH  15  16
ENDBRANCH   1  15
TORSDOF 9
ENDMDL
MODEL 8
REMARK VINA RESULT:      -7.0      2.932      5.147
REMARK  9 active torsions:
REMARK  status: ('A' for Active; 'I' for Inactive)
REMARK    1  A    between atoms: C2_2  and  C3_3 
REMARK    2  A    between atoms: C3_3  and  C4_4 
REMARK    3  A    between atoms: C4_4  and  N1_5 
REMARK    4  A    between atoms: N1_5  and  C5_6 
REMARK    5  A    between atoms: N1_5  and  C12_14 
REMARK    6  A    between atoms: C5_6  and  C6_7 
REMARK    7  A    between atoms: C11_12  and  O1_13 
REMARK    8  A    between atoms: C12_14  and  C13_15 
REMARK    9  A    between atoms: C18_22  and  O2_23 
ROOT
HETATM    1  N1  UNL     1      24.878   1.579  52.205  1.00  0.00     0.097 N 
ENDROOT
BRANCH   1   2
HETATM    2  C4  UNL     1      24.012   0.999  53.165  1.00  0.00     0.273 C 
BRANCH   2   3
HETATM    3  C3  UNL     1      22.620   0.722  52.762  1.00  0.00     0.030 C 
BRANCH   3   4
HETATM    4  C2  UNL     1      22.313  -0.727  53.166  1.00  0.00    -0.003 C 
HETATM    5  C1  UNL     1      22.012  -0.828  54.638  1.00  0.00     0.005 C 
ENDBRANCH   3   4
ENDBRANCH   2   3
ENDBRANCH   1   2
BRANCH   1   6
HETATM    6  C5  UNL     1      25.953   0.610  51.983  1.00  0.00     0.314 C 
BRANCH   6   7
HETATM    7  C6  UNL     1      27.118   0.890  52.855  1.00  0.00     0.003 A 
HETATM    8  C7  UNL     1      27.685   2.172  52.880  1.00  0.00     0.012 A 
HETATM    9  C8  UNL     1      28.779   2.448  53.703  1.00  0.00     0.001 A 
HETATM   10  C9  UNL     1      29.306   1.466  54.496  1.00  0.00     0.003 A 
HETATM   11  C10 UNL     1      28.732   0.190  54.464  1.00  0.00     0.037 A 
HETATM   12  C11 UNL     1      27.659  -0.086  53.656  1.00  0.00     0.073 A 
BRANCH  12  13
HETATM   13  O1  UNL     1      27.082  -1.344  53.615  1.00  0.00    -0.360 OA
HETATM   14  H16 UNL     1      26.151  -1.487  53.296  1.00  0.00     0.217 HD
ENDBRANCH  12  13
ENDBRANCH   6   7
ENDBRANCH   1   6
BRANCH   1  15
HETATM   15  C12 UNL     1      24.322   2.024  50.965  1.00  0.00     0.314 C 
BRANCH  15  16
HETATM   16  C13 UNL     1      24.801   3.321  50.456  1.00  0.00     0.006 A 
HETATM   17  C14 UNL     1      23.956   4.425  50.684  1.00  0.00     0.030 A 
HETATM   18  C15 UNL     1      24.184   5.729  50.330  1.00  0.00     0.013 A 
HETATM   19 BR1  UNL     1      22.927   7.109  50.718  1.00  0.00    -0.051 Br
HETATM   20  C16 UNL     1      25.366   6.007  49.678  1.00  0.00     0.041 A 
HETATM   21  C17 UNL     1      26.238   4.996  49.419  1.00  0.00     0.045 A 
HETATM   22 BR2  UNL     1      27.890   5.316  48.521  1.00  0.00    -0.048 Br
HETATM   23  C18 UNL     1      25.943   3.711  49.803  1.00  0.00     0.091 A 
BRANCH  23  24
HETATM   24  O2  UNL     1      26.849   2.703  49.523  1.00  0.00    -0.359 OA
HETATM   25  H21 UNL     1      27.393   2.734  48.650  1.00  0.00     0.217 HD
ENDBRANCH  23  24
ENDBRANCH  15  16
ENDBRANCH   1  15
TORSDOF 9
ENDMDL
MODEL 9
REMARK VINA RESULT:      -7.0      3.271      5.473
REMARK  9 active torsions:
REMARK  status: ('A' for Active; 'I' for Inactive)
REMARK    1  A    between atoms: C2_2  and  C3_3 
REMARK    2  A    between atoms: C3_3  and  C4_4 
REMARK    3  A    between atoms: C4_4  and  N1_5 
REMARK    4  A    between atoms: N1_5  and  C5_6 
REMARK    5  A    between atoms: N1_5  and  C12_14 
REMARK    6  A    between atoms: C5_6  and  C6_7 
REMARK    7  A    between atoms: C11_12  and  O1_13 
REMARK    8  A    between atoms: C12_14  and  C13_15 
REMARK    9  A    between atoms: C18_22  and  O2_23 
ROOT
HETATM    1  N1  UNL     1      23.293   3.689  50.623  1.00  0.00     0.097 N 
ENDROOT
BRANCH   1   2
HETATM    2  C4  UNL     1      22.361   3.495  49.573  1.00  0.00     0.273 C 
BRANCH   2   3
HETATM    3  C3  UNL     1      22.655   2.454  48.571  1.00  0.00     0.030 C 
BRANCH   3   4
HETATM    4  C2  UNL     1      21.396   1.587  48.438  1.00  0.00    -0.003 C 
HETATM    5  C1  UNL     1      21.264   0.638  49.599  1.00  0.00     0.005 C 
ENDBRANCH   3   4
ENDBRANCH   2   3
ENDBRANCH   1   2
BRANCH   1   6
HETATM    6  C5  UNL     1      23.768   5.069  50.501  1.00  0.00     0.314 C 
BRANCH   6   7
HETATM    7  C6  UNL     1      25.090   5.124  49.832  1.00  0.00     0.003 A 
HETATM    8  C7  UNL     1      25.903   3.983  49.787  1.00  0.00     0.012 A 
HETATM    9  C8  UNL     1      27.147   4.023  49.153  1.00  0.00     0.001 A 
HETATM   10  C9  UNL     1      27.582   5.181  48.569  1.00  0.00     0.003 A 
HETATM   11  C10 UNL     1      26.763   6.314  48.619  1.00  0.00     0.037 A 
HETATM   12  C11 UNL     1      25.541   6.280  49.241  1.00  0.00     0.073 A 
BRANCH  12  13
HETATM   13  O1  UNL     1      24.720   7.394  49.298  1.00  0.00    -0.360 OA
HETATM   14  H16 UNL     1      24.883   8.135  49.940  1.00  0.00     0.217 HD
ENDBRANCH  12  13
ENDBRANCH   6   7
ENDBRANCH   1   6
BRANCH   1  15
HETATM   15  C12 UNL     1      22.881   3.403  51.963  1.00  0.00     0.314 C 
BRANCH  15  16
HETATM   16  C13 UNL     1      23.163   2.047  52.463  1.00  0.00     0.006 A 
HETATM   17  C14 UNL     1      24.495   1.605  52.334  1.00  0.00     0.030 A 
HETATM   18  C15 UNL     1      25.010   0.401  52.737  1.00  0.00     0.013 A 
HETATM   19 BR1  UNL     1      26.847  -0.039  52.486  1.00  0.00    -0.051 Br
HETATM   20  C16 UNL     1      24.143  -0.485  53.338  1.00  0.00     0.041 A 
HETATM   21  C17 UNL     1      22.839  -0.136  53.500  1.00  0.00     0.045 A 
HETATM   22 BR2  UNL     1      21.589  -1.318  54.324  1.00  0.00    -0.048 Br
HETATM   23  C18 UNL     1      22.391   1.089  53.070  1.00  0.00     0.091 A 
BRANCH  23  24
HETATM   24  O2  UNL     1      21.057   1.416  53.247  1.00  0.00    -0.359 OA
HETATM   25  H21 UNL     1      20.587   2.029  52.567  1.00  0.00     0.217 HD
ENDBRANCH  23  24
ENDBRANCH  15  16
ENDBRANCH   1  15
TORSDOF 9
ENDMDL
