MODEL 1
REMARK VINA RESULT:      -8.2      0.000      0.000
REMARK  5 active torsions:
REMARK  status: ('A' for Active; 'I' for Inactive)
REMARK    1  A    between atoms: O1_2  and  C2_3 
REMARK    2  A    between atoms: C6_9  and  O2_10 
REMARK    3  A    between atoms: O2_10  and  C7_11 
REMARK    4  A    between atoms: C10_14  and  N3_15 
REMARK       I    between atoms: N3_15  and  C11_16 
REMARK    5  A    between atoms: C18_24  and  O4_25 
ROOT
HETATM    1  C2  UNL     1      17.440  -0.509  51.871  1.00  0.00     0.103 A 
HETATM    2  C3  UNL     1      17.979   0.104  50.770  1.00  0.00     0.072 A 
HETATM    3  C4  UNL     1      19.297   0.508  50.803  1.00  0.00     0.075 A 
HETATM    4  N1  UNL     1      19.849   1.119  49.718  1.00  0.00    -0.241 NA
HETATM    5  C5  UNL     1      21.132   1.522  49.723  1.00  0.00     0.236 A 
HETATM    6  N2  UNL     1      21.954   1.353  50.795  1.00  0.00    -0.217 NA
HETATM    7  C6  UNL     1      21.450   0.746  51.909  1.00  0.00     0.183 A 
HETATM    8  C16 UNL     1      20.127   0.334  51.890  1.00  0.00     0.049 A 
HETATM    9  C17 UNL     1      19.522  -0.291  52.968  1.00  0.00     0.057 A 
HETATM   10  C18 UNL     1      18.218  -0.713  52.994  1.00  0.00     0.100 A 
ENDROOT
BRANCH   7  11
HETATM   11  O2  UNL     1      22.111   0.481  53.091  1.00  0.00    -0.295 OA
BRANCH  11  12
HETATM   12  C7  UNL     1      23.499   0.610  53.126  1.00  0.00     0.059 C 
HETATM   13  C8  UNL     1      24.063  -0.583  53.180  1.00  0.00     0.035 C 
HETATM   14  C9  UNL     1      25.505  -0.799  53.228  1.00  0.00     0.032 C 
HETATM   15  C10 UNL     1      26.470   0.018  52.797  1.00  0.00     0.034 C 
HETATM   16  C13 UNL     1      26.281   1.340  52.167  1.00  0.00     0.026 C 
HETATM   17  C14 UNL     1      25.224   2.097  52.338  1.00  0.00    -0.018 C 
HETATM   18  C15 UNL     1      23.949   2.025  53.093  1.00  0.00     0.092 C 
BRANCH  15  19
HETATM   19  N3  UNL     1      27.815  -0.401  52.947  1.00  0.00    -0.328 N 
HETATM   20  C11 UNL     1      28.764  -0.141  53.999  1.00  0.00     0.218 C 
HETATM   21  C12 UNL     1      30.106  -0.774  53.786  1.00  0.00     0.117 C 
HETATM   22  O3  UNL     1      28.310   0.581  54.934  1.00  0.00    -0.274 OA
HETATM   23  H8  UNL     1      28.036  -0.975  52.114  1.00  0.00     0.169 HD
ENDBRANCH  15  19
ENDBRANCH  11  12
ENDBRANCH   7  11
BRANCH  10  24
HETATM   24  O4  UNL     1      17.722  -1.334  54.147  1.00  0.00    -0.358 OA
HETATM   25  H17 UNL     1      16.760  -1.090  54.392  1.00  0.00     0.217 HD
ENDBRANCH  10  24
BRANCH   1  26
HETATM   26  O1  UNL     1      16.129  -0.955  51.947  1.00  0.00    -0.353 OA
HETATM   27  C1  UNL     1      15.511  -1.482  50.807  1.00  0.00     0.210 C 
ENDBRANCH   1  26
TORSDOF 5
ENDMDL
MODEL 2
REMARK VINA RESULT:      -8.1      3.662      5.849
REMARK  5 active torsions:
REMARK  status: ('A' for Active; 'I' for Inactive)
REMARK    1  A    between atoms: O1_2  and  C2_3 
REMARK    2  A    between atoms: C6_9  and  O2_10 
REMARK    3  A    between atoms: O2_10  and  C7_11 
REMARK    4  A    between atoms: C10_14  and  N3_15 
REMARK       I    between atoms: N3_15  and  C11_16 
REMARK    5  A    between atoms: C18_24  and  O4_25 
ROOT
HETATM    1  C2  UNL     1      23.795   6.602  49.656  1.00  0.00     0.103 A 
HETATM    2  C3  UNL     1      23.372   5.743  48.676  1.00  0.00     0.072 A 
HETATM    3  C4  UNL     1      23.075   4.438  49.008  1.00  0.00     0.075 A 
HETATM    4  N1  UNL     1      22.654   3.569  48.048  1.00  0.00    -0.241 NA
HETATM    5  C5  UNL     1      22.358   2.292  48.343  1.00  0.00     0.236 A 
HETATM    6  N2  UNL     1      22.458   1.785  49.603  1.00  0.00    -0.217 NA
HETATM    7  C6  UNL     1      22.876   2.613  50.604  1.00  0.00     0.183 A 
HETATM    8  C16 UNL     1      23.177   3.928  50.285  1.00  0.00     0.049 A 
HETATM    9  C17 UNL     1      23.609   4.847  51.227  1.00  0.00     0.057 A 
HETATM   10  C18 UNL     1      23.919   6.155  50.957  1.00  0.00     0.100 A 
ENDROOT
BRANCH   7  11
HETATM   11  O2  UNL     1      23.043   2.299  51.937  1.00  0.00    -0.295 OA
BRANCH  11  12
HETATM   12  C7  UNL     1      23.958   1.305  52.282  1.00  0.00     0.059 C 
HETATM   13  C8  UNL     1      25.184   1.696  51.987  1.00  0.00     0.035 C 
HETATM   14  C9  UNL     1      26.375   0.887  52.223  1.00  0.00     0.032 C 
HETATM   15  C10 UNL     1      26.533  -0.097  53.114  1.00  0.00     0.034 C 
HETATM   16  C13 UNL     1      25.517  -0.585  54.068  1.00  0.00     0.026 C 
HETATM   17  C14 UNL     1      24.223  -0.463  53.898  1.00  0.00    -0.018 C 
HETATM   18  C15 UNL     1      23.313   0.106  52.875  1.00  0.00     0.092 C 
BRANCH  15  19
HETATM   19  N3  UNL     1      27.788  -0.751  53.168  1.00  0.00    -0.328 N 
HETATM   20  C11 UNL     1      28.938  -0.504  54.001  1.00  0.00     0.218 C 
HETATM   21  C12 UNL     1      30.088  -1.431  53.750  1.00  0.00     0.117 C 
HETATM   22  O3  UNL     1      28.788   0.457  54.811  1.00  0.00    -0.274 OA
HETATM   23  H8  UNL     1      27.756  -1.503  52.457  1.00  0.00     0.169 HD
ENDBRANCH  15  19
ENDBRANCH  11  12
ENDBRANCH   7  11
BRANCH  10  24
HETATM   24  O4  UNL     1      24.346   6.986  52.000  1.00  0.00    -0.358 OA
HETATM   25  H17 UNL     1      23.959   6.763  52.919  1.00  0.00     0.217 HD
ENDBRANCH  10  24
BRANCH   1  26
HETATM   26  O1  UNL     1      24.119   7.932  49.435  1.00  0.00    -0.353 OA
HETATM   27  C1  UNL     1      23.116   8.836  49.065  1.00  0.00     0.210 C 
ENDBRANCH   1  26
TORSDOF 5
ENDMDL
MODEL 3
REMARK VINA RESULT:      -7.9      4.012      8.529
REMARK  5 active torsions:
REMARK  status: ('A' for Active; 'I' for Inactive)
REMARK    1  A    between atoms: O1_2  and  C2_3 
REMARK    2  A    between atoms: C6_9  and  O2_10 
REMARK    3  A    between atoms: O2_10  and  C7_11 
REMARK    4  A    between atoms: C10_14  and  N3_15 
REMARK       I    between atoms: N3_15  and  C11_16 
REMARK    5  A    between atoms: C18_24  and  O4_25 
ROOT
HETATM    1  C2  UNL     1      28.339   0.641  53.664  1.00  0.00     0.103 A 
HETATM    2  C3  UNL     1      27.305  -0.235  53.869  1.00  0.00     0.072 A 
HETATM    3  C4  UNL     1      26.012   0.187  53.646  1.00  0.00     0.075 A 
HETATM    4  N1  UNL     1      24.972  -0.669  53.846  1.00  0.00    -0.241 NA
HETATM    5  C5  UNL     1      23.701  -0.284  53.635  1.00  0.00     0.236 A 
HETATM    6  N2  UNL     1      23.370   0.969  53.216  1.00  0.00    -0.217 NA
HETATM    7  C6  UNL     1      24.375   1.867  53.001  1.00  0.00     0.183 A 
HETATM    8  C16 UNL     1      25.680   1.456  53.222  1.00  0.00     0.049 A 
HETATM    9  C17 UNL     1      26.770   2.291  53.033  1.00  0.00     0.057 A 
HETATM   10  C18 UNL     1      28.076   1.928  53.238  1.00  0.00     0.100 A 
ENDROOT
BRANCH   7  11
HETATM   11  O2  UNL     1      24.254   3.175  52.580  1.00  0.00    -0.295 OA
BRANCH  11  12
HETATM   12  C7  UNL     1      23.486   3.447  51.448  1.00  0.00     0.059 C 
HETATM   13  C8  UNL     1      24.090   2.983  50.369  1.00  0.00     0.035 C 
HETATM   14  C9  UNL     1      23.551   3.104  49.020  1.00  0.00     0.032 C 
HETATM   15  C10 UNL     1      22.272   3.254  48.659  1.00  0.00     0.034 C 
HETATM   16  C13 UNL     1      21.111   3.333  49.567  1.00  0.00     0.026 C 
HETATM   17  C14 UNL     1      21.175   3.715  50.820  1.00  0.00    -0.018 C 
HETATM   18  C15 UNL     1      22.226   4.168  51.763  1.00  0.00     0.092 C 
BRANCH  15  19
HETATM   19  N3  UNL     1      21.976   3.351  47.278  1.00  0.00    -0.328 N 
HETATM   20  C11 UNL     1      21.961   4.496  46.402  1.00  0.00     0.218 C 
HETATM   21  C12 UNL     1      21.592   4.179  44.984  1.00  0.00     0.117 C 
HETATM   22  O3  UNL     1      22.261   5.585  46.974  1.00  0.00    -0.274 OA
HETATM   23  H8  UNL     1      21.754   2.392  46.959  1.00  0.00     0.169 HD
ENDBRANCH  15  19
ENDBRANCH  11  12
ENDBRANCH   7  11
BRANCH  10  24
HETATM   24  O4  UNL     1      29.090   2.866  53.012  1.00  0.00    -0.358 OA
HETATM   25  H17 UNL     1      28.882   3.816  53.328  1.00  0.00     0.217 HD
ENDBRANCH  10  24
BRANCH   1  26
HETATM   26  O1  UNL     1      29.675   0.323  53.857  1.00  0.00    -0.353 OA
HETATM   27  C1  UNL     1      30.091  -1.010  53.756  1.00  0.00     0.210 C 
ENDBRANCH   1  26
TORSDOF 5
ENDMDL
MODEL 4
REMARK VINA RESULT:      -7.9      2.192      8.633
REMARK  5 active torsions:
REMARK  status: ('A' for Active; 'I' for Inactive)
REMARK    1  A    between atoms: O1_2  and  C2_3 
REMARK    2  A    between atoms: C6_9  and  O2_10 
REMARK    3  A    between atoms: O2_10  and  C7_11 
REMARK    4  A    between atoms: C10_14  and  N3_15 
REMARK       I    between atoms: N3_15  and  C11_16 
REMARK    5  A    between atoms: C18_24  and  O4_25 
ROOT
HETATM    1  C2  UNL     1      28.171  -0.734  53.278  1.00  0.00     0.103 A 
HETATM    2  C3  UNL     1      27.881   0.579  53.542  1.00  0.00     0.072 A 
HETATM    3  C4  UNL     1      26.582   1.022  53.409  1.00  0.00     0.075 A 
HETATM    4  N1  UNL     1      26.276   2.323  53.667  1.00  0.00    -0.241 NA
HETATM    5  C5  UNL     1      25.018   2.781  53.546  1.00  0.00     0.236 A 
HETATM    6  N2  UNL     1      23.979   1.989  53.163  1.00  0.00    -0.217 NA
HETATM    7  C6  UNL     1      24.231   0.675  52.893  1.00  0.00     0.183 A 
HETATM    8  C16 UNL     1      25.533   0.217  53.021  1.00  0.00     0.049 A 
HETATM    9  C17 UNL     1      25.892  -1.098  52.770  1.00  0.00     0.057 A 
HETATM   10  C18 UNL     1      27.165  -1.595  52.885  1.00  0.00     0.100 A 
ENDROOT
BRANCH   7  11
HETATM   11  O2  UNL     1      23.326  -0.287  52.493  1.00  0.00    -0.295 OA
BRANCH  11  12
HETATM   12  C7  UNL     1      21.964   0.006  52.554  1.00  0.00     0.059 C 
HETATM   13  C8  UNL     1      21.539   0.427  51.376  1.00  0.00     0.035 C 
HETATM   14  C9  UNL     1      20.161   0.817  51.102  1.00  0.00     0.032 C 
HETATM   15  C10 UNL     1      19.056   0.431  51.749  1.00  0.00     0.034 C 
HETATM   16  C13 UNL     1      18.994  -0.489  52.901  1.00  0.00     0.026 C 
HETATM   17  C14 UNL     1      19.986  -0.705  53.731  1.00  0.00    -0.018 C 
HETATM   18  C15 UNL     1      21.381  -0.232  53.899  1.00  0.00     0.092 C 
BRANCH  15  19
HETATM   19  N3  UNL     1      17.812   0.941  51.305  1.00  0.00    -0.328 N 
HETATM   20  C11 UNL     1      17.268   2.274  51.374  1.00  0.00     0.218 C 
HETATM   21  C12 UNL     1      15.897   2.409  50.783  1.00  0.00     0.117 C 
HETATM   22  O3  UNL     1      18.038   3.115  51.925  1.00  0.00    -0.274 OA
HETATM   23  H8  UNL     1      17.303   0.144  50.883  1.00  0.00     0.169 HD
ENDBRANCH  15  19
ENDBRANCH  11  12
ENDBRANCH   7  11
BRANCH  10  24
HETATM   24  O4  UNL     1      27.400  -2.945  52.602  1.00  0.00    -0.358 OA
HETATM   25  H17 UNL     1      27.044  -3.603  53.298  1.00  0.00     0.217 HD
ENDBRANCH  10  24
BRANCH   1  26
HETATM   26  O1  UNL     1      29.440  -1.285  53.379  1.00  0.00    -0.353 OA
HETATM   27  C1  UNL     1      30.516  -0.476  53.765  1.00  0.00     0.210 C 
ENDBRANCH   1  26
TORSDOF 5
ENDMDL
MODEL 5
REMARK VINA RESULT:      -7.9      1.905      8.322
REMARK  5 active torsions:
REMARK  status: ('A' for Active; 'I' for Inactive)
REMARK    1  A    between atoms: O1_2  and  C2_3 
REMARK    2  A    between atoms: C6_9  and  O2_10 
REMARK    3  A    between atoms: O2_10  and  C7_11 
REMARK    4  A    between atoms: C10_14  and  N3_15 
REMARK       I    between atoms: N3_15  and  C11_16 
REMARK    5  A    between atoms: C18_24  and  O4_25 
ROOT
HETATM    1  C2  UNL     1      27.663   0.254  53.932  1.00  0.00     0.103 A 
HETATM    2  C3  UNL     1      27.875   1.024  52.818  1.00  0.00     0.072 A 
HETATM    3  C4  UNL     1      26.828   1.753  52.296  1.00  0.00     0.075 A 
HETATM    4  N1  UNL     1      27.019   2.524  51.189  1.00  0.00    -0.241 NA
HETATM    5  C5  UNL     1      26.017   3.245  50.659  1.00  0.00     0.236 A 
HETATM    6  N2  UNL     1      24.760   3.255  51.182  1.00  0.00    -0.217 NA
HETATM    7  C6  UNL     1      24.513   2.499  52.292  1.00  0.00     0.183 A 
HETATM    8  C16 UNL     1      25.556   1.761  52.828  1.00  0.00     0.049 A 
HETATM    9  C17 UNL     1      25.409   0.963  53.951  1.00  0.00     0.057 A 
HETATM   10  C18 UNL     1      26.411   0.216  54.515  1.00  0.00     0.100 A 
ENDROOT
BRANCH   7  11
HETATM   11  O2  UNL     1      23.318   2.371  52.970  1.00  0.00    -0.295 OA
BRANCH  11  12
HETATM   12  C7  UNL     1      22.133   2.316  52.237  1.00  0.00     0.059 C 
HETATM   13  C8  UNL     1      21.856   1.064  51.918  1.00  0.00     0.035 C 
HETATM   14  C9  UNL     1      20.683   0.661  51.151  1.00  0.00     0.032 C 
HETATM   15  C10 UNL     1      19.522   1.312  51.027  1.00  0.00     0.034 C 
HETATM   16  C13 UNL     1      19.173   2.604  51.652  1.00  0.00     0.026 C 
HETATM   17  C14 UNL     1      20.047   3.504  52.030  1.00  0.00    -0.018 C 
HETATM   18  C15 UNL     1      21.523   3.653  52.023  1.00  0.00     0.092 C 
BRANCH  15  19
HETATM   19  N3  UNL     1      18.513   0.728  50.223  1.00  0.00    -0.328 N 
HETATM   20  C11 UNL     1      17.431  -0.156  50.575  1.00  0.00     0.218 C 
HETATM   21  C12 UNL     1      16.565  -0.556  49.419  1.00  0.00     0.117 C 
HETATM   22  O3  UNL     1      17.387  -0.450  51.806  1.00  0.00    -0.274 OA
HETATM   23  H8  UNL     1      18.681   1.060  49.257  1.00  0.00     0.169 HD
ENDBRANCH  15  19
ENDBRANCH  11  12
ENDBRANCH   7  11
BRANCH  10  24
HETATM   24  O4  UNL     1      26.135  -0.551  55.653  1.00  0.00    -0.358 OA
HETATM   25  H17 UNL     1      25.571  -1.387  55.486  1.00  0.00     0.217 HD
ENDBRANCH  10  24
BRANCH   1  26
HETATM   26  O1  UNL     1      28.642  -0.518  54.540  1.00  0.00    -0.353 OA
HETATM   27  C1  UNL     1      29.768  -0.910  53.806  1.00  0.00     0.210 C 
ENDBRANCH   1  26
TORSDOF 5
ENDMDL
MODEL 6
REMARK VINA RESULT:      -7.7      4.429      8.834
REMARK  5 active torsions:
REMARK  status: ('A' for Active; 'I' for Inactive)
REMARK    1  A    between atoms: O1_2  and  C2_3 
REMARK    2  A    between atoms: C6_9  and  O2_10 
REMARK    3  A    between atoms: O2_10  and  C7_11 
REMARK    4  A    between atoms: C10_14  and  N3_15 
REMARK       I    between atoms: N3_15  and  C11_16 
REMARK    5  A    between atoms: C18_24  and  O4_25 
ROOT
HETATM    1  C2  UNL     1      28.440   0.465  53.433  1.00  0.00     0.103 A 
HETATM    2  C3  UNL     1      27.395  -0.420  53.483  1.00  0.00     0.072 A 
HETATM    3  C4  UNL     1      26.105   0.054  53.374  1.00  0.00     0.075 A 
HETATM    4  N1  UNL     1      25.055  -0.811  53.422  1.00  0.00    -0.241 NA
HETATM    5  C5  UNL     1      23.787  -0.376  53.318  1.00  0.00     0.236 A 
HETATM    6  N2  UNL     1      23.470   0.939  53.161  1.00  0.00    -0.217 NA
HETATM    7  C6  UNL     1      24.486   1.849  53.107  1.00  0.00     0.183 A 
HETATM    8  C16 UNL     1      25.788   1.386  53.216  1.00  0.00     0.049 A 
HETATM    9  C17 UNL     1      26.887   2.228  53.173  1.00  0.00     0.057 A 
HETATM   10  C18 UNL     1      28.191   1.815  53.276  1.00  0.00     0.100 A 
ENDROOT
BRANCH   7  11
HETATM   11  O2  UNL     1      24.379   3.217  52.955  1.00  0.00    -0.295 OA
BRANCH  11  12
HETATM   12  C7  UNL     1      23.630   3.716  51.890  1.00  0.00     0.059 C 
HETATM   13  C8  UNL     1      22.680   4.516  52.340  1.00  0.00     0.035 C 
HETATM   14  C9  UNL     1      21.721   5.202  51.482  1.00  0.00     0.032 C 
HETATM   15  C10 UNL     1      21.862   5.528  50.193  1.00  0.00     0.034 C 
HETATM   16  C13 UNL     1      23.040   5.256  49.346  1.00  0.00     0.026 C 
HETATM   17  C14 UNL     1      23.906   4.297  49.568  1.00  0.00    -0.018 C 
HETATM   18  C15 UNL     1      24.101   3.222  50.571  1.00  0.00     0.092 C 
BRANCH  15  19
HETATM   19  N3  UNL     1      20.790   6.198  49.555  1.00  0.00    -0.328 N 
HETATM   20  C11 UNL     1      20.500   7.606  49.444  1.00  0.00     0.218 C 
HETATM   21  C12 UNL     1      19.252   7.916  48.675  1.00  0.00     0.117 C 
HETATM   22  O3  UNL     1      21.348   8.352  50.016  1.00  0.00    -0.274 OA
HETATM   23  H8  UNL     1      20.191   5.463  49.140  1.00  0.00     0.169 HD
ENDBRANCH  15  19
ENDBRANCH  11  12
ENDBRANCH   7  11
BRANCH  10  24
HETATM   24  O4  UNL     1      29.216   2.766  53.218  1.00  0.00    -0.358 OA
HETATM   25  H17 UNL     1      30.163   2.388  53.287  1.00  0.00     0.217 HD
ENDBRANCH  10  24
BRANCH   1  26
HETATM   26  O1  UNL     1      29.774   0.099  53.532  1.00  0.00    -0.353 OA
HETATM   27  C1  UNL     1      30.107  -1.239  53.773  1.00  0.00     0.210 C 
ENDBRANCH   1  26
TORSDOF 5
ENDMDL
MODEL 7
REMARK VINA RESULT:      -7.7      5.334      9.283
REMARK  5 active torsions:
REMARK  status: ('A' for Active; 'I' for Inactive)
REMARK    1  A    between atoms: O1_2  and  C2_3 
REMARK    2  A    between atoms: C6_9  and  O2_10 
REMARK    3  A    between atoms: O2_10  and  C7_11 
REMARK    4  A    between atoms: C10_14  and  N3_15 
REMARK       I    between atoms: N3_15  and  C11_16 
REMARK    5  A    between atoms: C18_24  and  O4_25 
ROOT
HETATM    1  C2  UNL     1      29.005   6.958  48.196  1.00  0.00     0.103 A 
HETATM    2  C3  UNL     1      27.897   7.679  48.557  1.00  0.00     0.072 A 
HETATM    3  C4  UNL     1      26.750   7.010  48.927  1.00  0.00     0.075 A 
HETATM    4  N1  UNL     1      25.639   7.709  49.289  1.00  0.00    -0.241 NA
HETATM    5  C5  UNL     1      24.507   7.082  49.654  1.00  0.00     0.236 A 
HETATM    6  N2  UNL     1      24.394   5.726  49.687  1.00  0.00    -0.217 NA
HETATM    7  C6  UNL     1      25.478   4.976  49.333  1.00  0.00     0.183 A 
HETATM    8  C16 UNL     1      26.638   5.636  48.959  1.00  0.00     0.049 A 
HETATM    9  C17 UNL     1      27.792   4.967  48.583  1.00  0.00     0.057 A 
HETATM   10  C18 UNL     1      28.960   5.577  48.205  1.00  0.00     0.100 A 
ENDROOT
BRANCH   7  11
HETATM   11  O2  UNL     1      25.570   3.599  49.298  1.00  0.00    -0.295 OA
BRANCH  11  12
HETATM   12  C7  UNL     1      25.339   2.882  50.471  1.00  0.00     0.059 C 
HETATM   13  C8  UNL     1      24.043   2.681  50.630  1.00  0.00     0.035 C 
HETATM   14  C9  UNL     1      23.465   1.962  51.759  1.00  0.00     0.032 C 
HETATM   15  C10 UNL     1      24.052   1.043  52.533  1.00  0.00     0.034 C 
HETATM   16  C13 UNL     1      25.439   0.552  52.408  1.00  0.00     0.026 C 
HETATM   17  C14 UNL     1      26.416   1.226  51.850  1.00  0.00    -0.018 C 
HETATM   18  C15 UNL     1      26.588   2.547  51.200  1.00  0.00     0.092 C 
BRANCH  15  19
HETATM   19  N3  UNL     1      23.292   0.471  53.582  1.00  0.00    -0.328 N 
HETATM   20  C11 UNL     1      22.586  -0.784  53.649  1.00  0.00     0.218 C 
HETATM   21  C12 UNL     1      21.894  -1.029  54.955  1.00  0.00     0.117 C 
HETATM   22  O3  UNL     1      22.667  -1.477  52.592  1.00  0.00    -0.274 OA
HETATM   23  H8  UNL     1      23.320   1.146  54.365  1.00  0.00     0.169 HD
ENDBRANCH  15  19
ENDBRANCH  11  12
ENDBRANCH   7  11
BRANCH  10  24
HETATM   24  O4  UNL     1      30.060   4.788  47.847  1.00  0.00    -0.358 OA
HETATM   25  H17 UNL     1      29.843   3.812  47.634  1.00  0.00     0.217 HD
ENDBRANCH  10  24
BRANCH   1  26
HETATM   26  O1  UNL     1      30.208   7.527  47.807  1.00  0.00    -0.353 OA
HETATM   27  C1  UNL     1      30.633   8.721  48.402  1.00  0.00     0.210 C 
ENDBRANCH   1  26
TORSDOF 5
ENDMDL
MODEL 8
REMARK VINA RESULT:      -7.7      2.033      8.558
REMARK  5 active torsions:
REMARK  status: ('A' for Active; 'I' for Inactive)
REMARK    1  A    between atoms: O1_2  and  C2_3 
REMARK    2  A    between atoms: C6_9  and  O2_10 
REMARK    3  A    between atoms: O2_10  and  C7_11 
REMARK    4  A    between atoms: C10_14  and  N3_15 
REMARK       I    between atoms: N3_15  and  C11_16 
REMARK    5  A    between atoms: C18_24  and  O4_25 
ROOT
HETATM    1  C2  UNL     1      26.440   1.142  54.105  1.00  0.00     0.103 A 
HETATM    2  C3  UNL     1      25.947   2.390  53.831  1.00  0.00     0.072 A 
HETATM    3  C4  UNL     1      24.726   2.508  53.201  1.00  0.00     0.075 A 
HETATM    4  N1  UNL     1      24.221   3.741  52.920  1.00  0.00    -0.241 NA
HETATM    5  C5  UNL     1      23.033   3.885  52.307  1.00  0.00     0.236 A 
HETATM    6  N2  UNL     1      22.265   2.826  51.930  1.00  0.00    -0.217 NA
HETATM    7  C6  UNL     1      22.725   1.567  52.188  1.00  0.00     0.183 A 
HETATM    8  C16 UNL     1      23.951   1.434  52.820  1.00  0.00     0.049 A 
HETATM    9  C17 UNL     1      24.505   0.201  53.126  1.00  0.00     0.057 A 
HETATM   10  C18 UNL     1      25.713   0.022  53.750  1.00  0.00     0.100 A 
ENDROOT
BRANCH   7  11
HETATM   11  O2  UNL     1      22.106   0.371  51.888  1.00  0.00    -0.295 OA
BRANCH  11  12
HETATM   12  C7  UNL     1      20.719   0.287  51.999  1.00  0.00     0.059 C 
HETATM   13  C8  UNL     1      20.159   0.457  50.814  1.00  0.00     0.035 C 
HETATM   14  C9  UNL     1      18.720   0.427  50.584  1.00  0.00     0.032 C 
HETATM   15  C10 UNL     1      17.784  -0.178  51.322  1.00  0.00     0.034 C 
HETATM   16  C13 UNL     1      18.012  -0.960  52.553  1.00  0.00     0.026 C 
HETATM   17  C14 UNL     1      19.049  -0.814  53.342  1.00  0.00    -0.018 C 
HETATM   18  C15 UNL     1      20.264   0.035  53.390  1.00  0.00     0.092 C 
BRANCH  15  19
HETATM   19  N3  UNL     1      16.435  -0.072  50.905  1.00  0.00    -0.328 N 
HETATM   20  C11 UNL     1      15.427   0.905  51.233  1.00  0.00     0.218 C 
HETATM   21  C12 UNL     1      14.102   0.664  50.577  1.00  0.00     0.117 C 
HETATM   22  O3  UNL     1      15.827   1.809  52.024  1.00  0.00    -0.274 OA
HETATM   23  H8  UNL     1      16.262  -0.872  50.272  1.00  0.00     0.169 HD
ENDBRANCH  15  19
ENDBRANCH  11  12
ENDBRANCH   7  11
BRANCH  10  24
HETATM   24  O4  UNL     1      26.165  -1.278  54.004  1.00  0.00    -0.358 OA
HETATM   25  H17 UNL     1      25.490  -2.019  53.805  1.00  0.00     0.217 HD
ENDBRANCH  10  24
BRANCH   1  26
HETATM   26  O1  UNL     1      27.654   0.907  54.733  1.00  0.00    -0.353 OA
HETATM   27  C1  UNL     1      28.841   0.990  53.996  1.00  0.00     0.210 C 
ENDBRANCH   1  26
TORSDOF 5
ENDMDL
MODEL 9
REMARK VINA RESULT:      -7.6      1.791      8.110
REMARK  5 active torsions:
REMARK  status: ('A' for Active; 'I' for Inactive)
REMARK    1  A    between atoms: O1_2  and  C2_3 
REMARK    2  A    between atoms: C6_9  and  O2_10 
REMARK    3  A    between atoms: O2_10  and  C7_11 
REMARK    4  A    between atoms: C10_14  and  N3_15 
REMARK       I    between atoms: N3_15  and  C11_16 
REMARK    5  A    between atoms: C18_24  and  O4_25 
ROOT
HETATM    1  C2  UNL     1      26.692  -0.383  53.405  1.00  0.00     0.103 A 
HETATM    2  C3  UNL     1      26.799   0.518  52.377  1.00  0.00     0.072 A 
HETATM    3  C4  UNL     1      25.705   1.285  52.038  1.00  0.00     0.075 A 
HETATM    4  N1  UNL     1      25.793   2.184  51.019  1.00  0.00    -0.241 NA
HETATM    5  C5  UNL     1      24.742   2.945  50.667  1.00  0.00     0.236 A 
HETATM    6  N2  UNL     1      23.535   2.869  51.294  1.00  0.00    -0.217 NA
HETATM    7  C6  UNL     1      23.392   1.984  52.322  1.00  0.00     0.183 A 
HETATM    8  C16 UNL     1      24.484   1.206  52.674  1.00  0.00     0.049 A 
HETATM    9  C17 UNL     1      24.442   0.278  53.702  1.00  0.00     0.057 A 
HETATM   10  C18 UNL     1      25.496  -0.511  54.085  1.00  0.00     0.100 A 
ENDROOT
BRANCH   7  11
HETATM   11  O2  UNL     1      22.262   1.754  53.080  1.00  0.00    -0.295 OA
BRANCH  11  12
HETATM   12  C7  UNL     1      21.240   0.975  52.541  1.00  0.00     0.059 C 
HETATM   13  C8  UNL     1      20.515   0.445  53.511  1.00  0.00     0.035 C 
HETATM   14  C9  UNL     1      19.367  -0.424  53.285  1.00  0.00     0.032 C 
HETATM   15  C10 UNL     1      18.588  -0.487  52.200  1.00  0.00     0.034 C 
HETATM   16  C13 UNL     1      18.727   0.325  50.975  1.00  0.00     0.026 C 
HETATM   17  C14 UNL     1      19.847   0.880  50.578  1.00  0.00    -0.018 C 
HETATM   18  C15 UNL     1      21.248   0.957  51.056  1.00  0.00     0.092 C 
BRANCH  15  19
HETATM   19  N3  UNL     1      17.519  -1.416  52.200  1.00  0.00    -0.328 N 
HETATM   20  C11 UNL     1      16.151  -1.269  52.632  1.00  0.00     0.218 C 
HETATM   21  C12 UNL     1      15.319  -2.504  52.466  1.00  0.00     0.117 C 
HETATM   22  O3  UNL     1      15.876  -0.118  53.083  1.00  0.00    -0.274 OA
HETATM   23  H8  UNL     1      17.896  -2.296  51.808  1.00  0.00     0.169 HD
ENDBRANCH  15  19
ENDBRANCH  11  12
ENDBRANCH   7  11
BRANCH  10  24
HETATM   24  O4  UNL     1      25.327  -1.413  55.142  1.00  0.00    -0.358 OA
HETATM   25  H17 UNL     1      24.416  -1.373  55.605  1.00  0.00     0.217 HD
ENDBRANCH  10  24
BRANCH   1  26
HETATM   26  O1  UNL     1      27.726  -1.203  53.830  1.00  0.00    -0.353 OA
HETATM   27  C1  UNL     1      29.039  -0.718  53.824  1.00  0.00     0.210 C 
ENDBRANCH   1  26
TORSDOF 5
ENDMDL
