MODEL 1
REMARK VINA RESULT:      -8.7      0.000      0.000
REMARK  5 active torsions:
REMARK  status: ('A' for Active; 'I' for Inactive)
REMARK    1  A    between atoms: C2_2  and  C3_3 
REMARK    2  A    between atoms: C4_4  and  C5_5 
REMARK       I    between atoms: C5_5  and  N1_7 
REMARK    3  A    between atoms: N1_7  and  C6_8 
REMARK    4  A    between atoms: C9_11  and  N2_12 
REMARK    5  A    between atoms: N2_12  and  C10_13 
ROOT
HETATM    1  C6  UNL     1      23.877   2.705  50.018  1.00  0.00     0.131 A 
HETATM    2  C7  UNL     1      23.985   2.066  51.224  1.00  0.00     0.068 A 
HETATM    3  C8  UNL     1      23.044   1.233  51.772  1.00  0.00     0.044 A 
HETATM    4  C9  UNL     1      23.152   0.590  52.984  1.00  0.00     0.142 A 
HETATM    5  N3  UNL     1      22.126  -0.169  53.326  1.00  0.00    -0.224 NA
HETATM    6  C16 UNL     1      21.020  -0.355  52.603  1.00  0.00     0.236 A 
HETATM    7  N4  UNL     1      20.931   0.281  51.421  1.00  0.00    -0.240 NA
HETATM    8  C17 UNL     1      21.919   1.066  51.001  1.00  0.00     0.089 A 
HETATM    9  C18 UNL     1      21.762   1.687  49.780  1.00  0.00     0.151 A 
HETATM   10  N5  UNL     1      22.738   2.505  49.288  1.00  0.00    -0.241 NA
ENDROOT
BRANCH   4  11
HETATM   11  N2  UNL     1      24.331   0.792  53.749  1.00  0.00    -0.340 N 
HETATM   12  H8  UNL     1      24.343   1.389  54.574  1.00  0.00     0.167 HD
BRANCH  11  13
HETATM   13  C10 UNL     1      25.641   0.272  53.571  1.00  0.00     0.035 A 
HETATM   14  C11 UNL     1      25.969  -0.937  52.994  1.00  0.00     0.032 A 
HETATM   15  C12 UNL     1      27.257  -1.384  52.851  1.00  0.00     0.046 A 
HETATM   16  C13 UNL     1      28.325  -0.634  53.285  1.00  0.00     0.138 A 
HETATM   17  F1  UNL     1      29.537  -1.184  53.086  1.00  0.00    -0.204 F 
HETATM   18  C14 UNL     1      28.045   0.582  53.868  1.00  0.00     0.074 A 
HETATM   19 CL1  UNL     1      29.437   1.497  54.402  1.00  0.00    -0.081 Cl
HETATM   20  C15 UNL     1      26.735   0.993  53.991  1.00  0.00     0.056 A 
ENDBRANCH  11  13
ENDBRANCH   4  11
BRANCH   1  21
HETATM   21  N1  UNL     1      24.894   3.559  49.503  1.00  0.00    -0.301 N 
HETATM   22  C5  UNL     1      26.315   3.456  49.691  1.00  0.00     0.302 C 
HETATM   23  O1  UNL     1      26.775   2.514  50.386  1.00  0.00    -0.258 OA
HETATM   24  H6  UNL     1      24.461   4.326  48.933  1.00  0.00     0.171 HD
BRANCH  22  25
HETATM   25  C4  UNL     1      27.146   4.447  49.065  1.00  0.00    -0.005 C 
HETATM   26  C3  UNL     1      27.849   5.268  48.528  1.00  0.00    -0.097 C 
BRANCH  26  27
HETATM   27  C2  UNL     1      28.698   6.284  47.893  1.00  0.00     0.090 C 
HETATM   28  C1  UNL     1      30.127   5.773  47.936  1.00  0.00     0.018 C 
ENDBRANCH  26  27
ENDBRANCH  22  25
ENDBRANCH   1  21
TORSDOF 5
ENDMDL
MODEL 2
REMARK VINA RESULT:      -8.6      1.393      1.800
REMARK  5 active torsions:
REMARK  status: ('A' for Active; 'I' for Inactive)
REMARK    1  A    between atoms: C2_2  and  C3_3 
REMARK    2  A    between atoms: C4_4  and  C5_5 
REMARK       I    between atoms: C5_5  and  N1_7 
REMARK    3  A    between atoms: N1_7  and  C6_8 
REMARK    4  A    between atoms: C9_11  and  N2_12 
REMARK    5  A    between atoms: N2_12  and  C10_13 
ROOT
HETATM    1  C6  UNL     1      24.349   3.318  50.094  1.00  0.00     0.131 A 
HETATM    2  C7  UNL     1      24.630   2.673  51.269  1.00  0.00     0.068 A 
HETATM    3  C8  UNL     1      23.869   1.686  51.839  1.00  0.00     0.044 A 
HETATM    4  C9  UNL     1      24.151   1.038  53.020  1.00  0.00     0.142 A 
HETATM    5  N3  UNL     1      23.282   0.114  53.391  1.00  0.00    -0.224 NA
HETATM    6  C16 UNL     1      22.178  -0.229  52.724  1.00  0.00     0.236 A 
HETATM    7  N4  UNL     1      21.918   0.415  51.572  1.00  0.00    -0.240 NA
HETATM    8  C17 UNL     1      22.741   1.359  51.126  1.00  0.00     0.089 A 
HETATM    9  C18 UNL     1      22.414   1.978  49.938  1.00  0.00     0.151 A 
HETATM   10  N5  UNL     1      23.215   2.956  49.422  1.00  0.00    -0.241 NA
ENDROOT
BRANCH   4  11
HETATM   11  N2  UNL     1      25.327   1.408  53.724  1.00  0.00    -0.340 N 
HETATM   12  H8  UNL     1      25.330   2.158  54.412  1.00  0.00     0.167 HD
BRANCH  11  13
HETATM   13  C10 UNL     1      26.645   0.882  53.651  1.00  0.00     0.035 A 
HETATM   14  C11 UNL     1      27.817   1.582  53.849  1.00  0.00     0.032 A 
HETATM   15  C12 UNL     1      29.062   1.015  53.764  1.00  0.00     0.046 A 
HETATM   16  C13 UNL     1      29.220  -0.319  53.470  1.00  0.00     0.138 A 
HETATM   17  F1  UNL     1      30.493  -0.751  53.416  1.00  0.00    -0.204 F 
HETATM   18  C14 UNL     1      28.077  -1.058  53.264  1.00  0.00     0.074 A 
HETATM   19 CL1  UNL     1      28.332  -2.749  52.892  1.00  0.00    -0.081 Cl
HETATM   20  C15 UNL     1      26.844  -0.448  53.359  1.00  0.00     0.056 A 
ENDBRANCH  11  13
ENDBRANCH   4  11
BRANCH   1  21
HETATM   21  N1  UNL     1      25.183   4.338  49.554  1.00  0.00    -0.301 N 
HETATM   22  C5  UNL     1      26.571   4.247  49.193  1.00  0.00     0.302 C 
HETATM   23  O1  UNL     1      27.175   3.155  49.350  1.00  0.00    -0.258 OA
HETATM   24  H6  UNL     1      24.635   5.226  49.442  1.00  0.00     0.171 HD
BRANCH  22  25
HETATM   25  C4  UNL     1      27.203   5.424  48.662  1.00  0.00    -0.005 C 
HETATM   26  C3  UNL     1      27.726   6.422  48.229  1.00  0.00    -0.097 C 
BRANCH  26  27
HETATM   27  C2  UNL     1      28.373   7.621  47.683  1.00  0.00     0.090 C 
HETATM   28  C1  UNL     1      27.403   8.252  46.700  1.00  0.00     0.018 C 
ENDBRANCH  26  27
ENDBRANCH  22  25
ENDBRANCH   1  21
TORSDOF 5
ENDMDL
MODEL 3
REMARK VINA RESULT:      -8.6      3.518      7.893
REMARK  5 active torsions:
REMARK  status: ('A' for Active; 'I' for Inactive)
REMARK    1  A    between atoms: C2_2  and  C3_3 
REMARK    2  A    between atoms: C4_4  and  C5_5 
REMARK       I    between atoms: C5_5  and  N1_7 
REMARK    3  A    between atoms: N1_7  and  C6_8 
REMARK    4  A    between atoms: C9_11  and  N2_12 
REMARK    5  A    between atoms: N2_12  and  C10_13 
ROOT
HETATM    1  C6  UNL     1      22.744  -1.035  54.232  1.00  0.00     0.131 A 
HETATM    2  C7  UNL     1      23.611  -0.342  53.431  1.00  0.00     0.068 A 
HETATM    3  C8  UNL     1      24.919  -0.057  53.730  1.00  0.00     0.044 A 
HETATM    4  C9  UNL     1      25.791   0.640  52.925  1.00  0.00     0.142 A 
HETATM    5  N3  UNL     1      27.011   0.804  53.406  1.00  0.00    -0.224 NA
HETATM    6  C16 UNL     1      27.450   0.355  54.584  1.00  0.00     0.236 A 
HETATM    7  N4  UNL     1      26.585  -0.323  55.357  1.00  0.00    -0.240 NA
HETATM    8  C17 UNL     1      25.336  -0.533  54.949  1.00  0.00     0.089 A 
HETATM    9  C18 UNL     1      24.502  -1.237  55.792  1.00  0.00     0.151 A 
HETATM   10  N5  UNL     1      23.208  -1.488  55.436  1.00  0.00    -0.241 NA
ENDROOT
BRANCH   4  11
HETATM   11  N2  UNL     1      25.317   1.114  51.674  1.00  0.00    -0.340 N 
HETATM   12  H8  UNL     1      24.922   0.488  50.974  1.00  0.00     0.167 HD
BRANCH  11  13
HETATM   13  C10 UNL     1      25.281   2.432  51.145  1.00  0.00     0.035 A 
HETATM   14  C11 UNL     1      24.314   3.385  51.388  1.00  0.00     0.032 A 
HETATM   15  C12 UNL     1      24.336   4.643  50.846  1.00  0.00     0.046 A 
HETATM   16  C13 UNL     1      25.351   5.041  50.007  1.00  0.00     0.138 A 
HETATM   17  F1  UNL     1      25.256   6.300  49.542  1.00  0.00    -0.204 F 
HETATM   18  C14 UNL     1      26.340   4.122  49.736  1.00  0.00     0.074 A 
HETATM   19 CL1  UNL     1      27.607   4.676  48.664  1.00  0.00    -0.081 Cl
HETATM   20  C15 UNL     1      26.278   2.867  50.302  1.00  0.00     0.056 A 
ENDBRANCH  11  13
ENDBRANCH   4  11
BRANCH   1  21
HETATM   21  N1  UNL     1      21.394  -1.298  53.862  1.00  0.00    -0.301 N 
HETATM   22  C5  UNL     1      20.297  -0.372  53.799  1.00  0.00     0.302 C 
HETATM   23  O1  UNL     1      20.496   0.834  54.096  1.00  0.00    -0.258 OA
HETATM   24  H6  UNL     1      21.280  -2.314  53.625  1.00  0.00     0.171 HD
BRANCH  22  25
HETATM   25  C4  UNL     1      19.015  -0.879  53.394  1.00  0.00    -0.005 C 
HETATM   26  C3  UNL     1      17.945  -1.321  53.054  1.00  0.00    -0.097 C 
BRANCH  26  27
HETATM   27  C2  UNL     1      16.633  -1.835  52.639  1.00  0.00     0.090 C 
HETATM   28  C1  UNL     1      16.526  -3.264  53.140  1.00  0.00     0.018 C 
ENDBRANCH  26  27
ENDBRANCH  22  25
ENDBRANCH   1  21
TORSDOF 5
ENDMDL
MODEL 4
REMARK VINA RESULT:      -8.1      3.701      5.588
REMARK  5 active torsions:
REMARK  status: ('A' for Active; 'I' for Inactive)
REMARK    1  A    between atoms: C2_2  and  C3_3 
REMARK    2  A    between atoms: C4_4  and  C5_5 
REMARK       I    between atoms: C5_5  and  N1_7 
REMARK    3  A    between atoms: N1_7  and  C6_8 
REMARK    4  A    between atoms: C9_11  and  N2_12 
REMARK    5  A    between atoms: N2_12  and  C10_13 
ROOT
HETATM    1  C6  UNL     1      26.581   2.324  51.825  1.00  0.00     0.131 A 
HETATM    2  C7  UNL     1      25.299   2.005  52.185  1.00  0.00     0.068 A 
HETATM    3  C8  UNL     1      24.934   0.965  53.002  1.00  0.00     0.044 A 
HETATM    4  C9  UNL     1      23.646   0.644  53.364  1.00  0.00     0.142 A 
HETATM    5  N3  UNL     1      23.516  -0.400  54.162  1.00  0.00    -0.224 NA
HETATM    6  C16 UNL     1      24.516  -1.149  54.633  1.00  0.00     0.236 A 
HETATM    7  N4  UNL     1      25.768  -0.821  54.270  1.00  0.00    -0.240 NA
HETATM    8  C17 UNL     1      25.988   0.217  53.467  1.00  0.00     0.089 A 
HETATM    9  C18 UNL     1      27.297   0.497  53.135  1.00  0.00     0.151 A 
HETATM   10  N5  UNL     1      27.594   1.548  52.315  1.00  0.00    -0.241 NA
ENDROOT
BRANCH   4  11
HETATM   11  N2  UNL     1      22.588   1.445  52.859  1.00  0.00    -0.340 N 
HETATM   12  H8  UNL     1      22.582   2.458  52.961  1.00  0.00     0.167 HD
BRANCH  11  13
HETATM   13  C10 UNL     1      21.406   1.072  52.165  1.00  0.00     0.035 A 
HETATM   14  C11 UNL     1      21.120   1.328  50.840  1.00  0.00     0.032 A 
HETATM   15  C12 UNL     1      19.957   0.941  50.227  1.00  0.00     0.046 A 
HETATM   16  C13 UNL     1      18.982   0.256  50.914  1.00  0.00     0.138 A 
HETATM   17  F1  UNL     1      17.889  -0.067  50.198  1.00  0.00    -0.204 F 
HETATM   18  C14 UNL     1      19.224  -0.022  52.240  1.00  0.00     0.074 A 
HETATM   19 CL1  UNL     1      17.954  -0.895  53.069  1.00  0.00    -0.081 Cl
HETATM   20  C15 UNL     1      20.407   0.386  52.817  1.00  0.00     0.056 A 
ENDBRANCH  11  13
ENDBRANCH   4  11
BRANCH   1  21
HETATM   21  N1  UNL     1      26.893   3.419  50.971  1.00  0.00    -0.301 N 
HETATM   22  C5  UNL     1      26.226   3.817  49.762  1.00  0.00     0.302 C 
HETATM   23  O1  UNL     1      25.236   3.151  49.360  1.00  0.00    -0.258 OA
HETATM   24  H6  UNL     1      27.723   3.941  51.346  1.00  0.00     0.171 HD
BRANCH  22  25
HETATM   25  C4  UNL     1      26.730   4.968  49.066  1.00  0.00    -0.005 C 
HETATM   26  C3  UNL     1      27.166   5.927  48.476  1.00  0.00    -0.097 C 
BRANCH  26  27
HETATM   27  C2  UNL     1      27.678   7.107  47.768  1.00  0.00     0.090 C 
HETATM   28  C1  UNL     1      29.166   6.897  47.555  1.00  0.00     0.018 C 
ENDBRANCH  26  27
ENDBRANCH  22  25
ENDBRANCH   1  21
TORSDOF 5
ENDMDL
MODEL 5
REMARK VINA RESULT:      -8.0      1.912      2.515
REMARK  5 active torsions:
REMARK  status: ('A' for Active; 'I' for Inactive)
REMARK    1  A    between atoms: C2_2  and  C3_3 
REMARK    2  A    between atoms: C4_4  and  C5_5 
REMARK       I    between atoms: C5_5  and  N1_7 
REMARK    3  A    between atoms: N1_7  and  C6_8 
REMARK    4  A    between atoms: C9_11  and  N2_12 
REMARK    5  A    between atoms: N2_12  and  C10_13 
ROOT
HETATM    1  C6  UNL     1      25.003   5.318  49.300  1.00  0.00     0.131 A 
HETATM    2  C7  UNL     1      24.915   4.581  50.450  1.00  0.00     0.068 A 
HETATM    3  C8  UNL     1      23.769   4.017  50.950  1.00  0.00     0.044 A 
HETATM    4  C9  UNL     1      23.680   3.276  52.107  1.00  0.00     0.142 A 
HETATM    5  N3  UNL     1      22.476   2.823  52.408  1.00  0.00    -0.224 NA
HETATM    6  C16 UNL     1      21.367   3.025  51.693  1.00  0.00     0.236 A 
HETATM    7  N4  UNL     1      21.472   3.750  50.566  1.00  0.00    -0.240 NA
HETATM    8  C17 UNL     1      22.648   4.245  50.190  1.00  0.00     0.089 A 
HETATM    9  C18 UNL     1      22.685   4.980  49.023  1.00  0.00     0.151 A 
HETATM   10  N5  UNL     1      23.859   5.517  48.578  1.00  0.00    -0.241 NA
ENDROOT
BRANCH   4  11
HETATM   11  N2  UNL     1      24.864   3.066  52.862  1.00  0.00    -0.340 N 
HETATM   12  H8  UNL     1      25.207   3.754  53.530  1.00  0.00     0.167 HD
BRANCH  11  13
HETATM   13  C10 UNL     1      25.763   1.967  52.872  1.00  0.00     0.035 A 
HETATM   14  C11 UNL     1      25.573   0.748  52.255  1.00  0.00     0.032 A 
HETATM   15  C12 UNL     1      26.482  -0.277  52.302  1.00  0.00     0.046 A 
HETATM   16  C13 UNL     1      27.670  -0.145  52.983  1.00  0.00     0.138 A 
HETATM   17  F1  UNL     1      28.476  -1.222  52.951  1.00  0.00    -0.204 F 
HETATM   18  C14 UNL     1      27.904   1.056  53.614  1.00  0.00     0.074 A 
HETATM   19 CL1  UNL     1      29.429   1.172  54.466  1.00  0.00    -0.081 Cl
HETATM   20  C15 UNL     1      26.962   2.059  53.542  1.00  0.00     0.056 A 
ENDBRANCH  11  13
ENDBRANCH   4  11
BRANCH   1  21
HETATM   21  N1  UNL     1      26.226   5.879  48.834  1.00  0.00    -0.301 N 
HETATM   22  C5  UNL     1      27.483   5.212  48.626  1.00  0.00     0.302 C 
HETATM   23  O1  UNL     1      27.571   3.981  48.868  1.00  0.00    -0.258 OA
HETATM   24  H6  UNL     1      26.102   6.904  48.647  1.00  0.00     0.171 HD
BRANCH  22  25
HETATM   25  C4  UNL     1      28.585   5.998  48.145  1.00  0.00    -0.005 C 
HETATM   26  C3  UNL     1      29.519   6.657  47.756  1.00  0.00    -0.097 C 
BRANCH  26  27
HETATM   27  C2  UNL     1      30.643   7.461  47.260  1.00  0.00     0.090 C 
HETATM   28  C1  UNL     1      31.147   8.300  48.420  1.00  0.00     0.018 C 
ENDBRANCH  26  27
ENDBRANCH  22  25
ENDBRANCH   1  21
TORSDOF 5
ENDMDL
MODEL 6
REMARK VINA RESULT:      -7.9      4.012      6.228
REMARK  5 active torsions:
REMARK  status: ('A' for Active; 'I' for Inactive)
REMARK    1  A    between atoms: C2_2  and  C3_3 
REMARK    2  A    between atoms: C4_4  and  C5_5 
REMARK       I    between atoms: C5_5  and  N1_7 
REMARK    3  A    between atoms: N1_7  and  C6_8 
REMARK    4  A    between atoms: C9_11  and  N2_12 
REMARK    5  A    between atoms: N2_12  and  C10_13 
ROOT
HETATM    1  C6  UNL     1      23.345  -0.507  53.573  1.00  0.00     0.131 A 
HETATM    2  C7  UNL     1      22.649  -0.107  52.463  1.00  0.00     0.068 A 
HETATM    3  C8  UNL     1      21.284  -0.100  52.337  1.00  0.00     0.044 A 
HETATM    4  C9  UNL     1      20.584   0.302  51.223  1.00  0.00     0.142 A 
HETATM    5  N3  UNL     1      19.268   0.227  51.312  1.00  0.00    -0.224 NA
HETATM    6  C16 UNL     1      18.583  -0.198  52.375  1.00  0.00     0.236 A 
HETATM    7  N4  UNL     1      19.282  -0.588  53.456  1.00  0.00    -0.240 NA
HETATM    8  C17 UNL     1      20.612  -0.545  53.450  1.00  0.00     0.089 A 
HETATM    9  C18 UNL     1      21.266  -0.959  54.591  1.00  0.00     0.151 A 
HETATM   10  N5  UNL     1      22.630  -0.941  54.654  1.00  0.00    -0.241 NA
ENDROOT
BRANCH   4  11
HETATM   11  N2  UNL     1      21.319   0.753  50.095  1.00  0.00    -0.340 N 
HETATM   12  H8  UNL     1      21.588   0.125  49.340  1.00  0.00     0.167 HD
BRANCH  11  13
HETATM   13  C10 UNL     1      21.809   2.048  49.777  1.00  0.00     0.035 A 
HETATM   14  C11 UNL     1      22.533   2.396  48.655  1.00  0.00     0.032 A 
HETATM   15  C12 UNL     1      22.979   3.668  48.405  1.00  0.00     0.046 A 
HETATM   16  C13 UNL     1      22.722   4.698  49.279  1.00  0.00     0.138 A 
HETATM   17  F1  UNL     1      23.214   5.898  48.918  1.00  0.00    -0.204 F 
HETATM   18  C14 UNL     1      22.002   4.398  50.413  1.00  0.00     0.074 A 
HETATM   19 CL1  UNL     1      21.703   5.743  51.492  1.00  0.00    -0.081 Cl
HETATM   20  C15 UNL     1      21.573   3.105  50.626  1.00  0.00     0.056 A 
ENDBRANCH  11  13
ENDBRANCH   4  11
BRANCH   1  21
HETATM   21  N1  UNL     1      24.767  -0.489  53.640  1.00  0.00    -0.301 N 
HETATM   22  C5  UNL     1      25.642   0.651  53.588  1.00  0.00     0.302 C 
HETATM   23  O1  UNL     1      25.144   1.800  53.470  1.00  0.00    -0.258 OA
HETATM   24  H6  UNL     1      25.133  -1.468  53.737  1.00  0.00     0.171 HD
BRANCH  22  25
HETATM   25  C4  UNL     1      27.056   0.414  53.676  1.00  0.00    -0.005 C 
HETATM   26  C3  UNL     1      28.246   0.230  53.757  1.00  0.00    -0.097 C 
BRANCH  26  27
HETATM   27  C2  UNL     1      29.691  -0.016  53.844  1.00  0.00     0.090 C 
HETATM   28  C1  UNL     1      29.924  -1.476  53.497  1.00  0.00     0.018 C 
ENDBRANCH  26  27
ENDBRANCH  22  25
ENDBRANCH   1  21
TORSDOF 5
ENDMDL
MODEL 7
REMARK VINA RESULT:      -7.9      3.813      7.634
REMARK  5 active torsions:
REMARK  status: ('A' for Active; 'I' for Inactive)
REMARK    1  A    between atoms: C2_2  and  C3_3 
REMARK    2  A    between atoms: C4_4  and  C5_5 
REMARK       I    between atoms: C5_5  and  N1_7 
REMARK    3  A    between atoms: N1_7  and  C6_8 
REMARK    4  A    between atoms: C9_11  and  N2_12 
REMARK    5  A    between atoms: N2_12  and  C10_13 
ROOT
HETATM    1  C6  UNL     1      25.786   3.414  49.992  1.00  0.00     0.131 A 
HETATM    2  C7  UNL     1      26.419   4.581  49.657  1.00  0.00     0.068 A 
HETATM    3  C8  UNL     1      25.841   5.646  49.013  1.00  0.00     0.044 A 
HETATM    4  C9  UNL     1      26.477   6.819  48.677  1.00  0.00     0.142 A 
HETATM    5  N3  UNL     1      25.734   7.718  48.057  1.00  0.00    -0.224 NA
HETATM    6  C16 UNL     1      24.445   7.578  47.741  1.00  0.00     0.236 A 
HETATM    7  N4  UNL     1      23.840   6.426  48.077  1.00  0.00    -0.240 NA
HETATM    8  C17 UNL     1      24.515   5.466  48.703  1.00  0.00     0.089 A 
HETATM    9  C18 UNL     1      23.833   4.310  49.018  1.00  0.00     0.151 A 
HETATM   10  N5  UNL     1      24.466   3.285  49.661  1.00  0.00    -0.241 NA
ENDROOT
BRANCH   4  11
HETATM   11  N2  UNL     1      27.848   6.961  49.016  1.00  0.00    -0.340 N 
HETATM   12  H8  UNL     1      28.151   7.159  49.968  1.00  0.00     0.167 HD
BRANCH  11  13
HETATM   13  C10 UNL     1      29.009   6.873  48.202  1.00  0.00     0.035 A 
HETATM   14  C11 UNL     1      29.389   7.765  47.221  1.00  0.00     0.032 A 
HETATM   15  C12 UNL     1      30.525   7.624  46.467  1.00  0.00     0.046 A 
HETATM   16  C13 UNL     1      31.376   6.559  46.651  1.00  0.00     0.138 A 
HETATM   17  F1  UNL     1      32.456   6.537  45.848  1.00  0.00    -0.204 F 
HETATM   18  C14 UNL     1      31.037   5.643  47.621  1.00  0.00     0.074 A 
HETATM   19 CL1  UNL     1      32.151   4.307  47.815  1.00  0.00    -0.081 Cl
HETATM   20  C15 UNL     1      29.885   5.823  48.356  1.00  0.00     0.056 A 
ENDBRANCH  11  13
ENDBRANCH   4  11
BRANCH   1  21
HETATM   21  N1  UNL     1      26.444   2.344  50.663  1.00  0.00    -0.301 N 
HETATM   22  C5  UNL     1      26.287   1.925  52.028  1.00  0.00     0.302 C 
HETATM   23  O1  UNL     1      25.480   2.544  52.770  1.00  0.00    -0.258 OA
HETATM   24  H6  UNL     1      27.104   1.861  50.004  1.00  0.00     0.171 HD
BRANCH  22  25
HETATM   25  C4  UNL     1      27.068   0.807  52.480  1.00  0.00    -0.005 C 
HETATM   26  C3  UNL     1      27.721  -0.140  52.844  1.00  0.00    -0.097 C 
BRANCH  26  27
HETATM   27  C2  UNL     1      28.519  -1.281  53.310  1.00  0.00     0.090 C 
HETATM   28  C1  UNL     1      29.919  -0.768  53.596  1.00  0.00     0.018 C 
ENDBRANCH  26  27
ENDBRANCH  22  25
ENDBRANCH   1  21
TORSDOF 5
ENDMDL
MODEL 8
REMARK VINA RESULT:      -7.9      3.224      5.415
REMARK  5 active torsions:
REMARK  status: ('A' for Active; 'I' for Inactive)
REMARK    1  A    between atoms: C2_2  and  C3_3 
REMARK    2  A    between atoms: C4_4  and  C5_5 
REMARK       I    between atoms: C5_5  and  N1_7 
REMARK    3  A    between atoms: N1_7  and  C6_8 
REMARK    4  A    between atoms: C9_11  and  N2_12 
REMARK    5  A    between atoms: N2_12  and  C10_13 
ROOT
HETATM    1  C6  UNL     1      28.533   5.630  48.163  1.00  0.00     0.131 A 
HETATM    2  C7  UNL     1      27.770   4.730  48.859  1.00  0.00     0.068 A 
HETATM    3  C8  UNL     1      26.465   4.914  49.237  1.00  0.00     0.044 A 
HETATM    4  C9  UNL     1      25.699   4.009  49.937  1.00  0.00     0.142 A 
HETATM    5  N3  UNL     1      24.461   4.387  50.200  1.00  0.00    -0.224 NA
HETATM    6  C16 UNL     1      23.910   5.551  49.848  1.00  0.00     0.236 A 
HETATM    7  N4  UNL     1      24.673   6.423  49.166  1.00  0.00    -0.240 NA
HETATM    8  C17 UNL     1      25.932   6.122  48.859  1.00  0.00     0.089 A 
HETATM    9  C18 UNL     1      26.657   7.062  48.158  1.00  0.00     0.151 A 
HETATM   10  N5  UNL     1      27.955   6.818  47.810  1.00  0.00    -0.241 NA
ENDROOT
BRANCH   4  11
HETATM   11  N2  UNL     1      26.291   2.774  50.308  1.00  0.00    -0.340 N 
HETATM   12  H8  UNL     1      26.773   2.182  49.634  1.00  0.00     0.167 HD
BRANCH  11  13
HETATM   13  C10 UNL     1      26.350   2.127  51.571  1.00  0.00     0.035 A 
HETATM   14  C11 UNL     1      27.390   2.191  52.475  1.00  0.00     0.032 A 
HETATM   15  C12 UNL     1      27.386   1.541  53.682  1.00  0.00     0.046 A 
HETATM   16  C13 UNL     1      26.318   0.769  54.073  1.00  0.00     0.138 A 
HETATM   17  F1  UNL     1      26.438   0.185  55.280  1.00  0.00    -0.204 F 
HETATM   18  C14 UNL     1      25.256   0.675  53.202  1.00  0.00     0.074 A 
HETATM   19 CL1  UNL     1      23.923  -0.319  53.746  1.00  0.00    -0.081 Cl
HETATM   20  C15 UNL     1      25.301   1.345  51.999  1.00  0.00     0.056 A 
ENDBRANCH  11  13
ENDBRANCH   4  11
BRANCH   1  21
HETATM   21  N1  UNL     1      29.885   5.378  47.800  1.00  0.00    -0.301 N 
HETATM   22  C5  UNL     1      31.075   5.965  48.353  1.00  0.00     0.302 C 
HETATM   23  O1  UNL     1      30.967   6.812  49.277  1.00  0.00    -0.258 OA
HETATM   24  H6  UNL     1      29.922   4.668  47.028  1.00  0.00     0.171 HD
BRANCH  22  25
HETATM   25  C4  UNL     1      32.340   5.546  47.816  1.00  0.00    -0.005 C 
HETATM   26  C3  UNL     1      33.397   5.196  47.350  1.00  0.00    -0.097 C 
BRANCH  26  27
HETATM   27  C2  UNL     1      34.692   4.767  46.806  1.00  0.00     0.090 C 
HETATM   28  C1  UNL     1      34.672   3.251  46.730  1.00  0.00     0.018 C 
ENDBRANCH  26  27
ENDBRANCH  22  25
ENDBRANCH   1  21
TORSDOF 5
ENDMDL
MODEL 9
REMARK VINA RESULT:      -7.9      3.297      6.024
REMARK  5 active torsions:
REMARK  status: ('A' for Active; 'I' for Inactive)
REMARK    1  A    between atoms: C2_2  and  C3_3 
REMARK    2  A    between atoms: C4_4  and  C5_5 
REMARK       I    between atoms: C5_5  and  N1_7 
REMARK    3  A    between atoms: N1_7  and  C6_8 
REMARK    4  A    between atoms: C9_11  and  N2_12 
REMARK    5  A    between atoms: N2_12  and  C10_13 
ROOT
HETATM    1  C6  UNL     1      28.632   6.535  48.174  1.00  0.00     0.131 A 
HETATM    2  C7  UNL     1      27.610   5.755  48.646  1.00  0.00     0.068 A 
HETATM    3  C8  UNL     1      26.496   6.211  49.303  1.00  0.00     0.044 A 
HETATM    4  C9  UNL     1      25.469   5.428  49.777  1.00  0.00     0.142 A 
HETATM    5  N3  UNL     1      24.487   6.072  50.383  1.00  0.00    -0.224 NA
HETATM    6  C16 UNL     1      24.418   7.392  50.566  1.00  0.00     0.236 A 
HETATM    7  N4  UNL     1      25.430   8.142  50.096  1.00  0.00    -0.240 NA
HETATM    8  C17 UNL     1      26.459   7.574  49.473  1.00  0.00     0.089 A 
HETATM    9  C18 UNL     1      27.463   8.402  49.017  1.00  0.00     0.151 A 
HETATM   10  N5  UNL     1      28.547   7.885  48.369  1.00  0.00    -0.241 NA
ENDROOT
BRANCH   4  11
HETATM   11  N2  UNL     1      25.549   4.024  49.580  1.00  0.00    -0.340 N 
HETATM   12  H8  UNL     1      25.823   3.619  48.686  1.00  0.00     0.167 HD
BRANCH  11  13
HETATM   13  C10 UNL     1      25.293   2.955  50.479  1.00  0.00     0.035 A 
HETATM   14  C11 UNL     1      24.053   2.488  50.864  1.00  0.00     0.032 A 
HETATM   15  C12 UNL     1      23.873   1.449  51.739  1.00  0.00     0.046 A 
HETATM   16  C13 UNL     1      24.944   0.791  52.297  1.00  0.00     0.138 A 
HETATM   17  F1  UNL     1      24.632  -0.211  53.139  1.00  0.00    -0.204 F 
HETATM   18  C14 UNL     1      26.202   1.222  51.941  1.00  0.00     0.074 A 
HETATM   19 CL1  UNL     1      27.531   0.354  52.678  1.00  0.00    -0.081 Cl
HETATM   20  C15 UNL     1      26.339   2.272  51.058  1.00  0.00     0.056 A 
ENDBRANCH  11  13
ENDBRANCH   4  11
BRANCH   1  21
HETATM   21  N1  UNL     1      29.764   5.998  47.498  1.00  0.00    -0.301 N 
HETATM   22  C5  UNL     1      30.968   5.464  48.073  1.00  0.00     0.302 C 
HETATM   23  O1  UNL     1      31.091   5.443  49.325  1.00  0.00    -0.258 OA
HETATM   24  H6  UNL     1      29.613   6.038  46.460  1.00  0.00     0.171 HD
BRANCH  22  25
HETATM   25  C4  UNL     1      31.979   4.976  47.177  1.00  0.00    -0.005 C 
HETATM   26  C3  UNL     1      32.835   4.581  46.423  1.00  0.00    -0.097 C 
BRANCH  26  27
HETATM   27  C2  UNL     1      33.866   4.077  45.506  1.00  0.00     0.090 C 
HETATM   28  C1  UNL     1      34.925   3.391  46.349  1.00  0.00     0.018 C 
ENDBRANCH  26  27
ENDBRANCH  22  25
ENDBRANCH   1  21
TORSDOF 5
ENDMDL
