MODEL 1
REMARK VINA RESULT:      -8.3      0.000      0.000
REMARK  2 active torsions:
REMARK  status: ('A' for Active; 'I' for Inactive)
REMARK    1  A    between atoms: C3_3  and  C4_4 
REMARK    2  A    between atoms: C4_4  and  O1_5 
ROOT
HETATM    1  C4  UNL     1      24.446   3.022  50.533  1.00  0.00     0.182 C 
HETATM    2  C5  UNL     1      23.590   3.104  49.366  1.00  0.00     0.075 C 
HETATM    3  C6  UNL     1      22.576   4.238  49.300  1.00  0.00     0.044 C 
HETATM    4  C7  UNL     1      21.630   4.253  50.424  1.00  0.00     0.255 C 
HETATM    5  N1  UNL     1      20.688   3.292  50.592  1.00  0.00     0.087 N 
HETATM    6  C8  UNL     1      19.848   3.476  51.781  1.00  0.00     0.344 A 
HETATM    7  C9  UNL     1      20.531   2.344  51.860  1.00  0.00     0.362 A 
HETATM    8  N2  UNL     1      21.357   2.129  50.678  1.00  0.00    -0.155 N 
HETATM    9  C10 UNL     1      22.403   1.332  50.745  1.00  0.00     0.132 C 
HETATM   10  C11 UNL     1      23.369   1.629  51.836  1.00  0.00     0.202 C 
HETATM   11  O2  UNL     1      24.547   1.873  51.321  1.00  0.00    -0.336 OA
HETATM   12  C12 UNL     1      22.997   0.727  52.910  1.00  0.00     0.020 A 
HETATM   13  C13 UNL     1      23.855  -0.127  53.496  1.00  0.00     0.022 A 
HETATM   14 BR1  UNL     1      25.603  -0.062  52.777  1.00  0.00    -0.050 Br
HETATM   15  C14 UNL     1      23.449  -0.956  54.522  1.00  0.00     0.020 A 
HETATM   16  C15 UNL     1      22.156  -0.951  54.997  1.00  0.00     0.004 A 
HETATM   17  C16 UNL     1      21.249  -0.092  54.426  1.00  0.00     0.030 A 
HETATM   18  C17 UNL     1      21.664   0.720  53.413  1.00  0.00     0.042 A 
HETATM   19  N3  UNL     1      20.480   1.494  53.036  1.00  0.00    -0.334 N 
HETATM   20  H18 UNL     1      19.580   1.548  53.491  1.00  0.00     0.164 HD
ENDROOT
BRANCH   1  21
HETATM   21  C3  UNL     1      25.789   3.670  50.275  1.00  0.00     0.036 C 
HETATM   22  C2  UNL     1      26.209   4.120  49.126  1.00  0.00    -0.030 C 
HETATM   23  C1  UNL     1      27.535   4.760  48.877  1.00  0.00     0.036 C 
ENDBRANCH   1  21
BRANCH   1  24
HETATM   24  O1  UNL     1      23.954   4.059  51.468  1.00  0.00    -0.362 OA
HETATM   25  H6  UNL     1      23.360   3.652  52.112  1.00  0.00     0.213 HD
ENDBRANCH   1  24
TORSDOF 2
ENDMDL
MODEL 2
REMARK VINA RESULT:      -8.2      2.721      5.158
REMARK  2 active torsions:
REMARK  status: ('A' for Active; 'I' for Inactive)
REMARK    1  A    between atoms: C3_3  and  C4_4 
REMARK    2  A    between atoms: C4_4  and  O1_5 
ROOT
HETATM    1  C4  UNL     1      26.581   0.877  52.948  1.00  0.00     0.182 C 
HETATM    2  C5  UNL     1      26.015   0.851  54.283  1.00  0.00     0.075 C 
HETATM    3  C6  UNL     1      25.350  -0.436  54.753  1.00  0.00     0.044 C 
HETATM    4  C7  UNL     1      24.240  -0.876  53.897  1.00  0.00     0.255 C 
HETATM    5  N1  UNL     1      23.073  -0.190  53.813  1.00  0.00     0.087 N 
HETATM    6  C8  UNL     1      22.094  -0.784  52.896  1.00  0.00     0.344 A 
HETATM    7  C9  UNL     1      22.441   0.429  52.491  1.00  0.00     0.362 A 
HETATM    8  N2  UNL     1      23.399   1.046  53.400  1.00  0.00    -0.155 N 
HETATM    9  C10 UNL     1      24.178   2.017  52.971  1.00  0.00     0.132 C 
HETATM   10  C11 UNL     1      24.959   1.719  51.742  1.00  0.00     0.202 C 
HETATM   11  O2  UNL     1      26.237   1.839  51.996  1.00  0.00    -0.336 OA
HETATM   12  C12 UNL     1      24.174   2.288  50.662  1.00  0.00     0.020 A 
HETATM   13  C13 UNL     1      24.660   3.170  49.771  1.00  0.00     0.022 A 
HETATM   14 BR1  UNL     1      26.474   3.622  50.061  1.00  0.00    -0.050 Br
HETATM   15  C14 UNL     1      23.869   3.671  48.756  1.00  0.00     0.020 A 
HETATM   16  C15 UNL     1      22.552   3.296  48.605  1.00  0.00     0.004 A 
HETATM   17  C16 UNL     1      22.018   2.396  49.494  1.00  0.00     0.030 A 
HETATM   18  C17 UNL     1      22.810   1.911  50.491  1.00  0.00     0.042 A 
HETATM   19  N3  UNL     1      21.954   0.995  51.246  1.00  0.00    -0.334 N 
HETATM   20  H18 UNL     1      21.026   0.661  51.028  1.00  0.00     0.164 HD
ENDROOT
BRANCH   1  21
HETATM   21  C3  UNL     1      28.067   0.594  52.977  1.00  0.00     0.036 C 
HETATM   22  C2  UNL     1      28.632  -0.462  53.495  1.00  0.00    -0.030 C 
HETATM   23  C1  UNL     1      30.099  -0.737  53.520  1.00  0.00     0.036 C 
ENDBRANCH   1  21
BRANCH   1  24
HETATM   24  O1  UNL     1      26.194  -0.407  52.321  1.00  0.00    -0.362 OA
HETATM   25  H6  UNL     1      26.763  -1.111  52.659  1.00  0.00     0.213 HD
ENDBRANCH   1  24
TORSDOF 2
ENDMDL
MODEL 3
REMARK VINA RESULT:      -8.0      1.852      2.167
REMARK  2 active torsions:
REMARK  status: ('A' for Active; 'I' for Inactive)
REMARK    1  A    between atoms: C3_3  and  C4_4 
REMARK    2  A    between atoms: C4_4  and  O1_5 
ROOT
HETATM    1  C4  UNL     1      25.614   2.386  51.992  1.00  0.00     0.182 C 
HETATM    2  C5  UNL     1      25.319   2.860  50.653  1.00  0.00     0.075 C 
HETATM    3  C6  UNL     1      24.763   4.269  50.499  1.00  0.00     0.044 C 
HETATM    4  C7  UNL     1      23.509   4.495  51.232  1.00  0.00     0.255 C 
HETATM    5  N1  UNL     1      22.346   3.894  50.879  1.00  0.00     0.087 N 
HETATM    6  C8  UNL     1      21.209   4.236  51.740  1.00  0.00     0.344 A 
HETATM    7  C9  UNL     1      21.467   2.938  51.798  1.00  0.00     0.362 A 
HETATM    8  N2  UNL     1      22.580   2.571  50.932  1.00  0.00    -0.155 N 
HETATM    9  C10 UNL     1      23.258   1.467  51.168  1.00  0.00     0.132 C 
HETATM   10  C11 UNL     1      23.786   1.319  52.550  1.00  0.00     0.202 C 
HETATM   11  O2  UNL     1      25.089   1.201  52.511  1.00  0.00    -0.336 OA
HETATM   12  C12 UNL     1      22.803   0.497  53.232  1.00  0.00     0.020 A 
HETATM   13  C13 UNL     1      23.103  -0.647  53.872  1.00  0.00     0.022 A 
HETATM   14 BR1  UNL     1      24.937  -1.103  53.793  1.00  0.00    -0.050 Br
HETATM   15  C14 UNL     1      22.129  -1.384  54.514  1.00  0.00     0.020 A 
HETATM   16  C15 UNL     1      20.809  -0.990  54.531  1.00  0.00     0.004 A 
HETATM   17  C16 UNL     1      20.461   0.173  53.889  1.00  0.00     0.030 A 
HETATM   18  C17 UNL     1      21.433   0.890  53.260  1.00  0.00     0.042 A 
HETATM   19  N3  UNL     1      20.744   2.048  52.688  1.00  0.00    -0.334 N 
HETATM   20  H18 UNL     1      19.793   2.358  52.827  1.00  0.00     0.164 HD
ENDROOT
BRANCH   1  21
HETATM   21  C3  UNL     1      27.079   2.568  52.326  1.00  0.00     0.036 C 
HETATM   22  C2  UNL     1      27.654   2.223  53.445  1.00  0.00    -0.030 C 
HETATM   23  C1  UNL     1      29.099   2.403  53.770  1.00  0.00     0.036 C 
ENDBRANCH   1  21
BRANCH   1  24
HETATM   24  O1  UNL     1      25.117   3.436  52.910  1.00  0.00    -0.362 OA
HETATM   25  H6  UNL     1      24.169   3.561  52.768  1.00  0.00     0.213 HD
ENDBRANCH   1  24
TORSDOF 2
ENDMDL
MODEL 4
REMARK VINA RESULT:      -7.9      2.415      4.687
REMARK  2 active torsions:
REMARK  status: ('A' for Active; 'I' for Inactive)
REMARK    1  A    between atoms: C3_3  and  C4_4 
REMARK    2  A    between atoms: C4_4  and  O1_5 
ROOT
HETATM    1  C4  UNL     1      21.202   2.223  51.983  1.00  0.00     0.182 C 
HETATM    2  C5  UNL     1      21.220   3.658  52.187  1.00  0.00     0.075 C 
HETATM    3  C6  UNL     1      21.373   4.553  50.965  1.00  0.00     0.044 C 
HETATM    4  C7  UNL     1      22.598   4.298  50.194  1.00  0.00     0.255 C 
HETATM    5  N1  UNL     1      23.832   4.584  50.679  1.00  0.00     0.087 N 
HETATM    6  C8  UNL     1      24.928   4.245  49.764  1.00  0.00     0.344 A 
HETATM    7  C9  UNL     1      25.022   3.548  50.887  1.00  0.00     0.362 A 
HETATM    8  N2  UNL     1      23.954   3.885  51.820  1.00  0.00    -0.155 N 
HETATM    9  C10 UNL     1      23.613   3.031  52.763  1.00  0.00     0.132 C 
HETATM   10  C11 UNL     1      23.294   1.655  52.300  1.00  0.00     0.202 C 
HETATM   11  O2  UNL     1      22.069   1.351  52.647  1.00  0.00    -0.336 OA
HETATM   12  C12 UNL     1      24.522   0.908  52.494  1.00  0.00     0.020 A 
HETATM   13  C13 UNL     1      24.598  -0.230  53.206  1.00  0.00     0.022 A 
HETATM   14 BR1  UNL     1      22.947  -0.770  53.953  1.00  0.00    -0.050 Br
HETATM   15  C14 UNL     1      25.793  -0.906  53.349  1.00  0.00     0.020 A 
HETATM   16  C15 UNL     1      26.961  -0.453  52.776  1.00  0.00     0.004 A 
HETATM   17  C16 UNL     1      26.926   0.706  52.040  1.00  0.00     0.030 A 
HETATM   18  C17 UNL     1      25.739   1.363  51.907  1.00  0.00     0.042 A 
HETATM   19  N3  UNL     1      26.041   2.533  51.082  1.00  0.00    -0.334 N 
HETATM   20  H18 UNL     1      26.889   2.763  50.584  1.00  0.00     0.164 HD
ENDROOT
BRANCH   1  21
HETATM   21  C3  UNL     1      19.785   1.696  51.918  1.00  0.00     0.036 C 
HETATM   22  C2  UNL     1      19.439   0.476  51.611  1.00  0.00    -0.030 C 
HETATM   23  C1  UNL     1      18.040  -0.039  51.549  1.00  0.00     0.036 C 
ENDBRANCH   1  21
BRANCH   1  24
HETATM   24  O1  UNL     1      21.508   2.016  50.550  1.00  0.00    -0.362 OA
HETATM   25  H6  UNL     1      20.839   1.435  50.162  1.00  0.00     0.213 HD
ENDBRANCH   1  24
TORSDOF 2
ENDMDL
MODEL 5
REMARK VINA RESULT:      -7.6      3.316      5.006
REMARK  2 active torsions:
REMARK  status: ('A' for Active; 'I' for Inactive)
REMARK    1  A    between atoms: C3_3  and  C4_4 
REMARK    2  A    between atoms: C4_4  and  O1_5 
ROOT
HETATM    1  C4  UNL     1      21.619   1.614  51.074  1.00  0.00     0.182 C 
HETATM    2  C5  UNL     1      22.266   2.189  52.238  1.00  0.00     0.075 C 
HETATM    3  C6  UNL     1      23.424   1.424  52.864  1.00  0.00     0.044 C 
HETATM    4  C7  UNL     1      23.071   0.066  53.300  1.00  0.00     0.255 C 
HETATM    5  N1  UNL     1      22.229  -0.166  54.339  1.00  0.00     0.087 N 
HETATM    6  C8  UNL     1      21.992  -1.588  54.611  1.00  0.00     0.344 A 
HETATM    7  C9  UNL     1      20.864  -0.980  54.276  1.00  0.00     0.362 A 
HETATM    8  N2  UNL     1      21.073   0.440  54.022  1.00  0.00    -0.155 N 
HETATM    9  C10 UNL     1      20.216   1.106  53.276  1.00  0.00     0.132 C 
HETATM   10  C11 UNL     1      19.933   0.518  51.940  1.00  0.00     0.202 C 
HETATM   11  O2  UNL     1      20.244   1.381  51.007  1.00  0.00    -0.336 OA
HETATM   12  C12 UNL     1      18.711  -0.243  52.126  1.00  0.00     0.020 A 
HETATM   13  C13 UNL     1      17.607  -0.074  51.377  1.00  0.00     0.022 A 
HETATM   14 BR1  UNL     1      17.782   1.269  50.056  1.00  0.00    -0.050 Br
HETATM   15  C14 UNL     1      16.474  -0.834  51.591  1.00  0.00     0.020 A 
HETATM   16  C15 UNL     1      16.417  -1.797  52.575  1.00  0.00     0.004 A 
HETATM   17  C16 UNL     1      17.525  -2.001  53.360  1.00  0.00     0.030 A 
HETATM   18  C17 UNL     1      18.635  -1.243  53.138  1.00  0.00     0.042 A 
HETATM   19  N3  UNL     1      19.614  -1.702  54.124  1.00  0.00    -0.334 N 
HETATM   20  H18 UNL     1      19.568  -2.494  54.750  1.00  0.00     0.164 HD
ENDROOT
BRANCH   1  21
HETATM   21  C3  UNL     1      22.173   2.200  49.794  1.00  0.00     0.036 C 
HETATM   22  C2  UNL     1      21.953   1.748  48.591  1.00  0.00    -0.030 C 
HETATM   23  C1  UNL     1      22.500   2.332  47.331  1.00  0.00     0.036 C 
ENDBRANCH   1  21
BRANCH   1  24
HETATM   24  O1  UNL     1      22.222   0.273  50.900  1.00  0.00    -0.362 OA
HETATM   25  H6  UNL     1      22.605   0.208  50.014  1.00  0.00     0.213 HD
ENDBRANCH   1  24
TORSDOF 2
ENDMDL
MODEL 6
REMARK VINA RESULT:      -7.6      2.865      5.045
REMARK  2 active torsions:
REMARK  status: ('A' for Active; 'I' for Inactive)
REMARK    1  A    between atoms: C3_3  and  C4_4 
REMARK    2  A    between atoms: C4_4  and  O1_5 
ROOT
HETATM    1  C4  UNL     1      22.780   1.605  51.862  1.00  0.00     0.182 C 
HETATM    2  C5  UNL     1      22.107   0.331  51.696  1.00  0.00     0.075 C 
HETATM    3  C6  UNL     1      21.192  -0.147  52.815  1.00  0.00     0.044 C 
HETATM    4  C7  UNL     1      21.865  -0.278  54.114  1.00  0.00     0.255 C 
HETATM    5  N1  UNL     1      22.808  -1.224  54.350  1.00  0.00     0.087 N 
HETATM    6  C8  UNL     1      23.371  -1.185  55.704  1.00  0.00     0.344 A 
HETATM    7  C9  UNL     1      24.311  -0.960  54.799  1.00  0.00     0.362 A 
HETATM    8  N2  UNL     1      23.778  -1.015  53.443  1.00  0.00    -0.155 N 
HETATM    9  C10 UNL     1      24.413  -0.406  52.463  1.00  0.00     0.132 C 
HETATM   10  C11 UNL     1      24.723   1.029  52.691  1.00  0.00     0.202 C 
HETATM   11  O2  UNL     1      24.164   1.752  51.754  1.00  0.00    -0.336 OA
HETATM   12  C12 UNL     1      26.092   1.037  53.172  1.00  0.00     0.020 A 
HETATM   13  C13 UNL     1      27.076   1.759  52.608  1.00  0.00     0.022 A 
HETATM   14 BR1  UNL     1      26.517   2.763  51.105  1.00  0.00    -0.050 Br
HETATM   15  C14 UNL     1      28.360   1.736  53.114  1.00  0.00     0.020 A 
HETATM   16  C15 UNL     1      28.697   0.979  54.215  1.00  0.00     0.004 A 
HETATM   17  C16 UNL     1      27.720   0.229  54.821  1.00  0.00     0.030 A 
HETATM   18  C17 UNL     1      26.458   0.260  54.310  1.00  0.00     0.042 A 
HETATM   19  N3  UNL     1      25.676  -0.630  55.169  1.00  0.00    -0.334 N 
HETATM   20  H18 UNL     1      25.939  -1.074  56.038  1.00  0.00     0.164 HD
ENDROOT
BRANCH   1  21
HETATM   21  C3  UNL     1      22.022   2.720  51.174  1.00  0.00     0.036 C 
HETATM   22  C2  UNL     1      20.945   3.301  51.626  1.00  0.00    -0.030 C 
HETATM   23  C1  UNL     1      20.202   4.401  50.945  1.00  0.00     0.036 C 
ENDBRANCH   1  21
BRANCH   1  24
HETATM   24  O1  UNL     1      22.476   2.044  53.243  1.00  0.00    -0.362 OA
HETATM   25  H6  UNL     1      21.611   1.700  53.504  1.00  0.00     0.213 HD
ENDBRANCH   1  24
TORSDOF 2
ENDMDL
MODEL 7
REMARK VINA RESULT:      -7.5      1.988      3.132
REMARK  2 active torsions:
REMARK  status: ('A' for Active; 'I' for Inactive)
REMARK    1  A    between atoms: C3_3  and  C4_4 
REMARK    2  A    between atoms: C4_4  and  O1_5 
ROOT
HETATM    1  C4  UNL     1      22.620   4.045  51.202  1.00  0.00     0.182 C 
HETATM    2  C5  UNL     1      21.379   3.544  50.644  1.00  0.00     0.075 C 
HETATM    3  C6  UNL     1      20.179   3.412  51.572  1.00  0.00     0.044 C 
HETATM    4  C7  UNL     1      20.418   2.536  52.727  1.00  0.00     0.255 C 
HETATM    5  N1  UNL     1      20.588   1.197  52.599  1.00  0.00     0.087 N 
HETATM    6  C8  UNL     1      20.827   0.498  53.866  1.00  0.00     0.344 A 
HETATM    7  C9  UNL     1      21.866   0.365  53.055  1.00  0.00     0.362 A 
HETATM    8  N2  UNL     1      21.641   1.034  51.779  1.00  0.00    -0.155 N 
HETATM    9  C10 UNL     1      22.668   1.391  51.036  1.00  0.00     0.132 C 
HETATM   10  C11 UNL     1      23.701   2.213  51.720  1.00  0.00     0.202 C 
HETATM   11  O2  UNL     1      23.831   3.357  51.098  1.00  0.00    -0.336 OA
HETATM   12  C12 UNL     1      24.718   1.260  52.126  1.00  0.00     0.020 A 
HETATM   13  C13 UNL     1      26.018   1.373  51.799  1.00  0.00     0.022 A 
HETATM   14 BR1  UNL     1      26.407   2.891  50.740  1.00  0.00    -0.050 Br
HETATM   15  C14 UNL     1      26.945   0.442  52.222  1.00  0.00     0.020 A 
HETATM   16  C15 UNL     1      26.590  -0.643  52.994  1.00  0.00     0.004 A 
HETATM   17  C16 UNL     1      25.272  -0.794  53.349  1.00  0.00     0.030 A 
HETATM   18  C17 UNL     1      24.368   0.133  52.924  1.00  0.00     0.042 A 
HETATM   19  N3  UNL     1      23.083  -0.312  53.464  1.00  0.00    -0.334 N 
HETATM   20  H18 UNL     1      22.888  -1.051  54.125  1.00  0.00     0.164 HD
ENDROOT
BRANCH   1  21
HETATM   21  C3  UNL     1      22.773   5.530  50.954  1.00  0.00     0.036 C 
HETATM   22  C2  UNL     1      23.747   6.098  50.298  1.00  0.00    -0.030 C 
HETATM   23  C1  UNL     1      23.891   7.563  50.055  1.00  0.00     0.036 C 
ENDBRANCH   1  21
BRANCH   1  24
HETATM   24  O1  UNL     1      22.391   4.157  52.660  1.00  0.00    -0.362 OA
HETATM   25  H6  UNL     1      23.201   4.464  53.088  1.00  0.00     0.213 HD
ENDBRANCH   1  24
TORSDOF 2
ENDMDL
MODEL 8
REMARK VINA RESULT:      -7.4      2.438      4.152
REMARK  2 active torsions:
REMARK  status: ('A' for Active; 'I' for Inactive)
REMARK    1  A    between atoms: C3_3  and  C4_4 
REMARK    2  A    between atoms: C4_4  and  O1_5 
ROOT
HETATM    1  C4  UNL     1      25.625   2.290  50.968  1.00  0.00     0.182 C 
HETATM    2  C5  UNL     1      26.097   2.622  49.638  1.00  0.00     0.075 C 
HETATM    3  C6  UNL     1      26.707   3.999  49.417  1.00  0.00     0.044 C 
HETATM    4  C7  UNL     1      25.802   5.108  49.750  1.00  0.00     0.255 C 
HETATM    5  N1  UNL     1      24.689   5.378  49.024  1.00  0.00     0.087 N 
HETATM    6  C8  UNL     1      23.909   6.517  49.523  1.00  0.00     0.344 A 
HETATM    7  C9  UNL     1      23.195   5.402  49.570  1.00  0.00     0.362 A 
HETATM    8  N2  UNL     1      23.943   4.261  49.058  1.00  0.00    -0.155 N 
HETATM    9  C10 UNL     1      23.601   3.040  49.414  1.00  0.00     0.132 C 
HETATM   10  C11 UNL     1      23.498   2.801  50.877  1.00  0.00     0.202 C 
HETATM   11  O2  UNL     1      24.325   1.849  51.225  1.00  0.00    -0.336 OA
HETATM   12  C12 UNL     1      22.086   2.954  51.175  1.00  0.00     0.020 A 
HETATM   13  C13 UNL     1      21.350   2.017  51.798  1.00  0.00     0.022 A 
HETATM   14 BR1  UNL     1      22.325   0.458  52.245  1.00  0.00    -0.050 Br
HETATM   15  C14 UNL     1      20.011   2.219  52.065  1.00  0.00     0.020 A 
HETATM   16  C15 UNL     1      19.364   3.382  51.710  1.00  0.00     0.004 A 
HETATM   17  C16 UNL     1      20.080   4.365  51.072  1.00  0.00     0.030 A 
HETATM   18  C17 UNL     1      21.401   4.151  50.814  1.00  0.00     0.042 A 
HETATM   19  N3  UNL     1      21.860   5.365  50.139  1.00  0.00    -0.334 N 
HETATM   20  H18 UNL     1      21.378   6.243  50.004  1.00  0.00     0.164 HD
ENDROOT
BRANCH   1  21
HETATM   21  C3  UNL     1      26.667   1.510  51.741  1.00  0.00     0.036 C 
HETATM   22  C2  UNL     1      26.562   0.267  52.119  1.00  0.00    -0.030 C 
HETATM   23  C1  UNL     1      27.594  -0.499  52.880  1.00  0.00     0.036 C 
ENDBRANCH   1  21
BRANCH   1  24
HETATM   24  O1  UNL     1      25.748   3.534  51.761  1.00  0.00    -0.362 OA
HETATM   25  H6  UNL     1      26.376   3.391  52.483  1.00  0.00     0.213 HD
ENDBRANCH   1  24
TORSDOF 2
ENDMDL
MODEL 9
REMARK VINA RESULT:      -7.1      3.349      6.707
REMARK  2 active torsions:
REMARK  status: ('A' for Active; 'I' for Inactive)
REMARK    1  A    between atoms: C3_3  and  C4_4 
REMARK    2  A    between atoms: C4_4  and  O1_5 
ROOT
HETATM    1  C4  UNL     1      22.828   4.455  50.272  1.00  0.00     0.182 C 
HETATM    2  C5  UNL     1      22.277   5.372  51.252  1.00  0.00     0.075 C 
HETATM    3  C6  UNL     1      21.278   6.416  50.773  1.00  0.00     0.044 C 
HETATM    4  C7  UNL     1      21.805   7.303  49.727  1.00  0.00     0.255 C 
HETATM    5  N1  UNL     1      22.784   8.211  49.972  1.00  0.00     0.087 N 
HETATM    6  C8  UNL     1      23.183   8.993  48.797  1.00  0.00     0.344 A 
HETATM    7  C9  UNL     1      24.201   8.279  49.252  1.00  0.00     0.362 A 
HETATM    8  N2  UNL     1      23.833   7.509  50.434  1.00  0.00    -0.155 N 
HETATM    9  C10 UNL     1      24.529   6.441  50.764  1.00  0.00     0.132 C 
HETATM   10  C11 UNL     1      24.701   5.429  49.688  1.00  0.00     0.202 C 
HETATM   11  O2  UNL     1      24.201   4.284  50.081  1.00  0.00    -0.336 OA
HETATM   12  C12 UNL     1      26.001   5.721  49.114  1.00  0.00     0.020 A 
HETATM   13  C13 UNL     1      26.986   4.813  48.999  1.00  0.00     0.022 A 
HETATM   14 BR1  UNL     1      26.530   3.106  49.673  1.00  0.00    -0.050 Br
HETATM   15  C14 UNL     1      28.202   5.145  48.434  1.00  0.00     0.020 A 
HETATM   16  C15 UNL     1      28.466   6.412  47.963  1.00  0.00     0.004 A 
HETATM   17  C16 UNL     1      27.485   7.368  48.061  1.00  0.00     0.030 A 
HETATM   18  C17 UNL     1      26.291   7.027  48.621  1.00  0.00     0.042 A 
HETATM   19  N3  UNL     1      25.485   8.247  48.575  1.00  0.00    -0.334 N 
HETATM   20  H18 UNL     1      25.679   9.124  48.113  1.00  0.00     0.164 HD
ENDROOT
BRANCH   1  21
HETATM   21  C3  UNL     1      22.072   3.145  50.262  1.00  0.00     0.036 C 
HETATM   22  C2  UNL     1      22.468   2.032  50.814  1.00  0.00    -0.030 C 
HETATM   23  C1  UNL     1      21.718   0.742  50.802  1.00  0.00     0.036 C 
ENDBRANCH   1  21
BRANCH   1  24
HETATM   24  O1  UNL     1      22.335   4.926  48.958  1.00  0.00    -0.362 OA
HETATM   25  H6  UNL     1      21.432   4.609  48.825  1.00  0.00     0.213 HD
ENDBRANCH   1  24
TORSDOF 2
ENDMDL
