MODEL 1
REMARK VINA RESULT:      -8.5      0.000      0.000
REMARK  4 active torsions:
REMARK  status: ('A' for Active; 'I' for Inactive)
REMARK    1  A    between atoms: C3_3  and  O1_4 
REMARK    2  A    between atoms: C8_10  and  C9_11 
REMARK    3  A    between atoms: C10_12  and  N1_13 
REMARK    4  A    between atoms: C10_12  and  C11_15 
ROOT
HETATM    1  C9  UNL     1      25.174   1.924  51.589  1.00  0.00     0.015 C 
HETATM    2  C10 UNL     1      24.421   2.421  50.565  1.00  0.00     0.084 C 
ENDROOT
BRANCH   2   3
HETATM    3  N1  UNL     1      23.031   2.145  50.452  1.00  0.00    -0.101 NA
HETATM    4  O3  UNL     1      22.565   2.070  49.272  1.00  0.00    -0.061 OA
ENDBRANCH   2   3
BRANCH   2   5
HETATM    5  C11 UNL     1      25.056   3.246  49.515  1.00  0.00     0.135 C 
HETATM    6  C12 UNL     1      26.543   3.274  49.481  1.00  0.00     0.033 C 
HETATM    7  C13 UNL     1      27.079   4.585  49.046  1.00  0.00    -0.017 C 
HETATM    8  C14 UNL     1      26.208   5.624  48.808  1.00  0.00     0.043 C 
HETATM    9  C15 UNL     1      26.882   6.889  48.388  1.00  0.00    -0.021 C 
HETATM   10  C16 UNL     1      25.750   7.698  48.294  1.00  0.00    -0.002 C 
HETATM   11  C17 UNL     1      24.586   6.890  48.625  1.00  0.00     0.016 C 
HETATM   12  C18 UNL     1      23.856   5.791  48.961  1.00  0.00     0.083 C 
HETATM   13  N2  UNL     1      24.451   4.469  49.141  1.00  0.00    -0.389 N 
HETATM   14  H20 UNL     1      24.232   4.450  48.075  1.00  0.00     0.159 HD
ENDBRANCH   2   5
BRANCH   1  15
HETATM   15  C8  UNL     1      24.249   1.148  52.404  1.00  0.00     0.056 C 
HETATM   16  C7  UNL     1      23.874   0.352  53.318  1.00  0.00    -0.039 C 
HETATM   17  C2  UNL     1      24.318  -0.496  54.398  1.00  0.00     0.003 C 
HETATM   18  C6  UNL     1      22.373   0.420  53.229  1.00  0.00     0.006 C 
HETATM   19  C1  UNL     1      25.818  -0.432  54.241  1.00  0.00     0.054 C 
HETATM   20  C3  UNL     1      23.893  -1.253  55.366  1.00  0.00     0.185 C 
HETATM   21  O2  UNL     1      22.496  -1.271  55.461  1.00  0.00    -0.327 OA
HETATM   22  C4  UNL     1      21.548  -1.512  54.450  1.00  0.00     0.205 C 
HETATM   23  C5  UNL     1      21.287  -0.273  53.641  1.00  0.00     0.000 C 
BRANCH  20  24
HETATM   24  O1  UNL     1      24.882  -1.877  56.099  1.00  0.00    -0.341 OA
HETATM   25  H4  UNL     1      24.711  -2.880  56.279  1.00  0.00     0.220 HD
ENDBRANCH  20  24
ENDBRANCH   1  15
TORSDOF 4
ENDMDL
MODEL 2
REMARK VINA RESULT:      -8.1      1.984      2.706
REMARK  4 active torsions:
REMARK  status: ('A' for Active; 'I' for Inactive)
REMARK    1  A    between atoms: C3_3  and  O1_4 
REMARK    2  A    between atoms: C8_10  and  C9_11 
REMARK    3  A    between atoms: C10_12  and  N1_13 
REMARK    4  A    between atoms: C10_12  and  C11_15 
ROOT
HETATM    1  C9  UNL     1      26.493   3.213  50.339  1.00  0.00     0.015 C 
HETATM    2  C10 UNL     1      25.782   4.325  49.989  1.00  0.00     0.084 C 
ENDROOT
BRANCH   2   3
HETATM    3  N1  UNL     1      24.436   4.517  50.404  1.00  0.00    -0.101 NA
HETATM    4  O3  UNL     1      24.217   5.505  51.173  1.00  0.00    -0.061 OA
ENDBRANCH   2   3
BRANCH   2   5
HETATM    5  C11 UNL     1      26.400   5.356  49.128  1.00  0.00     0.135 C 
HETATM    6  C12 UNL     1      27.684   5.004  48.465  1.00  0.00     0.033 C 
HETATM    7  C13 UNL     1      28.592   6.166  48.326  1.00  0.00    -0.017 C 
HETATM    8  C14 UNL     1      28.224   7.377  48.868  1.00  0.00     0.043 C 
HETATM    9  C15 UNL     1      29.235   8.458  48.667  1.00  0.00    -0.021 C 
HETATM   10  C16 UNL     1      28.582   9.475  49.362  1.00  0.00    -0.002 C 
HETATM   11  C17 UNL     1      27.321   8.949  49.861  1.00  0.00     0.016 C 
HETATM   12  C18 UNL     1      26.310   8.061  50.074  1.00  0.00     0.083 C 
HETATM   13  N2  UNL     1      26.303   6.715  49.506  1.00  0.00    -0.389 N 
HETATM   14  H20 UNL     1      25.819   7.276  48.709  1.00  0.00     0.159 HD
ENDBRANCH   2   5
BRANCH   1  15
HETATM   15  C8  UNL     1      25.582   2.414  51.149  1.00  0.00     0.056 C 
HETATM   16  C7  UNL     1      25.219   1.500  51.950  1.00  0.00    -0.039 C 
HETATM   17  C2  UNL     1      25.670   0.388  52.751  1.00  0.00     0.003 C 
HETATM   18  C6  UNL     1      23.756   1.788  52.149  1.00  0.00     0.006 C 
HETATM   19  C1  UNL     1      27.118   0.280  52.339  1.00  0.00     0.054 C 
HETATM   20  C3  UNL     1      25.273  -0.494  53.621  1.00  0.00     0.185 C 
HETATM   21  O2  UNL     1      23.924  -0.342  53.963  1.00  0.00    -0.327 OA
HETATM   22  C4  UNL     1      22.807  -0.229  53.114  1.00  0.00     0.205 C 
HETATM   23  C5  UNL     1      22.642   1.178  52.615  1.00  0.00     0.000 C 
BRANCH  20  24
HETATM   24  O1  UNL     1      26.240  -1.389  54.031  1.00  0.00    -0.341 OA
HETATM   25  H4  UNL     1      26.507  -2.085  53.317  1.00  0.00     0.220 HD
ENDBRANCH  20  24
ENDBRANCH   1  15
TORSDOF 4
ENDMDL
MODEL 3
REMARK VINA RESULT:      -8.1      3.181      4.588
REMARK  4 active torsions:
REMARK  status: ('A' for Active; 'I' for Inactive)
REMARK    1  A    between atoms: C3_3  and  O1_4 
REMARK    2  A    between atoms: C8_10  and  C9_11 
REMARK    3  A    between atoms: C10_12  and  N1_13 
REMARK    4  A    between atoms: C10_12  and  C11_15 
ROOT
HETATM    1  C9  UNL     1      24.360   1.476  51.698  1.00  0.00     0.015 C 
HETATM    2  C10 UNL     1      24.385   2.511  50.807  1.00  0.00     0.084 C 
ENDROOT
BRANCH   2   3
HETATM    3  N1  UNL     1      25.551   3.297  50.602  1.00  0.00    -0.101 NA
HETATM    4  O3  UNL     1      26.058   3.262  49.437  1.00  0.00    -0.061 OA
ENDBRANCH   2   3
BRANCH   2   5
HETATM    5  C11 UNL     1      23.165   2.861  50.048  1.00  0.00     0.135 C 
HETATM    6  C12 UNL     1      22.414   1.743  49.418  1.00  0.00     0.033 C 
HETATM    7  C13 UNL     1      21.784   2.130  48.135  1.00  0.00    -0.017 C 
HETATM    8  C14 UNL     1      22.007   3.390  47.627  1.00  0.00     0.043 C 
HETATM    9  C15 UNL     1      21.323   3.643  46.324  1.00  0.00    -0.021 C 
HETATM   10  C16 UNL     1      21.798   4.934  46.096  1.00  0.00    -0.002 C 
HETATM   11  C17 UNL     1      22.646   5.312  47.216  1.00  0.00     0.016 C 
HETATM   12  C18 UNL     1      23.285   5.215  48.415  1.00  0.00     0.083 C 
HETATM   13  N2  UNL     1      23.142   4.061  49.299  1.00  0.00    -0.389 N 
HETATM   14  H20 UNL     1      22.317   4.682  49.640  1.00  0.00     0.159 HD
ENDBRANCH   2   5
BRANCH   1  15
HETATM   15  C8  UNL     1      25.696   1.435  52.277  1.00  0.00     0.056 C 
HETATM   16  C7  UNL     1      26.772   0.921  52.709  1.00  0.00    -0.039 C 
HETATM   17  C2  UNL     1      27.478  -0.316  52.938  1.00  0.00     0.003 C 
HETATM   18  C6  UNL     1      27.618   2.125  53.024  1.00  0.00     0.006 C 
HETATM   19  C1  UNL     1      26.420  -1.339  52.603  1.00  0.00     0.054 C 
HETATM   20  C3  UNL     1      28.620  -0.804  53.326  1.00  0.00     0.185 C 
HETATM   21  O2  UNL     1      29.558   0.192  53.621  1.00  0.00    -0.327 OA
HETATM   22  C4  UNL     1      29.413   1.320  54.450  1.00  0.00     0.205 C 
HETATM   23  C5  UNL     1      28.730   2.445  53.724  1.00  0.00     0.000 C 
BRANCH  20  24
HETATM   24  O1  UNL     1      28.683  -2.182  53.369  1.00  0.00    -0.341 OA
HETATM   25  H4  UNL     1      29.611  -2.574  53.143  1.00  0.00     0.220 HD
ENDBRANCH  20  24
ENDBRANCH   1  15
TORSDOF 4
ENDMDL
MODEL 4
REMARK VINA RESULT:      -8.0      4.491      7.093
REMARK  4 active torsions:
REMARK  status: ('A' for Active; 'I' for Inactive)
REMARK    1  A    between atoms: C3_3  and  O1_4 
REMARK    2  A    between atoms: C8_10  and  C9_11 
REMARK    3  A    between atoms: C10_12  and  N1_13 
REMARK    4  A    between atoms: C10_12  and  C11_15 
ROOT
HETATM    1  C9  UNL     1      23.865  -0.013  52.821  1.00  0.00     0.015 C 
HETATM    2  C10 UNL     1      23.236  -0.420  53.962  1.00  0.00     0.084 C 
ENDROOT
BRANCH   2   3
HETATM    3  N1  UNL     1      23.949  -1.000  55.047  1.00  0.00    -0.101 NA
HETATM    4  O3  UNL     1      23.249  -1.570  55.941  1.00  0.00    -0.061 OA
ENDBRANCH   2   3
BRANCH   2   5
HETATM    5  C11 UNL     1      21.767  -0.293  54.081  1.00  0.00     0.135 C 
HETATM    6  C12 UNL     1      20.985  -1.551  54.206  1.00  0.00     0.033 C 
HETATM    7  C13 UNL     1      19.660  -1.467  53.550  1.00  0.00    -0.017 C 
HETATM    8  C14 UNL     1      19.325  -0.329  52.850  1.00  0.00     0.043 C 
HETATM    9  C15 UNL     1      17.967  -0.383  52.230  1.00  0.00    -0.021 C 
HETATM   10  C16 UNL     1      17.991   0.855  51.588  1.00  0.00    -0.002 C 
HETATM   11  C17 UNL     1      19.265   1.495  51.882  1.00  0.00     0.016 C 
HETATM   12  C18 UNL     1      20.499   1.678  52.429  1.00  0.00     0.083 C 
HETATM   13  N2  UNL     1      21.105   0.725  53.355  1.00  0.00    -0.389 N 
HETATM   14  H20 UNL     1      20.559   1.363  54.047  1.00  0.00     0.159 HD
ENDBRANCH   2   5
BRANCH   1  15
HETATM   15  C8  UNL     1      25.276  -0.309  53.033  1.00  0.00     0.056 C 
HETATM   16  C7  UNL     1      26.484  -0.094  53.351  1.00  0.00    -0.039 C 
HETATM   17  C2  UNL     1      27.419   0.896  53.829  1.00  0.00     0.003 C 
HETATM   18  C6  UNL     1      27.114  -1.455  53.223  1.00  0.00     0.006 C 
HETATM   19  C1  UNL     1      26.573   2.146  53.820  1.00  0.00     0.054 C 
HETATM   20  C3  UNL     1      28.652   1.062  54.210  1.00  0.00     0.185 C 
HETATM   21  O2  UNL     1      29.384  -0.131  54.197  1.00  0.00    -0.327 OA
HETATM   22  C4  UNL     1      29.512  -1.074  53.160  1.00  0.00     0.205 C 
HETATM   23  C5  UNL     1      28.342  -2.015  53.132  1.00  0.00     0.000 C 
BRANCH  20  24
HETATM   24  O1  UNL     1      28.990   2.356  54.549  1.00  0.00    -0.341 OA
HETATM   25  H4  UNL     1      29.478   2.447  55.454  1.00  0.00     0.220 HD
ENDBRANCH  20  24
ENDBRANCH   1  15
TORSDOF 4
ENDMDL
MODEL 5
REMARK VINA RESULT:      -7.7      2.556      8.064
REMARK  4 active torsions:
REMARK  status: ('A' for Active; 'I' for Inactive)
REMARK    1  A    between atoms: C3_3  and  O1_4 
REMARK    2  A    between atoms: C8_10  and  C9_11 
REMARK    3  A    between atoms: C10_12  and  N1_13 
REMARK    4  A    between atoms: C10_12  and  C11_15 
ROOT
HETATM    1  C9  UNL     1      23.485   2.796  49.198  1.00  0.00     0.015 C 
HETATM    2  C10 UNL     1      22.989   2.651  50.461  1.00  0.00     0.084 C 
ENDROOT
BRANCH   2   3
HETATM    3  N1  UNL     1      22.975   3.728  51.390  1.00  0.00    -0.101 NA
HETATM    4  O3  UNL     1      23.573   3.530  52.493  1.00  0.00    -0.061 OA
ENDBRANCH   2   3
BRANCH   2   5
HETATM    5  C11 UNL     1      22.478   1.337  50.908  1.00  0.00     0.135 C 
HETATM    6  C12 UNL     1      21.005   1.137  50.877  1.00  0.00     0.033 C 
HETATM    7  C13 UNL     1      20.524   0.267  51.976  1.00  0.00    -0.017 C 
HETATM    8  C14 UNL     1      21.419  -0.181  52.922  1.00  0.00     0.043 C 
HETATM    9  C15 UNL     1      20.800  -1.037  53.977  1.00  0.00    -0.021 C 
HETATM   10  C16 UNL     1      21.937  -1.251  54.754  1.00  0.00    -0.002 C 
HETATM   11  C17 UNL     1      23.056  -0.567  54.123  1.00  0.00     0.016 C 
HETATM   12  C18 UNL     1      23.740   0.166  53.201  1.00  0.00     0.083 C 
HETATM   13  N2  UNL     1      23.125   0.676  51.978  1.00  0.00    -0.389 N 
HETATM   14  H20 UNL     1      23.462  -0.304  51.644  1.00  0.00     0.159 HD
ENDBRANCH   2   5
BRANCH   1  15
HETATM   15  C8  UNL     1      23.921   4.183  49.112  1.00  0.00     0.056 C 
HETATM   16  C7  UNL     1      24.731   5.156  49.040  1.00  0.00    -0.039 C 
HETATM   17  C2  UNL     1      26.125   5.528  48.996  1.00  0.00     0.003 C 
HETATM   18  C6  UNL     1      23.821   6.342  48.871  1.00  0.00     0.006 C 
HETATM   19  C1  UNL     1      26.804   4.201  49.233  1.00  0.00     0.054 C 
HETATM   20  C3  UNL     1      26.925   6.544  48.854  1.00  0.00     0.185 C 
HETATM   21  O2  UNL     1      26.236   7.743  48.636  1.00  0.00    -0.327 OA
HETATM   22  C4  UNL     1      25.174   8.296  49.375  1.00  0.00     0.205 C 
HETATM   23  C5  UNL     1      23.859   7.690  48.974  1.00  0.00     0.000 C 
BRANCH  20  24
HETATM   24  O1  UNL     1      28.269   6.247  48.941  1.00  0.00    -0.341 OA
HETATM   25  H4  UNL     1      28.727   6.590  49.801  1.00  0.00     0.220 HD
ENDBRANCH  20  24
ENDBRANCH   1  15
TORSDOF 4
ENDMDL
MODEL 6
REMARK VINA RESULT:      -7.7      3.442      6.987
REMARK  4 active torsions:
REMARK  status: ('A' for Active; 'I' for Inactive)
REMARK    1  A    between atoms: C3_3  and  O1_4 
REMARK    2  A    between atoms: C8_10  and  C9_11 
REMARK    3  A    between atoms: C10_12  and  N1_13 
REMARK    4  A    between atoms: C10_12  and  C11_15 
ROOT
HETATM    1  C9  UNL     1      22.257  -0.094  53.218  1.00  0.00     0.015 C 
HETATM    2  C10 UNL     1      21.437   0.804  52.598  1.00  0.00     0.084 C 
ENDROOT
BRANCH   2   3
HETATM    3  N1  UNL     1      21.950   1.917  51.879  1.00  0.00    -0.101 NA
HETATM    4  O3  UNL     1      21.412   3.042  52.121  1.00  0.00    -0.061 OA
ENDBRANCH   2   3
BRANCH   2   5
HETATM    5  C11 UNL     1      19.969   0.651  52.693  1.00  0.00     0.135 C 
HETATM    6  C12 UNL     1      19.457  -0.507  53.474  1.00  0.00     0.033 C 
HETATM    7  C13 UNL     1      18.199  -1.057  52.919  1.00  0.00    -0.017 C 
HETATM    8  C14 UNL     1      17.692  -0.535  51.750  1.00  0.00     0.043 C 
HETATM    9  C15 UNL     1      16.428  -1.189  51.298  1.00  0.00    -0.021 C 
HETATM   10  C16 UNL     1      16.246  -0.476  50.114  1.00  0.00    -0.002 C 
HETATM   11  C17 UNL     1      17.332   0.485  49.989  1.00  0.00     0.016 C 
HETATM   12  C18 UNL     1      18.454   1.183  50.317  1.00  0.00     0.083 C 
HETATM   13  N2  UNL     1      19.170   0.988  51.576  1.00  0.00    -0.389 N 
HETATM   14  H20 UNL     1      18.451   1.752  51.866  1.00  0.00     0.159 HD
ENDBRANCH   2   5
BRANCH   1  15
HETATM   15  C8  UNL     1      23.611   0.371  52.948  1.00  0.00     0.056 C 
HETATM   16  C7  UNL     1      24.865   0.487  53.103  1.00  0.00    -0.039 C 
HETATM   17  C2  UNL     1      25.996   0.083  53.903  1.00  0.00     0.003 C 
HETATM   18  C6  UNL     1      25.274   1.325  51.922  1.00  0.00     0.006 C 
HETATM   19  C1  UNL     1      25.325  -0.682  55.018  1.00  0.00     0.054 C 
HETATM   20  C3  UNL     1      27.291   0.172  53.991  1.00  0.00     0.185 C 
HETATM   21  O2  UNL     1      27.853   0.891  52.930  1.00  0.00    -0.327 OA
HETATM   22  C4  UNL     1      27.496   2.161  52.439  1.00  0.00     0.205 C 
HETATM   23  C5  UNL     1      26.321   2.073  51.506  1.00  0.00     0.000 C 
BRANCH  20  24
HETATM   24  O1  UNL     1      27.847  -0.451  55.089  1.00  0.00    -0.341 OA
HETATM   25  H4  UNL     1      28.788  -0.111  55.341  1.00  0.00     0.220 HD
ENDBRANCH  20  24
ENDBRANCH   1  15
TORSDOF 4
ENDMDL
MODEL 7
REMARK VINA RESULT:      -7.4      6.589      9.686
REMARK  4 active torsions:
REMARK  status: ('A' for Active; 'I' for Inactive)
REMARK    1  A    between atoms: C3_3  and  O1_4 
REMARK    2  A    between atoms: C8_10  and  C9_11 
REMARK    3  A    between atoms: C10_12  and  N1_13 
REMARK    4  A    between atoms: C10_12  and  C11_15 
ROOT
HETATM    1  C9  UNL     1      30.009   7.299  46.881  1.00  0.00     0.015 C 
HETATM    2  C10 UNL     1      30.859   6.367  47.402  1.00  0.00     0.084 C 
ENDROOT
BRANCH   2   3
HETATM    3  N1  UNL     1      30.476   5.516  48.475  1.00  0.00    -0.101 NA
HETATM    4  O3  UNL     1      31.175   5.593  49.533  1.00  0.00    -0.061 OA
ENDBRANCH   2   3
BRANCH   2   5
HETATM    5  C11 UNL     1      32.234   6.243  46.871  1.00  0.00     0.135 C 
HETATM    6  C12 UNL     1      32.431   6.533  45.426  1.00  0.00     0.033 C 
HETATM    7  C13 UNL     1      33.486   5.692  44.813  1.00  0.00    -0.017 C 
HETATM    8  C14 UNL     1      34.093   4.715  45.571  1.00  0.00     0.043 C 
HETATM    9  C15 UNL     1      35.128   3.935  44.828  1.00  0.00    -0.021 C 
HETATM   10  C16 UNL     1      35.473   3.043  45.842  1.00  0.00    -0.002 C 
HETATM   11  C17 UNL     1      34.682   3.366  47.020  1.00  0.00     0.016 C 
HETATM   12  C18 UNL     1      33.793   4.028  47.812  1.00  0.00     0.083 C 
HETATM   13  N2  UNL     1      33.074   5.221  47.370  1.00  0.00    -0.389 N 
HETATM   14  H20 UNL     1      33.977   5.668  47.784  1.00  0.00     0.159 HD
ENDBRANCH   2   5
BRANCH   1  15
HETATM   15  C8  UNL     1      28.777   7.166  47.647  1.00  0.00     0.056 C 
HETATM   16  C7  UNL     1      27.882   7.472  48.493  1.00  0.00    -0.039 C 
HETATM   17  C2  UNL     1      27.477   8.442  49.481  1.00  0.00     0.003 C 
HETATM   18  C6  UNL     1      26.840   6.408  48.281  1.00  0.00     0.006 C 
HETATM   19  C1  UNL     1      28.686   9.344  49.539  1.00  0.00     0.054 C 
HETATM   20  C3  UNL     1      26.509   8.759  50.290  1.00  0.00     0.185 C 
HETATM   21  O2  UNL     1      25.418   7.887  50.190  1.00  0.00    -0.327 OA
HETATM   22  C4  UNL     1      25.407   6.480  50.241  1.00  0.00     0.205 C 
HETATM   23  C5  UNL     1      25.762   5.884  48.909  1.00  0.00     0.000 C 
BRANCH  20  24
HETATM   24  O1  UNL     1      26.739   9.872  51.071  1.00  0.00    -0.341 OA
HETATM   25  H4  UNL     1      27.645  10.337  50.895  1.00  0.00     0.220 HD
ENDBRANCH  20  24
ENDBRANCH   1  15
TORSDOF 4
ENDMDL
MODEL 8
REMARK VINA RESULT:      -7.4      3.265      7.773
REMARK  4 active torsions:
REMARK  status: ('A' for Active; 'I' for Inactive)
REMARK    1  A    between atoms: C3_3  and  O1_4 
REMARK    2  A    between atoms: C8_10  and  C9_11 
REMARK    3  A    between atoms: C10_12  and  N1_13 
REMARK    4  A    between atoms: C10_12  and  C11_15 
ROOT
HETATM    1  C9  UNL     1      22.313   0.489  52.061  1.00  0.00     0.015 C 
HETATM    2  C10 UNL     1      21.216   1.253  52.343  1.00  0.00     0.084 C 
ENDROOT
BRANCH   2   3
HETATM    3  N1  UNL     1      21.170   2.641  52.041  1.00  0.00    -0.101 NA
HETATM    4  O3  UNL     1      20.272   3.317  52.632  1.00  0.00    -0.061 OA
ENDBRANCH   2   3
BRANCH   2   5
HETATM    5  C11 UNL     1      20.045   0.644  53.010  1.00  0.00     0.135 C 
HETATM    6  C12 UNL     1      20.274  -0.615  53.767  1.00  0.00     0.033 C 
HETATM    7  C13 UNL     1      19.114  -1.535  53.710  1.00  0.00    -0.017 C 
HETATM    8  C14 UNL     1      18.026  -1.199  52.935  1.00  0.00     0.043 C 
HETATM    9  C15 UNL     1      16.935  -2.219  52.958  1.00  0.00    -0.021 C 
HETATM   10  C16 UNL     1      16.064  -1.600  52.063  1.00  0.00    -0.002 C 
HETATM   11  C17 UNL     1      16.666  -0.346  51.635  1.00  0.00     0.016 C 
HETATM   12  C18 UNL     1      17.570   0.670  51.564  1.00  0.00     0.083 C 
HETATM   13  N2  UNL     1      18.782   0.712  52.378  1.00  0.00    -0.389 N 
HETATM   14  H20 UNL     1      18.075   1.211  53.038  1.00  0.00     0.159 HD
ENDBRANCH   2   5
BRANCH   1  15
HETATM   15  C8  UNL     1      23.268   1.401  51.445  1.00  0.00     0.056 C 
HETATM   16  C7  UNL     1      24.372   1.999  51.268  1.00  0.00    -0.039 C 
HETATM   17  C2  UNL     1      25.724   2.145  51.751  1.00  0.00     0.003 C 
HETATM   18  C6  UNL     1      24.127   2.795  50.016  1.00  0.00     0.006 C 
HETATM   19  C1  UNL     1      25.692   1.309  53.008  1.00  0.00     0.054 C 
HETATM   20  C3  UNL     1      26.860   2.727  51.499  1.00  0.00     0.185 C 
HETATM   21  O2  UNL     1      26.826   3.485  50.323  1.00  0.00    -0.327 OA
HETATM   22  C4  UNL     1      25.892   4.463  49.932  1.00  0.00     0.205 C 
HETATM   23  C5  UNL     1      24.664   3.835  49.337  1.00  0.00     0.000 C 
BRANCH  20  24
HETATM   24  O1  UNL     1      27.858   2.485  52.421  1.00  0.00    -0.341 OA
HETATM   25  H4  UNL     1      28.130   1.492  52.504  1.00  0.00     0.220 HD
ENDBRANCH  20  24
ENDBRANCH   1  15
TORSDOF 4
ENDMDL
MODEL 9
REMARK VINA RESULT:      -7.3      1.934      2.381
REMARK  4 active torsions:
REMARK  status: ('A' for Active; 'I' for Inactive)
REMARK    1  A    between atoms: C3_3  and  O1_4 
REMARK    2  A    between atoms: C8_10  and  C9_11 
REMARK    3  A    between atoms: C10_12  and  N1_13 
REMARK    4  A    between atoms: C10_12  and  C11_15 
ROOT
HETATM    1  C9  UNL     1      23.469   2.729  50.552  1.00  0.00     0.015 C 
HETATM    2  C10 UNL     1      23.140   3.953  51.061  1.00  0.00     0.084 C 
ENDROOT
BRANCH   2   3
HETATM    3  N1  UNL     1      22.742   4.120  52.415  1.00  0.00    -0.101 NA
HETATM    4  O3  UNL     1      23.420   4.945  53.104  1.00  0.00    -0.061 OA
ENDBRANCH   2   3
BRANCH   2   5
HETATM    5  C11 UNL     1      23.161   5.145  50.187  1.00  0.00     0.135 C 
HETATM    6  C12 UNL     1      22.773   4.951  48.765  1.00  0.00     0.033 C 
HETATM    7  C13 UNL     1      23.520   5.838  47.842  1.00  0.00    -0.017 C 
HETATM    8  C14 UNL     1      24.509   6.653  48.345  1.00  0.00     0.043 C 
HETATM    9  C15 UNL     1      25.188   7.483  47.306  1.00  0.00    -0.021 C 
HETATM   10  C16 UNL     1      26.123   8.110  48.130  1.00  0.00    -0.002 C 
HETATM   11  C17 UNL     1      25.914   7.641  49.492  1.00  0.00     0.016 C 
HETATM   12  C18 UNL     1      25.348   6.967  50.532  1.00  0.00     0.083 C 
HETATM   13  N2  UNL     1      24.168   6.120  50.378  1.00  0.00    -0.389 N 
HETATM   14  H20 UNL     1      23.703   7.083  50.577  1.00  0.00     0.159 HD
ENDBRANCH   2   5
BRANCH   1  15
HETATM   15  C8  UNL     1      23.313   1.797  51.661  1.00  0.00     0.056 C 
HETATM   16  C7  UNL     1      23.658   0.949  52.538  1.00  0.00    -0.039 C 
HETATM   17  C2  UNL     1      24.766   0.201  53.082  1.00  0.00     0.003 C 
HETATM   18  C6  UNL     1      22.391   0.736  53.320  1.00  0.00     0.006 C 
HETATM   19  C1  UNL     1      25.872   0.542  52.112  1.00  0.00     0.054 C 
HETATM   20  C3  UNL     1      25.097  -0.620  54.035  1.00  0.00     0.185 C 
HETATM   21  O2  UNL     1      24.032  -0.896  54.900  1.00  0.00    -0.327 OA
HETATM   22  C4  UNL     1      22.725  -1.312  54.583  1.00  0.00     0.205 C 
HETATM   23  C5  UNL     1      21.860  -0.145  54.199  1.00  0.00     0.000 C 
BRANCH  20  24
HETATM   24  O1  UNL     1      26.409  -1.047  54.010  1.00  0.00    -0.341 OA
HETATM   25  H4  UNL     1      26.829  -1.080  53.068  1.00  0.00     0.220 HD
ENDBRANCH  20  24
ENDBRANCH   1  15
TORSDOF 4
ENDMDL
