MODEL 1
REMARK VINA RESULT:      -8.2      0.000      0.000
REMARK  6 active torsions:
REMARK  status: ('A' for Active; 'I' for Inactive)
REMARK    1  A    between atoms: C2_2  and  C3_3 
REMARK    2  A    between atoms: C2_2  and  N1_6 
REMARK    3  A    between atoms: N1_6  and  C6_7 
REMARK    4  A    between atoms: C11_13  and  O1_14 
REMARK    5  A    between atoms: C13_16  and  N3_17 
REMARK    6  A    between atoms: N3_17  and  C14_18 
ROOT
HETATM    1  C6  UNL     1      20.952   1.776  52.110  1.00  0.00     0.033 A 
HETATM    2  C7  UNL     1      20.277   1.794  50.908  1.00  0.00     0.032 A 
HETATM    3  C8  UNL     1      21.049   2.248  49.837  1.00  0.00     0.035 A 
HETATM    4  C9  UNL     1      22.383   2.656  49.920  1.00  0.00     0.069 A 
HETATM    5  N2  UNL     1      23.048   3.073  48.855  1.00  0.00    -0.257 NA
HETATM    6  C10 UNL     1      24.348   3.460  48.987  1.00  0.00     0.156 A 
HETATM    7  C11 UNL     1      25.035   3.443  50.204  1.00  0.00     0.113 A 
HETATM    8  C13 UNL     1      24.290   2.998  51.276  1.00  0.00     0.081 A 
HETATM    9  C20 UNL     1      22.974   2.601  51.165  1.00  0.00     0.024 A 
HETATM   10  C21 UNL     1      22.266   2.163  52.265  1.00  0.00     0.045 A 
ENDROOT
BRANCH   8  11
HETATM   11  N3  UNL     1      24.971   2.973  52.523  1.00  0.00    -0.339 N 
HETATM   12  H15 UNL     1      24.868   3.542  53.390  1.00  0.00     0.167 HD
BRANCH  11  13
HETATM   13  C14 UNL     1      26.012   2.040  52.757  1.00  0.00     0.106 A 
HETATM   14  C15 UNL     1      25.830   0.720  52.590  1.00  0.00     0.060 A 
HETATM   15  C16 UNL     1      26.956  -0.177  52.853  1.00  0.00    -0.023 A 
HETATM   16  C17 UNL     1      26.814  -1.484  52.698  1.00  0.00     0.025 C 
HETATM   17  C18 UNL     1      28.216   0.411  53.283  1.00  0.00     0.035 A 
HETATM   18 BR1  UNL     1      29.699  -0.744  53.631  1.00  0.00    -0.049 Br
HETATM   19  C19 UNL     1      28.388   1.706  53.445  1.00  0.00     0.109 A 
HETATM   20  N4  UNL     1      27.273   2.542  53.181  1.00  0.00    -0.351 N 
HETATM   21  H20 UNL     1      27.407   3.578  53.310  1.00  0.00     0.166 HD
ENDBRANCH  11  13
ENDBRANCH   8  11
BRANCH   7  22
HETATM   22  O1  UNL     1      26.353   3.848  50.268  1.00  0.00    -0.352 OA
HETATM   23  C12 UNL     1      27.073   4.357  49.177  1.00  0.00     0.210 C 
ENDBRANCH   7  22
BRANCH   1  24
HETATM   24  N1  UNL     1      20.249   1.328  53.261  1.00  0.00    -0.360 N 
HETATM   25  H8  UNL     1      19.472   1.900  53.699  1.00  0.00     0.166 HD
BRANCH  24  26
HETATM   26  C2  UNL     1      20.508   0.101  53.925  1.00  0.00     0.009 C 
HETATM   27  C1  UNL     1      19.429  -0.486  53.380  1.00  0.00     0.063 C 
BRANCH  26  28
HETATM   28  C3  UNL     1      21.487  -0.458  54.845  1.00  0.00     0.020 C 
HETATM   29  C4  UNL     1      22.592  -1.076  54.548  1.00  0.00    -0.029 C 
HETATM   30  C5  UNL     1      23.053  -1.321  53.161  1.00  0.00     0.036 C 
ENDBRANCH  26  28
ENDBRANCH  24  26
ENDBRANCH   1  24
TORSDOF 6
ENDMDL
MODEL 2
REMARK VINA RESULT:      -8.0      2.253      5.212
REMARK  6 active torsions:
REMARK  status: ('A' for Active; 'I' for Inactive)
REMARK    1  A    between atoms: C2_2  and  C3_3 
REMARK    2  A    between atoms: C2_2  and  N1_6 
REMARK    3  A    between atoms: N1_6  and  C6_7 
REMARK    4  A    between atoms: C11_13  and  O1_14 
REMARK    5  A    between atoms: C13_16  and  N3_17 
REMARK    6  A    between atoms: N3_17  and  C14_18 
ROOT
HETATM    1  C6  UNL     1      24.410   3.474  49.744  1.00  0.00     0.033 A 
HETATM    2  C7  UNL     1      23.465   3.238  48.768  1.00  0.00     0.032 A 
HETATM    3  C8  UNL     1      22.485   2.318  49.146  1.00  0.00     0.035 A 
HETATM    4  C9  UNL     1      22.421   1.670  50.381  1.00  0.00     0.069 A 
HETATM    5  N2  UNL     1      21.456   0.809  50.663  1.00  0.00    -0.257 NA
HETATM    6  C10 UNL     1      21.437   0.202  51.884  1.00  0.00     0.156 A 
HETATM    7  C11 UNL     1      22.394   0.439  52.876  1.00  0.00     0.113 A 
HETATM    8  C13 UNL     1      23.371   1.345  52.523  1.00  0.00     0.081 A 
HETATM    9  C20 UNL     1      23.411   1.971  51.294  1.00  0.00     0.024 A 
HETATM   10  C21 UNL     1      24.409   2.871  50.984  1.00  0.00     0.045 A 
ENDROOT
BRANCH   8  11
HETATM   11  N3  UNL     1      24.354   1.600  53.517  1.00  0.00    -0.339 N 
HETATM   12  H15 UNL     1      24.372   2.245  54.336  1.00  0.00     0.167 HD
BRANCH  11  13
HETATM   13  C14 UNL     1      25.591   0.909  53.502  1.00  0.00     0.106 A 
HETATM   14  C15 UNL     1      25.707  -0.325  52.986  1.00  0.00     0.060 A 
HETATM   15  C16 UNL     1      27.020  -0.970  53.009  1.00  0.00    -0.023 A 
HETATM   16  C17 UNL     1      27.171  -2.187  52.508  1.00  0.00     0.025 C 
HETATM   17  C18 UNL     1      28.134  -0.237  53.593  1.00  0.00     0.035 A 
HETATM   18 BR1  UNL     1      29.858  -1.063  53.631  1.00  0.00    -0.049 Br
HETATM   19  C19 UNL     1      28.015   0.972  54.097  1.00  0.00     0.109 A 
HETATM   20  N4  UNL     1      26.726   1.563  54.057  1.00  0.00    -0.351 N 
HETATM   21  H20 UNL     1      26.627   2.530  54.459  1.00  0.00     0.166 HD
ENDBRANCH  11  13
ENDBRANCH   8  11
BRANCH   7  22
HETATM   22  O1  UNL     1      22.315  -0.209  54.091  1.00  0.00    -0.352 OA
HETATM   23  C12 UNL     1      21.880  -1.534  54.249  1.00  0.00     0.210 C 
ENDBRANCH   7  22
BRANCH   1  24
HETATM   24  N1  UNL     1      25.450   4.398  49.454  1.00  0.00    -0.360 N 
HETATM   25  H8  UNL     1      26.346   4.097  48.974  1.00  0.00     0.166 HD
BRANCH  24  26
HETATM   26  C2  UNL     1      25.398   5.781  49.767  1.00  0.00     0.009 C 
HETATM   27  C1  UNL     1      26.210   6.100  48.746  1.00  0.00     0.063 C 
BRANCH  26  28
HETATM   28  C3  UNL     1      24.775   6.655  50.749  1.00  0.00     0.020 C 
HETATM   29  C4  UNL     1      23.545   7.081  50.765  1.00  0.00    -0.029 C 
HETATM   30  C5  UNL     1      22.536   6.726  49.740  1.00  0.00     0.036 C 
ENDBRANCH  26  28
ENDBRANCH  24  26
ENDBRANCH   1  24
TORSDOF 6
ENDMDL
MODEL 3
REMARK VINA RESULT:      -7.9      2.870      6.046
REMARK  6 active torsions:
REMARK  status: ('A' for Active; 'I' for Inactive)
REMARK    1  A    between atoms: C2_2  and  C3_3 
REMARK    2  A    between atoms: C2_2  and  N1_6 
REMARK    3  A    between atoms: N1_6  and  C6_7 
REMARK    4  A    between atoms: C11_13  and  O1_14 
REMARK    5  A    between atoms: C13_16  and  N3_17 
REMARK    6  A    between atoms: N3_17  and  C14_18 
ROOT
HETATM    1  C6  UNL     1      23.732  -0.496  53.788  1.00  0.00     0.033 A 
HETATM    2  C7  UNL     1      23.025  -1.043  54.838  1.00  0.00     0.032 A 
HETATM    3  C8  UNL     1      21.642  -1.039  54.646  1.00  0.00     0.035 A 
HETATM    4  C9  UNL     1      20.986  -0.541  53.518  1.00  0.00     0.069 A 
HETATM    5  N2  UNL     1      19.668  -0.575  53.412  1.00  0.00    -0.257 NA
HETATM    6  C10 UNL     1      19.074  -0.077  52.290  1.00  0.00     0.156 A 
HETATM    7  C11 UNL     1      19.788   0.479  51.224  1.00  0.00     0.113 A 
HETATM    8  C13 UNL     1      21.156   0.485  51.394  1.00  0.00     0.081 A 
HETATM    9  C20 UNL     1      21.778  -0.014  52.519  1.00  0.00     0.024 A 
HETATM   10  C21 UNL     1      23.152   0.013  52.646  1.00  0.00     0.045 A 
ENDROOT
BRANCH   8  11
HETATM   11  N3  UNL     1      21.901   1.045  50.321  1.00  0.00    -0.339 N 
HETATM   12  H15 UNL     1      22.136   0.690  49.370  1.00  0.00     0.167 HD
BRANCH  11  13
HETATM   13  C14 UNL     1      22.489   2.328  50.445  1.00  0.00     0.106 A 
HETATM   14  C15 UNL     1      23.699   2.605  49.931  1.00  0.00     0.060 A 
HETATM   15  C16 UNL     1      24.236   3.955  50.103  1.00  0.00    -0.023 A 
HETATM   16  C17 UNL     1      25.426   4.264  49.610  1.00  0.00     0.025 C 
HETATM   17  C18 UNL     1      23.428   4.929  50.823  1.00  0.00     0.035 A 
HETATM   18 BR1  UNL     1      24.113   6.698  51.057  1.00  0.00    -0.049 Br
HETATM   19  C19 UNL     1      22.244   4.651  51.324  1.00  0.00     0.109 A 
HETATM   20  N4  UNL     1      21.757   3.333  51.137  1.00  0.00    -0.351 N 
HETATM   21  H20 UNL     1      20.810   3.107  51.536  1.00  0.00     0.166 HD
ENDBRANCH  11  13
ENDBRANCH   8  11
BRANCH   7  22
HETATM   22  O1  UNL     1      19.123   0.965  50.117  1.00  0.00    -0.352 OA
HETATM   23  C12 UNL     1      18.322   2.117  50.123  1.00  0.00     0.210 C 
ENDBRANCH   7  22
BRANCH   1  24
HETATM   24  N1  UNL     1      25.149  -0.456  53.890  1.00  0.00    -0.360 N 
HETATM   25  H8  UNL     1      25.649  -0.646  54.805  1.00  0.00     0.166 HD
BRANCH  24  26
HETATM   26  C2  UNL     1      26.018  -0.166  52.806  1.00  0.00     0.009 C 
HETATM   27  C1  UNL     1      26.573  -1.389  52.850  1.00  0.00     0.063 C 
BRANCH  26  28
HETATM   28  C3  UNL     1      26.314   0.942  51.910  1.00  0.00     0.020 C 
HETATM   29  C4  UNL     1      27.076   1.969  52.143  1.00  0.00    -0.029 C 
HETATM   30  C5  UNL     1      27.801   2.186  53.418  1.00  0.00     0.036 C 
ENDBRANCH  26  28
ENDBRANCH  24  26
ENDBRANCH   1  24
TORSDOF 6
ENDMDL
MODEL 4
REMARK VINA RESULT:      -7.9      3.182      7.000
REMARK  6 active torsions:
REMARK  status: ('A' for Active; 'I' for Inactive)
REMARK    1  A    between atoms: C2_2  and  C3_3 
REMARK    2  A    between atoms: C2_2  and  N1_6 
REMARK    3  A    between atoms: N1_6  and  C6_7 
REMARK    4  A    between atoms: C11_13  and  O1_14 
REMARK    5  A    between atoms: C13_16  and  N3_17 
REMARK    6  A    between atoms: N3_17  and  C14_18 
ROOT
HETATM    1  C6  UNL     1      25.767  -0.056  53.253  1.00  0.00     0.033 A 
HETATM    2  C7  UNL     1      25.916  -0.592  54.515  1.00  0.00     0.032 A 
HETATM    3  C8  UNL     1      24.709  -0.950  55.118  1.00  0.00     0.035 A 
HETATM    4  C9  UNL     1      23.445  -0.801  54.544  1.00  0.00     0.069 A 
HETATM    5  N2  UNL     1      22.345  -1.167  55.182  1.00  0.00    -0.257 NA
HETATM    6  C10 UNL     1      21.134  -1.002  54.579  1.00  0.00     0.156 A 
HETATM    7  C11 UNL     1      20.980  -0.458  53.300  1.00  0.00     0.113 A 
HETATM    8  C13 UNL     1      22.161  -0.097  52.686  1.00  0.00     0.081 A 
HETATM    9  C20 UNL     1      23.397  -0.256  53.277  1.00  0.00     0.024 A 
HETATM   10  C21 UNL     1      24.553   0.120  52.625  1.00  0.00     0.045 A 
ENDROOT
BRANCH   8  11
HETATM   11  N3  UNL     1      22.026   0.458  51.384  1.00  0.00    -0.339 N 
HETATM   12  H15 UNL     1      21.922   0.022  50.444  1.00  0.00     0.167 HD
BRANCH  11  13
HETATM   13  C14 UNL     1      22.019   1.863  51.197  1.00  0.00     0.106 A 
HETATM   14  C15 UNL     1      22.823   2.462  50.304  1.00  0.00     0.060 A 
HETATM   15  C16 UNL     1      22.754   3.917  50.171  1.00  0.00    -0.023 A 
HETATM   16  C17 UNL     1      23.532   4.543  49.301  1.00  0.00     0.025 C 
HETATM   17  C18 UNL     1      21.815   4.640  51.018  1.00  0.00     0.035 A 
HETATM   18 BR1  UNL     1      21.711   6.542  50.859  1.00  0.00    -0.049 Br
HETATM   19  C19 UNL     1      21.030   4.047  51.891  1.00  0.00     0.109 A 
HETATM   20  N4  UNL     1      21.126   2.636  51.991  1.00  0.00    -0.351 N 
HETATM   21  H20 UNL     1      20.500   2.158  52.688  1.00  0.00     0.166 HD
ENDBRANCH  11  13
ENDBRANCH   8  11
BRANCH   7  22
HETATM   22  O1  UNL     1      19.724  -0.319  52.747  1.00  0.00    -0.352 OA
HETATM   23  C12 UNL     1      18.581  -0.988  53.212  1.00  0.00     0.210 C 
ENDBRANCH   7  22
BRANCH   1  24
HETATM   24  N1  UNL     1      26.941   0.340  52.556  1.00  0.00    -0.360 N 
HETATM   25  H8  UNL     1      27.013   0.273  51.501  1.00  0.00     0.166 HD
BRANCH  24  26
HETATM   26  C2  UNL     1      28.107   0.851  53.183  1.00  0.00     0.009 C 
HETATM   27  C1  UNL     1      27.724   2.123  52.985  1.00  0.00     0.063 C 
BRANCH  26  28
HETATM   28  C3  UNL     1      29.311   0.347  53.826  1.00  0.00     0.020 C 
HETATM   29  C4  UNL     1      29.756  -0.875  53.829  1.00  0.00    -0.029 C 
HETATM   30  C5  UNL     1      29.078  -2.002  53.147  1.00  0.00     0.036 C 
ENDBRANCH  26  28
ENDBRANCH  24  26
ENDBRANCH   1  24
TORSDOF 6
ENDMDL
MODEL 5
REMARK VINA RESULT:      -7.8      2.818      5.290
REMARK  6 active torsions:
REMARK  status: ('A' for Active; 'I' for Inactive)
REMARK    1  A    between atoms: C2_2  and  C3_3 
REMARK    2  A    between atoms: C2_2  and  N1_6 
REMARK    3  A    between atoms: N1_6  and  C6_7 
REMARK    4  A    between atoms: C11_13  and  O1_14 
REMARK    5  A    between atoms: C13_16  and  N3_17 
REMARK    6  A    between atoms: N3_17  and  C14_18 
ROOT
HETATM    1  C6  UNL     1      24.055   0.060  53.201  1.00  0.00     0.033 A 
HETATM    2  C7  UNL     1      23.017  -0.810  52.941  1.00  0.00     0.032 A 
HETATM    3  C8  UNL     1      21.863  -0.181  52.469  1.00  0.00     0.035 A 
HETATM    4  C9  UNL     1      21.720   1.192  52.261  1.00  0.00     0.069 A 
HETATM    5  N2  UNL     1      20.590   1.712  51.809  1.00  0.00    -0.257 NA
HETATM    6  C10 UNL     1      20.500   3.059  51.623  1.00  0.00     0.156 A 
HETATM    7  C11 UNL     1      21.551   3.943  51.885  1.00  0.00     0.113 A 
HETATM    8  C13 UNL     1      22.701   3.343  52.353  1.00  0.00     0.081 A 
HETATM    9  C20 UNL     1      22.814   1.982  52.549  1.00  0.00     0.024 A 
HETATM   10  C21 UNL     1      23.985   1.424  53.020  1.00  0.00     0.045 A 
ENDROOT
BRANCH   8  11
HETATM   11  N3  UNL     1      23.782   4.225  52.626  1.00  0.00    -0.339 N 
HETATM   12  H15 UNL     1      24.179   4.591  53.517  1.00  0.00     0.167 HD
BRANCH  11  13
HETATM   13  C14 UNL     1      24.543   4.781  51.568  1.00  0.00     0.106 A 
HETATM   14  C15 UNL     1      25.349   4.027  50.804  1.00  0.00     0.060 A 
HETATM   15  C16 UNL     1      26.101   4.679  49.731  1.00  0.00    -0.023 A 
HETATM   16  C17 UNL     1      26.906   3.967  48.957  1.00  0.00     0.025 C 
HETATM   17  C18 UNL     1      25.935   6.114  49.550  1.00  0.00     0.035 A 
HETATM   18 BR1  UNL     1      26.909   6.983  48.154  1.00  0.00    -0.049 Br
HETATM   19  C19 UNL     1      25.144   6.847  50.303  1.00  0.00     0.109 A 
HETATM   20  N4  UNL     1      24.432   6.180  51.332  1.00  0.00    -0.351 N 
HETATM   21  H20 UNL     1      23.797   6.763  51.936  1.00  0.00     0.166 HD
ENDBRANCH  11  13
ENDBRANCH   8  11
BRANCH   7  22
HETATM   22  O1  UNL     1      21.393   5.298  51.674  1.00  0.00    -0.352 OA
HETATM   23  C12 UNL     1      20.979   5.861  50.457  1.00  0.00     0.210 C 
ENDBRANCH   7  22
BRANCH   1  24
HETATM   24  N1  UNL     1      25.274  -0.486  53.685  1.00  0.00    -0.360 N 
HETATM   25  H8  UNL     1      25.317  -1.047  54.583  1.00  0.00     0.166 HD
BRANCH  24  26
HETATM   26  C2  UNL     1      26.527  -0.341  53.034  1.00  0.00     0.009 C 
HETATM   27  C1  UNL     1      26.572  -1.643  52.708  1.00  0.00     0.063 C 
BRANCH  26  28
HETATM   28  C3  UNL     1      27.494   0.708  52.748  1.00  0.00     0.020 C 
HETATM   29  C4  UNL     1      28.530   1.046  53.457  1.00  0.00    -0.029 C 
HETATM   30  C5  UNL     1      28.911   0.386  54.728  1.00  0.00     0.036 C 
ENDBRANCH  26  28
ENDBRANCH  24  26
ENDBRANCH   1  24
TORSDOF 6
ENDMDL
MODEL 6
REMARK VINA RESULT:      -7.6      2.737      5.218
REMARK  6 active torsions:
REMARK  status: ('A' for Active; 'I' for Inactive)
REMARK    1  A    between atoms: C2_2  and  C3_3 
REMARK    2  A    between atoms: C2_2  and  N1_6 
REMARK    3  A    between atoms: N1_6  and  C6_7 
REMARK    4  A    between atoms: C11_13  and  O1_14 
REMARK    5  A    between atoms: C13_16  and  N3_17 
REMARK    6  A    between atoms: N3_17  and  C14_18 
ROOT
HETATM    1  C6  UNL     1      22.148  -0.925  53.723  1.00  0.00     0.033 A 
HETATM    2  C7  UNL     1      22.241  -1.459  54.991  1.00  0.00     0.032 A 
HETATM    3  C8  UNL     1      23.502  -1.311  55.571  1.00  0.00     0.035 A 
HETATM    4  C9  UNL     1      24.600  -0.691  54.969  1.00  0.00     0.069 A 
HETATM    5  N2  UNL     1      25.765  -0.590  55.588  1.00  0.00    -0.257 NA
HETATM    6  C10 UNL     1      26.806   0.025  54.958  1.00  0.00     0.156 A 
HETATM    7  C11 UNL     1      26.715   0.566  53.672  1.00  0.00     0.113 A 
HETATM    8  C13 UNL     1      25.477   0.431  53.081  1.00  0.00     0.081 A 
HETATM    9  C20 UNL     1      24.410  -0.187  53.699  1.00  0.00     0.024 A 
HETATM   10  C21 UNL     1      23.188  -0.300  53.068  1.00  0.00     0.045 A 
ENDROOT
BRANCH   8  11
HETATM   11  N3  UNL     1      25.364   0.975  51.772  1.00  0.00    -0.339 N 
HETATM   12  H15 UNL     1      25.712   0.651  50.846  1.00  0.00     0.167 HD
BRANCH  11  13
HETATM   13  C14 UNL     1      24.667   2.190  51.555  1.00  0.00     0.106 A 
HETATM   14  C15 UNL     1      24.373   2.626  50.320  1.00  0.00     0.060 A 
HETATM   15  C16 UNL     1      23.650   3.891  50.182  1.00  0.00    -0.023 A 
HETATM   16  C17 UNL     1      23.344   4.353  48.979  1.00  0.00     0.025 C 
HETATM   17  C18 UNL     1      23.288   4.611  51.394  1.00  0.00     0.035 A 
HETATM   18 BR1  UNL     1      22.344   6.265  51.234  1.00  0.00    -0.049 Br
HETATM   19  C19 UNL     1      23.579   4.178  52.602  1.00  0.00     0.109 A 
HETATM   20  N4  UNL     1      24.280   2.949  52.695  1.00  0.00    -0.351 N 
HETATM   21  H20 UNL     1      24.514   2.599  53.659  1.00  0.00     0.166 HD
ENDBRANCH  11  13
ENDBRANCH   8  11
BRANCH   7  22
HETATM   22  O1  UNL     1      27.809   1.177  53.093  1.00  0.00    -0.352 OA
HETATM   23  C12 UNL     1      29.123   1.049  53.567  1.00  0.00     0.210 C 
ENDBRANCH   7  22
BRANCH   1  24
HETATM   24  N1  UNL     1      20.902  -1.025  53.049  1.00  0.00    -0.360 N 
HETATM   25  H8  UNL     1      20.487  -1.962  52.776  1.00  0.00     0.166 HD
BRANCH  24  26
HETATM   26  C2  UNL     1      20.103   0.088  52.680  1.00  0.00     0.009 C 
HETATM   27  C1  UNL     1      18.963  -0.567  52.956  1.00  0.00     0.063 C 
BRANCH  26  28
HETATM   28  C3  UNL     1      20.282   1.446  52.189  1.00  0.00     0.020 C 
HETATM   29  C4  UNL     1      20.747   1.815  51.031  1.00  0.00    -0.029 C 
HETATM   30  C5  UNL     1      21.187   0.870  49.979  1.00  0.00     0.036 C 
ENDBRANCH  26  28
ENDBRANCH  24  26
ENDBRANCH   1  24
TORSDOF 6
ENDMDL
MODEL 7
REMARK VINA RESULT:      -7.5      2.802      5.920
REMARK  6 active torsions:
REMARK  status: ('A' for Active; 'I' for Inactive)
REMARK    1  A    between atoms: C2_2  and  C3_3 
REMARK    2  A    between atoms: C2_2  and  N1_6 
REMARK    3  A    between atoms: N1_6  and  C6_7 
REMARK    4  A    between atoms: C11_13  and  O1_14 
REMARK    5  A    between atoms: C13_16  and  N3_17 
REMARK    6  A    between atoms: N3_17  and  C14_18 
ROOT
HETATM    1  C6  UNL     1      25.759   2.761  51.699  1.00  0.00     0.033 A 
HETATM    2  C7  UNL     1      26.344   2.955  50.465  1.00  0.00     0.032 A 
HETATM    3  C8  UNL     1      25.429   3.238  49.449  1.00  0.00     0.035 A 
HETATM    4  C9  UNL     1      24.045   3.329  49.611  1.00  0.00     0.069 A 
HETATM    5  N2  UNL     1      23.244   3.604  48.595  1.00  0.00    -0.257 NA
HETATM    6  C10 UNL     1      21.899   3.682  48.804  1.00  0.00     0.156 A 
HETATM    7  C11 UNL     1      21.303   3.485  50.054  1.00  0.00     0.113 A 
HETATM    8  C13 UNL     1      22.189   3.204  51.072  1.00  0.00     0.081 A 
HETATM    9  C20 UNL     1      23.553   3.120  50.883  1.00  0.00     0.024 A 
HETATM   10  C21 UNL     1      24.403   2.835  51.932  1.00  0.00     0.045 A 
ENDROOT
BRANCH   8  11
HETATM   11  N3  UNL     1      21.603   3.001  52.351  1.00  0.00    -0.339 N 
HETATM   12  H15 UNL     1      21.551   3.601  53.201  1.00  0.00     0.167 HD
BRANCH  11  13
HETATM   13  C14 UNL     1      20.933   1.789  52.653  1.00  0.00     0.106 A 
HETATM   14  C15 UNL     1      21.530   0.803  53.341  1.00  0.00     0.060 A 
HETATM   15  C16 UNL     1      20.769  -0.418  53.611  1.00  0.00    -0.023 A 
HETATM   16  C17 UNL     1      21.325  -1.411  54.286  1.00  0.00     0.025 C 
HETATM   17  C18 UNL     1      19.401  -0.497  53.118  1.00  0.00     0.035 A 
HETATM   18 BR1  UNL     1      18.390  -2.082  53.462  1.00  0.00    -0.049 Br
HETATM   19  C19 UNL     1      18.822   0.474  52.445  1.00  0.00     0.109 A 
HETATM   20  N4  UNL     1      19.592   1.640  52.202  1.00  0.00    -0.351 N 
HETATM   21  H20 UNL     1      19.132   2.418  51.664  1.00  0.00     0.166 HD
ENDBRANCH  11  13
ENDBRANCH   8  11
BRANCH   7  22
HETATM   22  O1  UNL     1      19.934   3.580  50.197  1.00  0.00    -0.352 OA
HETATM   23  C12 UNL     1      19.204   4.763  50.010  1.00  0.00     0.210 C 
ENDBRANCH   7  22
BRANCH   1  24
HETATM   24  N1  UNL     1      26.609   2.467  52.799  1.00  0.00    -0.360 N 
HETATM   25  H8  UNL     1      26.753   3.155  53.593  1.00  0.00     0.166 HD
BRANCH  24  26
HETATM   26  C2  UNL     1      27.334   1.256  52.945  1.00  0.00     0.009 C 
HETATM   27  C1  UNL     1      28.305   1.857  53.652  1.00  0.00     0.063 C 
BRANCH  26  28
HETATM   28  C3  UNL     1      27.215  -0.141  52.557  1.00  0.00     0.020 C 
HETATM   29  C4  UNL     1      26.241  -0.960  52.829  1.00  0.00    -0.029 C 
HETATM   30  C5  UNL     1      25.042  -0.584  53.613  1.00  0.00     0.036 C 
ENDBRANCH  26  28
ENDBRANCH  24  26
ENDBRANCH   1  24
TORSDOF 6
ENDMDL
MODEL 8
REMARK VINA RESULT:      -7.5      2.782      5.153
REMARK  6 active torsions:
REMARK  status: ('A' for Active; 'I' for Inactive)
REMARK    1  A    between atoms: C2_2  and  C3_3 
REMARK    2  A    between atoms: C2_2  and  N1_6 
REMARK    3  A    between atoms: N1_6  and  C6_7 
REMARK    4  A    between atoms: C11_13  and  O1_14 
REMARK    5  A    between atoms: C13_16  and  N3_17 
REMARK    6  A    between atoms: N3_17  and  C14_18 
ROOT
HETATM    1  C6  UNL     1      21.672   0.475  52.954  1.00  0.00     0.033 A 
HETATM    2  C7  UNL     1      21.937  -0.878  52.984  1.00  0.00     0.032 A 
HETATM    3  C8  UNL     1      23.282  -1.180  53.206  1.00  0.00     0.035 A 
HETATM    4  C9  UNL     1      24.301  -0.243  53.388  1.00  0.00     0.069 A 
HETATM    5  N2  UNL     1      25.554  -0.612  53.596  1.00  0.00    -0.257 NA
HETATM    6  C10 UNL     1      26.513   0.342  53.768  1.00  0.00     0.156 A 
HETATM    7  C11 UNL     1      26.247   1.714  53.738  1.00  0.00     0.113 A 
HETATM    8  C13 UNL     1      24.924   2.035  53.519  1.00  0.00     0.081 A 
HETATM    9  C20 UNL     1      23.937   1.087  53.343  1.00  0.00     0.024 A 
HETATM   10  C21 UNL     1      22.625   1.455  53.125  1.00  0.00     0.045 A 
ENDROOT
BRANCH   8  11
HETATM   11  N3  UNL     1      24.632   3.426  53.485  1.00  0.00    -0.339 N 
HETATM   12  H15 UNL     1      24.634   4.161  54.224  1.00  0.00     0.167 HD
BRANCH  11  13
HETATM   13  C14 UNL     1      24.251   4.053  52.273  1.00  0.00     0.106 A 
HETATM   14  C15 UNL     1      23.175   4.853  52.197  1.00  0.00     0.060 A 
HETATM   15  C16 UNL     1      22.850   5.463  50.907  1.00  0.00    -0.023 A 
HETATM   16  C17 UNL     1      21.796   6.257  50.795  1.00  0.00     0.025 C 
HETATM   17  C18 UNL     1      23.711   5.168  49.771  1.00  0.00     0.035 A 
HETATM   18 BR1  UNL     1      23.303   5.955  48.078  1.00  0.00    -0.049 Br
HETATM   19  C19 UNL     1      24.764   4.383  49.852  1.00  0.00     0.109 A 
HETATM   20  N4  UNL     1      25.047   3.811  51.119  1.00  0.00    -0.351 N 
HETATM   21  H20 UNL     1      25.888   3.182  51.187  1.00  0.00     0.166 HD
ENDBRANCH  11  13
ENDBRANCH   8  11
BRANCH   7  22
HETATM   22  O1  UNL     1      27.265   2.627  53.920  1.00  0.00    -0.352 OA
HETATM   23  C12 UNL     1      28.608   2.384  53.592  1.00  0.00     0.210 C 
ENDBRANCH   7  22
BRANCH   1  24
HETATM   24  N1  UNL     1      20.329   0.884  52.734  1.00  0.00    -0.360 N 
HETATM   25  H8  UNL     1      19.601   0.849  53.504  1.00  0.00     0.166 HD
BRANCH  24  26
HETATM   26  C2  UNL     1      19.836   1.370  51.495  1.00  0.00     0.009 C 
HETATM   27  C1  UNL     1      18.940   0.374  51.397  1.00  0.00     0.063 C 
BRANCH  26  28
HETATM   28  C3  UNL     1      20.085   2.471  50.577  1.00  0.00     0.020 C 
HETATM   29  C4  UNL     1      21.035   2.567  49.693  1.00  0.00    -0.029 C 
HETATM   30  C5  UNL     1      22.063   1.523  49.469  1.00  0.00     0.036 C 
ENDBRANCH  26  28
ENDBRANCH  24  26
ENDBRANCH   1  24
TORSDOF 6
ENDMDL
MODEL 9
REMARK VINA RESULT:      -7.5      3.955      6.689
REMARK  6 active torsions:
REMARK  status: ('A' for Active; 'I' for Inactive)
REMARK    1  A    between atoms: C2_2  and  C3_3 
REMARK    2  A    between atoms: C2_2  and  N1_6 
REMARK    3  A    between atoms: N1_6  and  C6_7 
REMARK    4  A    between atoms: C11_13  and  O1_14 
REMARK    5  A    between atoms: C13_16  and  N3_17 
REMARK    6  A    between atoms: N3_17  and  C14_18 
ROOT
HETATM    1  C6  UNL     1      23.757   1.721  52.411  1.00  0.00     0.033 A 
HETATM    2  C7  UNL     1      24.197   2.876  53.022  1.00  0.00     0.032 A 
HETATM    3  C8  UNL     1      23.457   4.009  52.678  1.00  0.00     0.035 A 
HETATM    4  C9  UNL     1      22.368   4.026  51.804  1.00  0.00     0.069 A 
HETATM    5  N2  UNL     1      21.717   5.145  51.529  1.00  0.00    -0.257 NA
HETATM    6  C10 UNL     1      20.659   5.110  50.670  1.00  0.00     0.156 A 
HETATM    7  C11 UNL     1      20.211   3.940  50.050  1.00  0.00     0.113 A 
HETATM    8  C13 UNL     1      20.928   2.809  50.376  1.00  0.00     0.081 A 
HETATM    9  C20 UNL     1      22.001   2.820  51.243  1.00  0.00     0.024 A 
HETATM   10  C21 UNL     1      22.691   1.663  51.540  1.00  0.00     0.045 A 
ENDROOT
BRANCH   8  11
HETATM   11  N3  UNL     1      20.489   1.608  49.755  1.00  0.00    -0.339 N 
HETATM   12  H15 UNL     1      20.862   1.056  48.954  1.00  0.00     0.167 HD
BRANCH  11  13
HETATM   13  C14 UNL     1      19.332   0.936  50.223  1.00  0.00     0.106 A 
HETATM   14  C15 UNL     1      19.325   0.268  51.387  1.00  0.00     0.060 A 
HETATM   15  C16 UNL     1      18.089  -0.400  51.800  1.00  0.00    -0.023 A 
HETATM   16  C17 UNL     1      18.045  -1.068  52.942  1.00  0.00     0.025 C 
HETATM   17  C18 UNL     1      16.931  -0.303  50.922  1.00  0.00     0.035 A 
HETATM   18 BR1  UNL     1      15.308  -1.168  51.444  1.00  0.00    -0.049 Br
HETATM   19  C19 UNL     1      16.946   0.354  49.782  1.00  0.00     0.109 A 
HETATM   20  N4  UNL     1      18.161   0.987  49.417  1.00  0.00    -0.351 N 
HETATM   21  H20 UNL     1      18.176   1.513  48.506  1.00  0.00     0.166 HD
ENDBRANCH  11  13
ENDBRANCH   8  11
BRANCH   7  22
HETATM   22  O1  UNL     1      19.132   3.975  49.190  1.00  0.00    -0.352 OA
HETATM   23  C12 UNL     1      17.919   4.620  49.476  1.00  0.00     0.210 C 
ENDBRANCH   7  22
BRANCH   1  24
HETATM   24  N1  UNL     1      24.447   0.512  52.700  1.00  0.00    -0.360 N 
HETATM   25  H8  UNL     1      25.441   0.344  52.370  1.00  0.00     0.166 HD
BRANCH  24  26
HETATM   26  C2  UNL     1      23.893  -0.565  53.438  1.00  0.00     0.009 C 
HETATM   27  C1  UNL     1      24.931  -0.588  54.291  1.00  0.00     0.063 C 
BRANCH  26  28
HETATM   28  C3  UNL     1      22.707  -1.408  53.417  1.00  0.00     0.020 C 
HETATM   29  C4  UNL     1      21.546  -1.156  53.946  1.00  0.00    -0.029 C 
HETATM   30  C5  UNL     1      21.229   0.088  54.688  1.00  0.00     0.036 C 
ENDBRANCH  26  28
ENDBRANCH  24  26
ENDBRANCH   1  24
TORSDOF 6
ENDMDL
