MODEL 1
REMARK VINA RESULT:      -7.8      0.000      0.000
REMARK  3 active torsions:
REMARK  status: ('A' for Active; 'I' for Inactive)
REMARK    1  A    between atoms: O1_2  and  C2_3 
REMARK    2  A    between atoms: N3_10  and  C7_11 
REMARK    3  A    between atoms: C15_19  and  O2_20 
ROOT
HETATM    1  C2  UNL     1      22.533   0.911  53.129  1.00  0.00     0.103 A 
HETATM    2  C3  UNL     1      23.039   1.832  52.323  1.00  0.00     0.069 A 
HETATM    3  C4  UNL     1      24.450   1.690  51.867  1.00  0.00     0.065 A 
HETATM    4  N1  UNL     1      24.757   2.736  51.190  1.00  0.00    -0.244 NA
HETATM    5  C5  UNL     1      25.969   3.089  50.545  1.00  0.00     0.229 C 
HETATM    6  N2  UNL     1      27.060   2.819  51.210  1.00  0.00    -0.263 NA
HETATM    7  C6  UNL     1      27.178   2.202  52.526  1.00  0.00     0.275 C 
HETATM    8  N3  UNL     1      26.676   0.838  52.501  1.00  0.00    -0.349 N 
HETATM    9  C13 UNL     1      25.330   0.553  52.172  1.00  0.00     0.164 A 
HETATM   10  C14 UNL     1      24.618  -0.362  53.093  1.00  0.00     0.044 A 
HETATM   11  C15 UNL     1      23.377  -0.213  53.517  1.00  0.00     0.100 A 
ENDROOT
BRANCH   8  12
HETATM   12  C7  UNL     1      27.529  -0.258  52.810  1.00  0.00     0.032 A 
HETATM   13  C8  UNL     1      28.762  -0.089  53.407  1.00  0.00     0.029 A 
HETATM   14  C9  UNL     1      29.617  -1.129  53.705  1.00  0.00     0.002 A 
HETATM   15  C10 UNL     1      29.260  -2.418  53.407  1.00  0.00     0.000 A 
HETATM   16  C11 UNL     1      28.036  -2.632  52.810  1.00  0.00     0.002 A 
HETATM   17  C12 UNL     1      27.212  -1.569  52.528  1.00  0.00     0.029 A 
ENDBRANCH   8  12
BRANCH  11  18
HETATM   18  O2  UNL     1      22.802  -1.138  54.373  1.00  0.00    -0.353 OA
HETATM   19  C16 UNL     1      23.279  -1.446  55.655  1.00  0.00     0.210 C 
ENDBRANCH  11  18
BRANCH   1  20
HETATM   20  O1  UNL     1      21.231   1.135  53.500  1.00  0.00    -0.353 OA
HETATM   21  C1  UNL     1      20.116   1.001  52.653  1.00  0.00     0.210 C 
ENDBRANCH   1  20
TORSDOF 3
ENDMDL
MODEL 2
REMARK VINA RESULT:      -7.4      3.018      6.505
REMARK  3 active torsions:
REMARK  status: ('A' for Active; 'I' for Inactive)
REMARK    1  A    between atoms: O1_2  and  C2_3 
REMARK    2  A    between atoms: N3_10  and  C7_11 
REMARK    3  A    between atoms: C15_19  and  O2_20 
ROOT
HETATM    1  C2  UNL     1      26.221   0.473  54.268  1.00  0.00     0.103 A 
HETATM    2  C3  UNL     1      25.354  -0.361  54.821  1.00  0.00     0.069 A 
HETATM    3  C4  UNL     1      24.023  -0.543  54.179  1.00  0.00     0.065 A 
HETATM    4  N1  UNL     1      23.317  -1.303  54.933  1.00  0.00    -0.244 NA
HETATM    5  C5  UNL     1      21.990  -1.776  54.776  1.00  0.00     0.229 C 
HETATM    6  N2  UNL     1      21.130  -0.901  54.325  1.00  0.00    -0.263 NA
HETATM    7  C6  UNL     1      21.372   0.492  53.968  1.00  0.00     0.275 C 
HETATM    8  N3  UNL     1      22.283   0.581  52.839  1.00  0.00    -0.349 N 
HETATM    9  C13 UNL     1      23.601   0.073  52.912  1.00  0.00     0.164 A 
HETATM   10  C14 UNL     1      24.674   0.982  52.448  1.00  0.00     0.044 A 
HETATM   11  C15 UNL     1      25.839   1.161  53.041  1.00  0.00     0.100 A 
ENDROOT
BRANCH   8  12
HETATM   12  C7  UNL     1      21.873   1.190  51.620  1.00  0.00     0.032 A 
HETATM   13  C8  UNL     1      21.543   0.454  50.501  1.00  0.00     0.029 A 
HETATM   14  C9  UNL     1      21.157   1.017  49.301  1.00  0.00     0.002 A 
HETATM   15  C10 UNL     1      21.087   2.379  49.173  1.00  0.00     0.000 A 
HETATM   16  C11 UNL     1      21.410   3.152  50.267  1.00  0.00     0.002 A 
HETATM   17  C12 UNL     1      21.789   2.555  51.446  1.00  0.00     0.029 A 
ENDBRANCH   8  12
BRANCH  11  18
HETATM   18  O2  UNL     1      26.778   2.033  52.514  1.00  0.00    -0.353 OA
HETATM   19  C16 UNL     1      26.698   2.624  51.245  1.00  0.00     0.210 C 
ENDBRANCH  11  18
BRANCH   1  20
HETATM   20  O1  UNL     1      27.414   0.579  54.939  1.00  0.00    -0.353 OA
HETATM   21  C1  UNL     1      28.604  -0.076  54.575  1.00  0.00     0.210 C 
ENDBRANCH   1  20
TORSDOF 3
ENDMDL
MODEL 3
REMARK VINA RESULT:      -7.4      2.661      4.188
REMARK  3 active torsions:
REMARK  status: ('A' for Active; 'I' for Inactive)
REMARK    1  A    between atoms: O1_2  and  C2_3 
REMARK    2  A    between atoms: N3_10  and  C7_11 
REMARK    3  A    between atoms: C15_19  and  O2_20 
ROOT
HETATM    1  C2  UNL     1      22.650   2.824  50.614  1.00  0.00     0.103 A 
HETATM    2  C3  UNL     1      21.827   2.288  51.502  1.00  0.00     0.069 A 
HETATM    3  C4  UNL     1      22.399   1.483  52.617  1.00  0.00     0.065 A 
HETATM    4  N1  UNL     1      21.426   0.980  53.285  1.00  0.00    -0.244 NA
HETATM    5  C5  UNL     1      21.433   0.143  54.429  1.00  0.00     0.229 C 
HETATM    6  N2  UNL     1      22.332  -0.806  54.428  1.00  0.00    -0.263 NA
HETATM    7  C6  UNL     1      23.320  -1.102  53.397  1.00  0.00     0.275 C 
HETATM    8  N3  UNL     1      24.261  -0.003  53.255  1.00  0.00    -0.349 N 
HETATM    9  C13 UNL     1      23.833   1.290  52.876  1.00  0.00     0.164 A 
HETATM   10  C14 UNL     1      24.601   1.932  51.784  1.00  0.00     0.044 A 
HETATM   11  C15 UNL     1      24.084   2.617  50.782  1.00  0.00     0.100 A 
ENDROOT
BRANCH   8  12
HETATM   12  C7  UNL     1      25.650  -0.200  53.494  1.00  0.00     0.032 A 
HETATM   13  C8  UNL     1      26.320   0.431  54.522  1.00  0.00     0.029 A 
HETATM   14  C9  UNL     1      27.668   0.272  54.767  1.00  0.00     0.002 A 
HETATM   15  C10 UNL     1      28.419  -0.548  53.968  1.00  0.00     0.000 A 
HETATM   16  C11 UNL     1      27.790  -1.198  52.929  1.00  0.00     0.002 A 
HETATM   17  C12 UNL     1      26.444  -1.015  52.716  1.00  0.00     0.029 A 
ENDBRANCH   8  12
BRANCH  11  18
HETATM   18  O2  UNL     1      24.898   3.188  49.816  1.00  0.00    -0.353 OA
HETATM   19  C16 UNL     1      26.299   3.199  49.856  1.00  0.00     0.210 C 
ENDBRANCH  11  18
BRANCH   1  20
HETATM   20  O1  UNL     1      22.028   3.538  49.621  1.00  0.00    -0.353 OA
HETATM   21  C1  UNL     1      21.742   4.914  49.675  1.00  0.00     0.210 C 
ENDBRANCH   1  20
TORSDOF 3
ENDMDL
MODEL 4
REMARK VINA RESULT:      -7.3      3.053      5.768
REMARK  3 active torsions:
REMARK  status: ('A' for Active; 'I' for Inactive)
REMARK    1  A    between atoms: O1_2  and  C2_3 
REMARK    2  A    between atoms: N3_10  and  C7_11 
REMARK    3  A    between atoms: C15_19  and  O2_20 
ROOT
HETATM    1  C2  UNL     1      25.978   3.228  50.214  1.00  0.00     0.103 A 
HETATM    2  C3  UNL     1      24.921   3.521  49.472  1.00  0.00     0.069 A 
HETATM    3  C4  UNL     1      23.575   3.081  49.933  1.00  0.00     0.065 A 
HETATM    4  N1  UNL     1      22.724   3.376  49.019  1.00  0.00    -0.244 NA
HETATM    5  C5  UNL     1      21.323   3.168  48.968  1.00  0.00     0.229 C 
HETATM    6  N2  UNL     1      20.907   2.014  49.418  1.00  0.00    -0.263 NA
HETATM    7  C6  UNL     1      21.708   0.923  49.962  1.00  0.00     0.275 C 
HETATM    8  N3  UNL     1      22.369   1.335  51.190  1.00  0.00    -0.349 N 
HETATM    9  C13 UNL     1      23.295   2.403  51.208  1.00  0.00     0.164 A 
HETATM   10  C14 UNL     1      24.580   2.137  51.894  1.00  0.00     0.044 A 
HETATM   11  C15 UNL     1      25.771   2.504  51.463  1.00  0.00     0.100 A 
ENDROOT
BRANCH   8  12
HETATM   12  C7  UNL     1      22.103   0.666  52.418  1.00  0.00     0.032 A 
HETATM   13  C8  UNL     1      22.872  -0.388  52.867  1.00  0.00     0.029 A 
HETATM   14  C9  UNL     1      22.630  -1.064  54.044  1.00  0.00     0.002 A 
HETATM   15  C10 UNL     1      21.576  -0.701  54.841  1.00  0.00     0.000 A 
HETATM   16  C11 UNL     1      20.782   0.348  54.430  1.00  0.00     0.002 A 
HETATM   17  C12 UNL     1      21.055   0.998  53.249  1.00  0.00     0.029 A 
ENDBRANCH   8  12
BRANCH  11  18
HETATM   18  O2  UNL     1      26.913   2.211  52.192  1.00  0.00    -0.353 OA
HETATM   19  C16 UNL     1      27.032   1.148  53.099  1.00  0.00     0.210 C 
ENDBRANCH  11  18
BRANCH   1  20
HETATM   20  O1  UNL     1      27.172   3.668  49.700  1.00  0.00    -0.353 OA
HETATM   21  C1  UNL     1      27.316   4.728  48.787  1.00  0.00     0.210 C 
ENDBRANCH   1  20
TORSDOF 3
ENDMDL
MODEL 5
REMARK VINA RESULT:      -7.2      2.316      5.360
REMARK  3 active torsions:
REMARK  status: ('A' for Active; 'I' for Inactive)
REMARK    1  A    between atoms: O1_2  and  C2_3 
REMARK    2  A    between atoms: N3_10  and  C7_11 
REMARK    3  A    between atoms: C15_19  and  O2_20 
ROOT
HETATM    1  C2  UNL     1      25.756   3.217  50.829  1.00  0.00     0.103 A 
HETATM    2  C3  UNL     1      26.766   2.489  51.280  1.00  0.00     0.069 A 
HETATM    3  C4  UNL     1      26.469   1.234  52.027  1.00  0.00     0.065 A 
HETATM    4  N1  UNL     1      27.579   0.754  52.456  1.00  0.00    -0.244 NA
HETATM    5  C5  UNL     1      27.841  -0.413  53.216  1.00  0.00     0.229 C 
HETATM    6  N2  UNL     1      27.003  -0.652  54.189  1.00  0.00    -0.263 NA
HETATM    7  C6  UNL     1      25.839   0.133  54.583  1.00  0.00     0.275 C 
HETATM    8  N3  UNL     1      24.843   0.140  53.524  1.00  0.00    -0.349 N 
HETATM    9  C13 UNL     1      25.128   0.674  52.246  1.00  0.00     0.164 A 
HETATM   10  C14 UNL     1      24.126   1.619  51.700  1.00  0.00     0.044 A 
HETATM   11  C15 UNL     1      24.397   2.744  51.067  1.00  0.00     0.100 A 
ENDROOT
BRANCH   8  12
HETATM   12  C7  UNL     1      23.542  -0.390  53.747  1.00  0.00     0.032 A 
HETATM   13  C8  UNL     1      22.494  -0.167  52.878  1.00  0.00     0.029 A 
HETATM   14  C9  UNL     1      21.219  -0.655  53.075  1.00  0.00     0.002 A 
HETATM   15  C10 UNL     1      20.936  -1.408  54.184  1.00  0.00     0.000 A 
HETATM   16  C11 UNL     1      21.954  -1.656  55.079  1.00  0.00     0.002 A 
HETATM   17  C12 UNL     1      23.212  -1.152  54.848  1.00  0.00     0.029 A 
ENDBRANCH   8  12
BRANCH  11  18
HETATM   18  O2  UNL     1      23.380   3.553  50.586  1.00  0.00    -0.353 OA
HETATM   19  C16 UNL     1      22.399   4.163  51.381  1.00  0.00     0.210 C 
ENDBRANCH  11  18
BRANCH   1  20
HETATM   20  O1  UNL     1      26.132   4.357  50.163  1.00  0.00    -0.353 OA
HETATM   21  C1  UNL     1      27.063   4.406  49.110  1.00  0.00     0.210 C 
ENDBRANCH   1  20
TORSDOF 3
ENDMDL
MODEL 6
REMARK VINA RESULT:      -7.2      1.389      1.952
REMARK  3 active torsions:
REMARK  status: ('A' for Active; 'I' for Inactive)
REMARK    1  A    between atoms: O1_2  and  C2_3 
REMARK    2  A    between atoms: N3_10  and  C7_11 
REMARK    3  A    between atoms: C15_19  and  O2_20 
ROOT
HETATM    1  C2  UNL     1      21.078   0.219  53.118  1.00  0.00     0.103 A 
HETATM    2  C3  UNL     1      21.222   1.017  52.071  1.00  0.00     0.069 A 
HETATM    3  C4  UNL     1      22.594   1.293  51.561  1.00  0.00     0.065 A 
HETATM    4  N1  UNL     1      22.503   2.162  50.622  1.00  0.00    -0.244 NA
HETATM    5  C5  UNL     1      23.509   2.757  49.820  1.00  0.00     0.229 C 
HETATM    6  N2  UNL     1      24.604   3.093  50.449  1.00  0.00    -0.263 NA
HETATM    7  C6  UNL     1      24.911   2.930  51.865  1.00  0.00     0.275 C 
HETATM    8  N3  UNL     1      24.959   1.521  52.221  1.00  0.00    -0.349 N 
HETATM    9  C13 UNL     1      23.829   0.684  52.076  1.00  0.00     0.164 A 
HETATM   10  C14 UNL     1      23.489  -0.155  53.248  1.00  0.00     0.044 A 
HETATM   11  C15 UNL     1      22.273  -0.370  53.712  1.00  0.00     0.100 A 
ENDROOT
BRANCH   8  12
HETATM   12  C7  UNL     1      26.154   0.941  52.732  1.00  0.00     0.032 A 
HETATM   13  C8  UNL     1      26.905   1.545  53.720  1.00  0.00     0.029 A 
HETATM   14  C9  UNL     1      28.074   1.014  54.223  1.00  0.00     0.002 A 
HETATM   15  C10 UNL     1      28.551  -0.177  53.742  1.00  0.00     0.000 A 
HETATM   16  C11 UNL     1      27.831  -0.814  52.755  1.00  0.00     0.002 A 
HETATM   17  C12 UNL     1      26.670  -0.253  52.278  1.00  0.00     0.029 A 
ENDBRANCH   8  12
BRANCH  11  18
HETATM   18  O2  UNL     1      22.065  -1.184  54.814  1.00  0.00    -0.353 OA
HETATM   19  C16 UNL     1      23.071  -1.615  55.691  1.00  0.00     0.210 C 
ENDBRANCH  11  18
BRANCH   1  20
HETATM   20  O1  UNL     1      19.778   0.034  53.517  1.00  0.00    -0.353 OA
HETATM   21  C1  UNL     1      18.757  -0.507  52.715  1.00  0.00     0.210 C 
ENDBRANCH   1  20
TORSDOF 3
ENDMDL
MODEL 7
REMARK VINA RESULT:      -6.9      2.745      3.922
REMARK  3 active torsions:
REMARK  status: ('A' for Active; 'I' for Inactive)
REMARK    1  A    between atoms: O1_2  and  C2_3 
REMARK    2  A    between atoms: N3_10  and  C7_11 
REMARK    3  A    between atoms: C15_19  and  O2_20 
ROOT
HETATM    1  C2  UNL     1      20.115   0.283  52.753  1.00  0.00     0.103 A 
HETATM    2  C3  UNL     1      19.804   1.459  52.229  1.00  0.00     0.069 A 
HETATM    3  C4  UNL     1      20.903   2.368  51.802  1.00  0.00     0.065 A 
HETATM    4  N1  UNL     1      20.380   3.478  51.428  1.00  0.00    -0.244 NA
HETATM    5  C5  UNL     1      20.989   4.661  50.939  1.00  0.00     0.229 C 
HETATM    6  N2  UNL     1      22.085   5.025  51.550  1.00  0.00    -0.263 NA
HETATM    7  C6  UNL     1      22.751   4.363  52.666  1.00  0.00     0.275 C 
HETATM    8  N3  UNL     1      23.228   3.047  52.272  1.00  0.00    -0.349 N 
HETATM    9  C13 UNL     1      22.336   2.040  51.835  1.00  0.00     0.164 A 
HETATM   10  C14 UNL     1      22.503   0.710  52.463  1.00  0.00     0.044 A 
HETATM   11  C15 UNL     1      21.523  -0.077  52.868  1.00  0.00     0.100 A 
ENDROOT
BRANCH   8  12
HETATM   12  C7  UNL     1      24.614   2.732  52.319  1.00  0.00     0.032 A 
HETATM   13  C8  UNL     1      25.273   2.473  53.503  1.00  0.00     0.029 A 
HETATM   14  C9  UNL     1      26.619   2.180  53.581  1.00  0.00     0.002 A 
HETATM   15  C10 UNL     1      27.379   2.134  52.442  1.00  0.00     0.000 A 
HETATM   16  C11 UNL     1      26.760   2.387  51.237  1.00  0.00     0.002 A 
HETATM   17  C12 UNL     1      25.417   2.676  51.200  1.00  0.00     0.029 A 
ENDBRANCH   8  12
BRANCH  11  18
HETATM   18  O2  UNL     1      21.791  -1.312  53.436  1.00  0.00    -0.353 OA
HETATM   19  C16 UNL     1      21.945  -1.543  54.811  1.00  0.00     0.210 C 
ENDBRANCH  11  18
BRANCH   1  20
HETATM   20  O1  UNL     1      19.034  -0.477  53.124  1.00  0.00    -0.353 OA
HETATM   21  C1  UNL     1      17.885  -0.682  52.339  1.00  0.00     0.210 C 
ENDBRANCH   1  20
TORSDOF 3
ENDMDL
MODEL 8
REMARK VINA RESULT:      -6.7      2.278      4.865
REMARK  3 active torsions:
REMARK  status: ('A' for Active; 'I' for Inactive)
REMARK    1  A    between atoms: O1_2  and  C2_3 
REMARK    2  A    between atoms: N3_10  and  C7_11 
REMARK    3  A    between atoms: C15_19  and  O2_20 
ROOT
HETATM    1  C2  UNL     1      21.964   0.375  52.293  1.00  0.00     0.103 A 
HETATM    2  C3  UNL     1      22.964   0.114  53.120  1.00  0.00     0.069 A 
HETATM    3  C4  UNL     1      24.195   0.950  53.046  1.00  0.00     0.065 A 
HETATM    4  N1  UNL     1      25.061   0.458  53.854  1.00  0.00    -0.244 NA
HETATM    5  C5  UNL     1      26.381   0.878  54.152  1.00  0.00     0.229 C 
HETATM    6  N2  UNL     1      27.096   1.260  53.127  1.00  0.00    -0.263 NA
HETATM    7  C6  UNL     1      26.699   1.306  51.725  1.00  0.00     0.275 C 
HETATM    8  N3  UNL     1      25.625   2.266  51.526  1.00  0.00    -0.349 N 
HETATM    9  C13 UNL     1      24.375   2.118  52.171  1.00  0.00     0.164 A 
HETATM   10  C14 UNL     1      23.180   2.251  51.307  1.00  0.00     0.044 A 
HETATM   11  C15 UNL     1      22.106   1.486  51.359  1.00  0.00     0.100 A 
ENDROOT
BRANCH   8  12
HETATM   12  C7  UNL     1      25.801   3.387  50.668  1.00  0.00     0.032 A 
HETATM   13  C8  UNL     1      26.809   3.448  49.729  1.00  0.00     0.029 A 
HETATM   14  C9  UNL     1      27.014   4.527  48.894  1.00  0.00     0.002 A 
HETATM   15  C10 UNL     1      26.192   5.620  48.972  1.00  0.00     0.000 A 
HETATM   16  C11 UNL     1      25.171   5.602  49.898  1.00  0.00     0.002 A 
HETATM   17  C12 UNL     1      24.999   4.507  50.712  1.00  0.00     0.029 A 
ENDBRANCH   8  12
BRANCH  11  18
HETATM   18  O2  UNL     1      21.035   1.705  50.507  1.00  0.00    -0.353 OA
HETATM   19  C16 UNL     1      20.925   1.183  49.210  1.00  0.00     0.210 C 
ENDBRANCH  11  18
BRANCH   1  20
HETATM   20  O1  UNL     1      20.880  -0.456  52.432  1.00  0.00    -0.353 OA
HETATM   21  C1  UNL     1      20.112  -0.589  53.603  1.00  0.00     0.210 C 
ENDBRANCH   1  20
TORSDOF 3
ENDMDL
MODEL 9
REMARK VINA RESULT:      -6.7      2.353      3.645
REMARK  3 active torsions:
REMARK  status: ('A' for Active; 'I' for Inactive)
REMARK    1  A    between atoms: O1_2  and  C2_3 
REMARK    2  A    between atoms: N3_10  and  C7_11 
REMARK    3  A    between atoms: C15_19  and  O2_20 
ROOT
HETATM    1  C2  UNL     1      19.967   0.337  51.802  1.00  0.00     0.103 A 
HETATM    2  C3  UNL     1      20.185   0.808  50.584  1.00  0.00     0.069 A 
HETATM    3  C4  UNL     1      21.572   1.191  50.199  1.00  0.00     0.065 A 
HETATM    4  N1  UNL     1      21.531   1.714  49.029  1.00  0.00    -0.244 NA
HETATM    5  C5  UNL     1      22.571   2.238  48.220  1.00  0.00     0.229 C 
HETATM    6  N2  UNL     1      23.468   2.951  48.848  1.00  0.00    -0.263 NA
HETATM    7  C6  UNL     1      23.525   3.269  50.270  1.00  0.00     0.275 C 
HETATM    8  N3  UNL     1      23.713   2.062  51.059  1.00  0.00    -0.349 N 
HETATM    9  C13 UNL     1      22.765   1.014  51.040  1.00  0.00     0.164 A 
HETATM   10  C14 UNL     1      22.339   0.500  52.362  1.00  0.00     0.044 A 
HETATM   11  C15 UNL     1      21.103   0.193  52.705  1.00  0.00     0.100 A 
ENDROOT
BRANCH   8  12
HETATM   12  C7  UNL     1      24.863   1.903  51.881  1.00  0.00     0.032 A 
HETATM   13  C8  UNL     1      25.905   1.065  51.540  1.00  0.00     0.029 A 
HETATM   14  C9  UNL     1      27.025   0.878  52.324  1.00  0.00     0.002 A 
HETATM   15  C10 UNL     1      27.147   1.543  53.516  1.00  0.00     0.000 A 
HETATM   16  C11 UNL     1      26.128   2.390  53.895  1.00  0.00     0.002 A 
HETATM   17  C12 UNL     1      25.028   2.550  53.087  1.00  0.00     0.029 A 
ENDBRANCH   8  12
BRANCH  11  18
HETATM   18  O2  UNL     1      20.815  -0.291  53.971  1.00  0.00    -0.353 OA
HETATM   19  C16 UNL     1      21.025  -1.613  54.389  1.00  0.00     0.210 C 
ENDBRANCH  11  18
BRANCH   1  20
HETATM   20  O1  UNL     1      18.657   0.023  52.063  1.00  0.00    -0.353 OA
HETATM   21  C1  UNL     1      17.695  -0.301  51.089  1.00  0.00     0.210 C 
ENDBRANCH   1  20
TORSDOF 3
ENDMDL
