MODEL 1
REMARK VINA RESULT:      -7.5      0.000      0.000
REMARK  7 active torsions:
REMARK  status: ('A' for Active; 'I' for Inactive)
REMARK    1  A    between atoms: C2_2  and  S1_3 
REMARK    2  A    between atoms: S1_3  and  N1_5 
REMARK    3  A    between atoms: N1_5  and  C3_6 
REMARK    4  A    between atoms: C4_7  and  C5_8 
REMARK    5  A    between atoms: C6_9  and  N2_10 
REMARK    6  A    between atoms: N2_10  and  O2_11 
REMARK    7  A    between atoms: C8_15  and  N5_16 
ROOT
HETATM    1  C5  UNL     1      24.367   0.562  53.418  1.00  0.00     0.059 A 
HETATM    2  C6  UNL     1      24.180  -0.530  54.219  1.00  0.00     0.162 A 
HETATM    3  N3  UNL     1      22.971  -1.015  54.576  1.00  0.00    -0.222 NA
HETATM    4  C7  UNL     1      21.889  -0.354  54.091  1.00  0.00     0.237 A 
HETATM    5  N4  UNL     1      22.066   0.714  53.306  1.00  0.00    -0.223 NA
HETATM    6  C8  UNL     1      23.259   1.209  52.942  1.00  0.00     0.145 A 
ENDROOT
BRANCH   1   7
HETATM    7  C4  UNL     1      25.650   1.105  53.042  1.00  0.00     0.037 C 
HETATM    8  C3  UNL     1      26.470   1.917  53.669  1.00  0.00     0.099 C 
BRANCH   8   9
HETATM    9  N1  UNL     1      27.724   2.472  53.347  1.00  0.00    -0.313 N 
HETATM   10  H4  UNL     1      27.974   3.291  52.739  1.00  0.00     0.175 HD
BRANCH   9  11
HETATM   11  S1  UNL     1      29.033   1.633  54.101  1.00  0.00     0.138 S 
HETATM   12  O1  UNL     1      29.778   2.414  55.139  1.00  0.00    -0.231 OA
BRANCH  11  13
HETATM   13  C2  UNL     1      28.667  -0.016  54.574  1.00  0.00     0.091 C 
HETATM   14  C1  UNL     1      29.407  -0.776  53.769  1.00  0.00     0.023 C 
ENDBRANCH  11  13
ENDBRANCH   9  11
ENDBRANCH   8   9
ENDBRANCH   1   7
BRANCH   2  15
HETATM   15  N2  UNL     1      25.277  -1.246  54.737  1.00  0.00    -0.251 N 
HETATM   16  H7  UNL     1      26.087  -1.771  55.080  1.00  0.00     0.196 HD
BRANCH  15  17
HETATM   17  O2  UNL     1      25.141  -1.330  56.100  1.00  0.00    -0.288 OA
HETATM   18  H8  UNL     1      24.957  -0.446  56.458  1.00  0.00     0.244 HD
ENDBRANCH  15  17
ENDBRANCH   2  15
BRANCH   6  19
HETATM   19  N5  UNL     1      23.190   2.337  52.085  1.00  0.00    -0.336 N 
HETATM   20  C9  UNL     1      22.904   1.857  50.752  1.00  0.00     0.112 A 
HETATM   21  C10 UNL     1      22.733   2.637  49.669  1.00  0.00     0.026 A 
HETATM   22 BR1  UNL     1      22.357   2.062  47.909  1.00  0.00    -0.050 Br
HETATM   23  C11 UNL     1      22.854   4.096  49.831  1.00  0.00     0.018 A 
HETATM   24  C12 UNL     1      23.129   4.474  51.067  1.00  0.00    -0.005 A 
HETATM   25  C13 UNL     1      23.345   3.752  52.345  1.00  0.00     0.157 A 
ENDBRANCH   6  19
TORSDOF 7
ENDMDL
MODEL 2
REMARK VINA RESULT:      -7.2      2.953      5.143
REMARK  7 active torsions:
REMARK  status: ('A' for Active; 'I' for Inactive)
REMARK    1  A    between atoms: C2_2  and  S1_3 
REMARK    2  A    between atoms: S1_3  and  N1_5 
REMARK    3  A    between atoms: N1_5  and  C3_6 
REMARK    4  A    between atoms: C4_7  and  C5_8 
REMARK    5  A    between atoms: C6_9  and  N2_10 
REMARK    6  A    between atoms: N2_10  and  O2_11 
REMARK    7  A    between atoms: C8_15  and  N5_16 
ROOT
HETATM    1  C5  UNL     1      26.653  -0.419  52.872  1.00  0.00     0.059 A 
HETATM    2  C6  UNL     1      27.696  -1.266  53.123  1.00  0.00     0.162 A 
HETATM    3  N3  UNL     1      28.957  -0.862  53.392  1.00  0.00    -0.222 NA
HETATM    4  C7  UNL     1      29.171   0.478  53.406  1.00  0.00     0.237 A 
HETATM    5  N4  UNL     1      28.154   1.310  53.161  1.00  0.00    -0.223 NA
HETATM    6  C8  UNL     1      26.896   0.928  52.892  1.00  0.00     0.145 A 
ENDROOT
BRANCH   1   7
HETATM    7  C4  UNL     1      25.304  -0.832  52.564  1.00  0.00     0.037 C 
HETATM    8  C3  UNL     1      24.214  -0.863  53.295  1.00  0.00     0.099 C 
BRANCH   8   9
HETATM    9  N1  UNL     1      22.885  -1.255  53.042  1.00  0.00    -0.313 N 
HETATM   10  H4  UNL     1      22.409  -1.518  52.143  1.00  0.00     0.175 HD
BRANCH   9  11
HETATM   11  S1  UNL     1      21.922  -1.296  54.475  1.00  0.00     0.138 S 
HETATM   12  O1  UNL     1      22.623  -1.794  55.701  1.00  0.00    -0.231 OA
BRANCH  11  13
HETATM   13  C2  UNL     1      20.949   0.139  54.742  1.00  0.00     0.091 C 
HETATM   14  C1  UNL     1      20.882   0.734  53.553  1.00  0.00     0.023 C 
ENDBRANCH  11  13
ENDBRANCH   9  11
ENDBRANCH   8   9
ENDBRANCH   1   7
BRANCH   2  15
HETATM   15  N2  UNL     1      27.513  -2.662  53.124  1.00  0.00    -0.251 N 
HETATM   16  H7  UNL     1      27.345  -3.673  53.117  1.00  0.00     0.196 HD
BRANCH  15  17
HETATM   17  O2  UNL     1      28.714  -3.262  53.412  1.00  0.00    -0.288 OA
HETATM   18  H8  UNL     1      28.608  -4.226  53.370  1.00  0.00     0.244 HD
ENDBRANCH  15  17
ENDBRANCH   2  15
BRANCH   6  19
HETATM   19  N5  UNL     1      25.987   1.997  52.689  1.00  0.00    -0.336 N 
HETATM   20  C9  UNL     1      26.298   2.598  51.411  1.00  0.00     0.112 A 
HETATM   21  C10 UNL     1      25.629   3.625  50.856  1.00  0.00     0.026 A 
HETATM   22 BR1  UNL     1      25.992   4.445  49.193  1.00  0.00    -0.050 Br
HETATM   23  C11 UNL     1      24.496   4.204  51.598  1.00  0.00     0.018 A 
HETATM   24  C12 UNL     1      24.267   3.623  52.762  1.00  0.00    -0.005 A 
HETATM   25  C13 UNL     1      24.903   2.505  53.502  1.00  0.00     0.157 A 
ENDBRANCH   6  19
TORSDOF 7
ENDMDL
MODEL 3
REMARK VINA RESULT:      -7.1      1.461      1.820
REMARK  7 active torsions:
REMARK  status: ('A' for Active; 'I' for Inactive)
REMARK    1  A    between atoms: C2_2  and  S1_3 
REMARK    2  A    between atoms: S1_3  and  N1_5 
REMARK    3  A    between atoms: N1_5  and  C3_6 
REMARK    4  A    between atoms: C4_7  and  C5_8 
REMARK    5  A    between atoms: C6_9  and  N2_10 
REMARK    6  A    between atoms: N2_10  and  O2_11 
REMARK    7  A    between atoms: C8_15  and  N5_16 
ROOT
HETATM    1  C5  UNL     1      23.928  -0.165  53.660  1.00  0.00     0.059 A 
HETATM    2  C6  UNL     1      23.937  -0.938  54.787  1.00  0.00     0.162 A 
HETATM    3  N3  UNL     1      22.828  -1.338  55.446  1.00  0.00    -0.222 NA
HETATM    4  C7  UNL     1      21.641  -0.928  54.932  1.00  0.00     0.237 A 
HETATM    5  N4  UNL     1      21.626  -0.171  53.829  1.00  0.00    -0.223 NA
HETATM    6  C8  UNL     1      22.717   0.234  53.162  1.00  0.00     0.145 A 
ENDROOT
BRANCH   1   7
HETATM    7  C4  UNL     1      25.103   0.286  52.954  1.00  0.00     0.037 C 
HETATM    8  C3  UNL     1      25.978   1.225  53.230  1.00  0.00     0.099 C 
BRANCH   8   9
HETATM    9  N1  UNL     1      27.134   1.700  52.577  1.00  0.00    -0.313 N 
HETATM   10  H4  UNL     1      27.245   2.195  51.658  1.00  0.00     0.175 HD
BRANCH   9  11
HETATM   11  S1  UNL     1      28.576   1.393  53.477  1.00  0.00     0.138 S 
HETATM   12  O1  UNL     1      29.010   2.503  54.384  1.00  0.00    -0.231 OA
BRANCH  11  13
HETATM   13  C2  UNL     1      28.656  -0.199  54.209  1.00  0.00     0.091 C 
HETATM   14  C1  UNL     1      29.743  -0.762  53.687  1.00  0.00     0.023 C 
ENDBRANCH  11  13
ENDBRANCH   9  11
ENDBRANCH   8   9
ENDBRANCH   1   7
BRANCH   2  15
HETATM   15  N2  UNL     1      25.148  -1.389  55.348  1.00  0.00    -0.251 N 
HETATM   16  H7  UNL     1      26.042  -1.722  55.722  1.00  0.00     0.196 HD
BRANCH  15  17
HETATM   17  O2  UNL     1      25.057  -1.302  56.715  1.00  0.00    -0.288 OA
HETATM   18  H8  UNL     1      25.933  -1.460  57.104  1.00  0.00     0.244 HD
ENDBRANCH  15  17
ENDBRANCH   2  15
BRANCH   6  19
HETATM   19  N5  UNL     1      22.445   1.011  52.007  1.00  0.00    -0.336 N 
HETATM   20  C9  UNL     1      22.701   2.394  52.340  1.00  0.00     0.112 A 
HETATM   21  C10 UNL     1      22.584   3.429  51.488  1.00  0.00     0.026 A 
HETATM   22 BR1  UNL     1      22.907   5.251  51.870  1.00  0.00    -0.050 Br
HETATM   23  C11 UNL     1      22.152   3.153  50.107  1.00  0.00     0.018 A 
HETATM   24  C12 UNL     1      21.921   1.875  49.865  1.00  0.00    -0.005 A 
HETATM   25  C13 UNL     1      21.999   0.638  50.682  1.00  0.00     0.157 A 
ENDBRANCH   6  19
TORSDOF 7
ENDMDL
MODEL 4
REMARK VINA RESULT:      -7.1      2.438      2.923
REMARK  7 active torsions:
REMARK  status: ('A' for Active; 'I' for Inactive)
REMARK    1  A    between atoms: C2_2  and  S1_3 
REMARK    2  A    between atoms: S1_3  and  N1_5 
REMARK    3  A    between atoms: N1_5  and  C3_6 
REMARK    4  A    between atoms: C4_7  and  C5_8 
REMARK    5  A    between atoms: C6_9  and  N2_10 
REMARK    6  A    between atoms: N2_10  and  O2_11 
REMARK    7  A    between atoms: C8_15  and  N5_16 
ROOT
HETATM    1  C5  UNL     1      24.811   1.386  52.144  1.00  0.00     0.059 A 
HETATM    2  C6  UNL     1      23.882   0.533  52.669  1.00  0.00     0.162 A 
HETATM    3  N3  UNL     1      22.589   0.482  52.281  1.00  0.00    -0.222 NA
HETATM    4  C7  UNL     1      22.218   1.348  51.304  1.00  0.00     0.237 A 
HETATM    5  N4  UNL     1      23.123   2.185  50.787  1.00  0.00    -0.223 NA
HETATM    6  C8  UNL     1      24.411   2.249  51.160  1.00  0.00     0.145 A 
ENDROOT
BRANCH   1   7
HETATM    7  C4  UNL     1      26.191   1.467  52.559  1.00  0.00     0.037 C 
HETATM    8  C3  UNL     1      26.761   2.073  53.576  1.00  0.00     0.099 C 
BRANCH   8   9
HETATM    9  N1  UNL     1      28.094   2.180  54.020  1.00  0.00    -0.313 N 
HETATM   10  H4  UNL     1      28.738   3.009  54.058  1.00  0.00     0.175 HD
BRANCH   9  11
HETATM   11  S1  UNL     1      28.727   0.675  54.585  1.00  0.00     0.138 S 
HETATM   12  O1  UNL     1      27.712  -0.276  55.140  1.00  0.00    -0.231 OA
BRANCH  11  13
HETATM   13  C2  UNL     1      29.897  -0.074  53.514  1.00  0.00     0.091 C 
HETATM   14  C1  UNL     1      29.528  -1.351  53.443  1.00  0.00     0.023 C 
ENDBRANCH  11  13
ENDBRANCH   9  11
ENDBRANCH   8   9
ENDBRANCH   1   7
BRANCH   2  15
HETATM   15  N2  UNL     1      24.229  -0.385  53.679  1.00  0.00    -0.251 N 
HETATM   16  H7  UNL     1      24.516  -1.045  54.409  1.00  0.00     0.196 HD
BRANCH  15  17
HETATM   17  O2  UNL     1      23.078  -0.935  54.186  1.00  0.00    -0.288 OA
HETATM   18  H8  UNL     1      23.258  -1.845  54.474  1.00  0.00     0.244 HD
ENDBRANCH  15  17
ENDBRANCH   2  15
BRANCH   6  19
HETATM   19  N5  UNL     1      25.182   3.204  50.449  1.00  0.00    -0.336 N 
HETATM   20  C9  UNL     1      24.610   4.506  50.704  1.00  0.00     0.112 A 
HETATM   21  C10 UNL     1      25.088   5.669  50.225  1.00  0.00     0.026 A 
HETATM   22 BR1  UNL     1      24.381   7.395  50.529  1.00  0.00    -0.050 Br
HETATM   23  C11 UNL     1      26.281   5.632  49.362  1.00  0.00     0.018 A 
HETATM   24  C12 UNL     1      26.752   4.415  49.154  1.00  0.00    -0.005 A 
HETATM   25  C13 UNL     1      26.344   3.059  49.599  1.00  0.00     0.157 A 
ENDBRANCH   6  19
TORSDOF 7
ENDMDL
MODEL 5
REMARK VINA RESULT:      -7.0      1.841      2.234
REMARK  7 active torsions:
REMARK  status: ('A' for Active; 'I' for Inactive)
REMARK    1  A    between atoms: C2_2  and  S1_3 
REMARK    2  A    between atoms: S1_3  and  N1_5 
REMARK    3  A    between atoms: N1_5  and  C3_6 
REMARK    4  A    between atoms: C4_7  and  C5_8 
REMARK    5  A    between atoms: C6_9  and  N2_10 
REMARK    6  A    between atoms: N2_10  and  O2_11 
REMARK    7  A    between atoms: C8_15  and  N5_16 
ROOT
HETATM    1  C5  UNL     1      23.881   0.238  53.405  1.00  0.00     0.059 A 
HETATM    2  C6  UNL     1      22.788  -0.263  54.055  1.00  0.00     0.162 A 
HETATM    3  N3  UNL     1      21.517   0.134  53.824  1.00  0.00    -0.222 NA
HETATM    4  C7  UNL     1      21.347   1.093  52.879  1.00  0.00     0.237 A 
HETATM    5  N4  UNL     1      22.413   1.586  52.240  1.00  0.00    -0.223 NA
HETATM    6  C8  UNL     1      23.682   1.204  52.456  1.00  0.00     0.145 A 
ENDROOT
BRANCH   1   7
HETATM    7  C4  UNL     1      25.247  -0.160  53.652  1.00  0.00     0.037 C 
HETATM    8  C3  UNL     1      26.055   0.079  54.658  1.00  0.00     0.099 C 
BRANCH   8   9
HETATM    9  N1  UNL     1      27.387  -0.284  54.943  1.00  0.00    -0.313 N 
HETATM   10  H4  UNL     1      27.773  -0.998  55.610  1.00  0.00     0.175 HD
BRANCH   9  11
HETATM   11  S1  UNL     1      28.532   0.619  54.018  1.00  0.00     0.138 S 
HETATM   12  O1  UNL     1      28.815   2.000  54.524  1.00  0.00    -0.231 OA
BRANCH  11  13
HETATM   13  C2  UNL     1      29.966  -0.279  53.554  1.00  0.00     0.091 C 
HETATM   14  C1  UNL     1      29.556  -1.539  53.429  1.00  0.00     0.023 C 
ENDBRANCH  11  13
ENDBRANCH   9  11
ENDBRANCH   8   9
ENDBRANCH   1   7
BRANCH   2  15
HETATM   15  N2  UNL     1      22.923  -1.263  55.037  1.00  0.00    -0.251 N 
HETATM   16  H7  UNL     1      23.055  -1.982  55.755  1.00  0.00     0.196 HD
BRANCH  15  17
HETATM   17  O2  UNL     1      21.710  -1.887  55.196  1.00  0.00    -0.288 OA
HETATM   18  H8  UNL     1      21.560  -2.490  54.450  1.00  0.00     0.244 HD
ENDBRANCH  15  17
ENDBRANCH   2  15
BRANCH   6  19
HETATM   19  N5  UNL     1      24.639   1.856  51.638  1.00  0.00    -0.336 N 
HETATM   20  C9  UNL     1      23.926   2.764  50.768  1.00  0.00     0.112 A 
HETATM   21  C10 UNL     1      24.498   3.584  49.869  1.00  0.00     0.026 A 
HETATM   22 BR1  UNL     1      23.615   4.788  48.712  1.00  0.00    -0.050 Br
HETATM   23  C11 UNL     1      25.965   3.562  49.737  1.00  0.00     0.018 A 
HETATM   24  C12 UNL     1      26.561   2.705  50.546  1.00  0.00    -0.005 A 
HETATM   25  C13 UNL     1      26.081   1.747  51.573  1.00  0.00     0.157 A 
ENDBRANCH   6  19
TORSDOF 7
ENDMDL
MODEL 6
REMARK VINA RESULT:      -6.9      1.800      2.103
REMARK  7 active torsions:
REMARK  status: ('A' for Active; 'I' for Inactive)
REMARK    1  A    between atoms: C2_2  and  S1_3 
REMARK    2  A    between atoms: S1_3  and  N1_5 
REMARK    3  A    between atoms: N1_5  and  C3_6 
REMARK    4  A    between atoms: C4_7  and  C5_8 
REMARK    5  A    between atoms: C6_9  and  N2_10 
REMARK    6  A    between atoms: N2_10  and  O2_11 
REMARK    7  A    between atoms: C8_15  and  N5_16 
ROOT
HETATM    1  C5  UNL     1      23.738  -0.183  53.593  1.00  0.00     0.059 A 
HETATM    2  C6  UNL     1      23.884  -0.917  54.736  1.00  0.00     0.162 A 
HETATM    3  N3  UNL     1      22.872  -1.554  55.367  1.00  0.00    -0.222 NA
HETATM    4  C7  UNL     1      21.643  -1.436  54.805  1.00  0.00     0.237 A 
HETATM    5  N4  UNL     1      21.495  -0.719  53.686  1.00  0.00    -0.223 NA
HETATM    6  C8  UNL     1      22.487  -0.082  53.046  1.00  0.00     0.145 A 
ENDROOT
BRANCH   1   7
HETATM    7  C4  UNL     1      24.803   0.519  52.916  1.00  0.00     0.037 C 
HETATM    8  C3  UNL     1      25.577   1.507  53.300  1.00  0.00     0.099 C 
BRANCH   8   9
HETATM    9  N1  UNL     1      26.623   2.220  52.681  1.00  0.00    -0.313 N 
HETATM   10  H4  UNL     1      26.597   2.982  51.959  1.00  0.00     0.175 HD
BRANCH   9  11
HETATM   11  S1  UNL     1      28.182   1.722  53.234  1.00  0.00     0.138 S 
HETATM   12  O1  UNL     1      28.842   2.654  54.203  1.00  0.00    -0.231 OA
BRANCH  11  13
HETATM   13  C2  UNL     1      28.292   0.030  53.682  1.00  0.00     0.091 C 
HETATM   14  C1  UNL     1      29.594  -0.245  53.668  1.00  0.00     0.023 C 
ENDBRANCH  11  13
ENDBRANCH   9  11
ENDBRANCH   8   9
ENDBRANCH   1   7
BRANCH   2  15
HETATM   15  N2  UNL     1      25.144  -1.067  55.346  1.00  0.00    -0.251 N 
HETATM   16  H7  UNL     1      26.077  -1.168  55.759  1.00  0.00     0.196 HD
BRANCH  15  17
HETATM   17  O2  UNL     1      24.956  -1.422  56.659  1.00  0.00    -0.288 OA
HETATM   18  H8  UNL     1      24.539  -0.685  57.133  1.00  0.00     0.244 HD
ENDBRANCH  15  17
ENDBRANCH   2  15
BRANCH   6  19
HETATM   19  N5  UNL     1      22.086   0.595  51.866  1.00  0.00    -0.336 N 
HETATM   20  C9  UNL     1      20.680   0.327  51.664  1.00  0.00     0.112 A 
HETATM   21  C10 UNL     1      19.934   0.825  50.662  1.00  0.00     0.026 A 
HETATM   22 BR1  UNL     1      18.097   0.508  50.353  1.00  0.00    -0.050 Br
HETATM   23  C11 UNL     1      20.585   1.704  49.676  1.00  0.00     0.018 A 
HETATM   24  C12 UNL     1      21.870   1.903  49.904  1.00  0.00    -0.005 A 
HETATM   25  C13 UNL     1      22.821   1.433  50.943  1.00  0.00     0.157 A 
ENDBRANCH   6  19
TORSDOF 7
ENDMDL
MODEL 7
REMARK VINA RESULT:      -6.7      2.751      5.374
REMARK  7 active torsions:
REMARK  status: ('A' for Active; 'I' for Inactive)
REMARK    1  A    between atoms: C2_2  and  S1_3 
REMARK    2  A    between atoms: S1_3  and  N1_5 
REMARK    3  A    between atoms: N1_5  and  C3_6 
REMARK    4  A    between atoms: C4_7  and  C5_8 
REMARK    5  A    between atoms: C6_9  and  N2_10 
REMARK    6  A    between atoms: N2_10  and  O2_11 
REMARK    7  A    between atoms: C8_15  and  N5_16 
ROOT
HETATM    1  C5  UNL     1      26.578   1.030  53.739  1.00  0.00     0.059 A 
HETATM    2  C6  UNL     1      27.909   1.098  53.434  1.00  0.00     0.162 A 
HETATM    3  N3  UNL     1      28.710   0.021  53.278  1.00  0.00    -0.222 NA
HETATM    4  C7  UNL     1      28.127  -1.193  53.442  1.00  0.00     0.237 A 
HETATM    5  N4  UNL     1      26.825  -1.265  53.740  1.00  0.00    -0.223 NA
HETATM    6  C8  UNL     1      26.015  -0.207  53.898  1.00  0.00     0.145 A 
ENDROOT
BRANCH   1   7
HETATM    7  C4  UNL     1      25.712   2.169  53.928  1.00  0.00     0.037 C 
HETATM    8  C3  UNL     1      25.059   2.919  53.071  1.00  0.00     0.099 C 
BRANCH   8   9
HETATM    9  N1  UNL     1      24.207   4.034  53.205  1.00  0.00    -0.313 N 
HETATM   10  H4  UNL     1      23.863   4.532  54.063  1.00  0.00     0.175 HD
BRANCH   9  11
HETATM   11  S1  UNL     1      23.669   4.644  51.681  1.00  0.00     0.138 S 
HETATM   12  O1  UNL     1      23.594   6.136  51.582  1.00  0.00    -0.231 OA
BRANCH  11  13
HETATM   13  C2  UNL     1      24.400   3.871  50.286  1.00  0.00     0.091 C 
HETATM   14  C1  UNL     1      23.413   3.178  49.722  1.00  0.00     0.023 C 
ENDBRANCH  11  13
ENDBRANCH   9  11
ENDBRANCH   8   9
ENDBRANCH   1   7
BRANCH   2  15
HETATM   15  N2  UNL     1      28.549   2.338  53.251  1.00  0.00    -0.251 N 
HETATM   16  H7  UNL     1      28.997   3.246  53.086  1.00  0.00     0.196 HD
BRANCH  15  17
HETATM   17  O2  UNL     1      29.401   2.552  54.306  1.00  0.00    -0.288 OA
HETATM   18  H8  UNL     1      29.686   3.480  54.303  1.00  0.00     0.244 HD
ENDBRANCH  15  17
ENDBRANCH   2  15
BRANCH   6  19
HETATM   19  N5  UNL     1      24.667  -0.538  54.190  1.00  0.00    -0.336 N 
HETATM   20  C9  UNL     1      23.863  -0.135  53.058  1.00  0.00     0.112 A 
HETATM   21  C10 UNL     1      22.534  -0.315  52.950  1.00  0.00     0.026 A 
HETATM   22 BR1  UNL     1      21.438   0.189  51.496  1.00  0.00    -0.050 Br
HETATM   23  C11 UNL     1      21.823  -0.960  54.067  1.00  0.00     0.018 A 
HETATM   24  C12 UNL     1      22.605  -1.293  55.077  1.00  0.00    -0.005 A 
HETATM   25  C13 UNL     1      24.060  -1.163  55.345  1.00  0.00     0.157 A 
ENDBRANCH   6  19
TORSDOF 7
ENDMDL
MODEL 8
REMARK VINA RESULT:      -6.6      3.870      5.940
REMARK  7 active torsions:
REMARK  status: ('A' for Active; 'I' for Inactive)
REMARK    1  A    between atoms: C2_2  and  S1_3 
REMARK    2  A    between atoms: S1_3  and  N1_5 
REMARK    3  A    between atoms: N1_5  and  C3_6 
REMARK    4  A    between atoms: C4_7  and  C5_8 
REMARK    5  A    between atoms: C6_9  and  N2_10 
REMARK    6  A    between atoms: N2_10  and  O2_11 
REMARK    7  A    between atoms: C8_15  and  N5_16 
ROOT
HETATM    1  C5  UNL     1      23.604  -0.147  53.826  1.00  0.00     0.059 A 
HETATM    2  C6  UNL     1      22.640  -0.945  54.375  1.00  0.00     0.162 A 
HETATM    3  N3  UNL     1      22.828  -1.731  55.458  1.00  0.00    -0.222 NA
HETATM    4  C7  UNL     1      24.066  -1.707  56.013  1.00  0.00     0.237 A 
HETATM    5  N4  UNL     1      25.012  -0.928  55.479  1.00  0.00    -0.223 NA
HETATM    6  C8  UNL     1      24.843  -0.140  54.406  1.00  0.00     0.145 A 
ENDROOT
BRANCH   1   7
HETATM    7  C4  UNL     1      23.426   0.685  52.659  1.00  0.00     0.037 C 
HETATM    8  C3  UNL     1      22.837   1.847  52.500  1.00  0.00     0.099 C 
BRANCH   8   9
HETATM    9  N1  UNL     1      22.640   2.692  51.389  1.00  0.00    -0.313 N 
HETATM   10  H4  UNL     1      23.209   2.819  50.516  1.00  0.00     0.175 HD
BRANCH   9  11
HETATM   11  S1  UNL     1      21.214   3.657  51.537  1.00  0.00     0.138 S 
HETATM   12  O1  UNL     1      20.351   3.344  52.720  1.00  0.00    -0.231 OA
BRANCH  11  13
HETATM   13  C2  UNL     1      21.461   5.372  51.267  1.00  0.00     0.091 C 
HETATM   14  C1  UNL     1      22.628   5.454  50.632  1.00  0.00     0.023 C 
ENDBRANCH  11  13
ENDBRANCH   9  11
ENDBRANCH   8   9
ENDBRANCH   1   7
BRANCH   2  15
HETATM   15  N2  UNL     1      21.341  -0.993  53.832  1.00  0.00    -0.251 N 
HETATM   16  H7  UNL     1      20.408  -1.008  53.409  1.00  0.00     0.196 HD
BRANCH  15  17
HETATM   17  O2  UNL     1      20.546  -1.742  54.663  1.00  0.00    -0.288 OA
HETATM   18  H8  UNL     1      20.216  -2.516  54.178  1.00  0.00     0.244 HD
ENDBRANCH  15  17
ENDBRANCH   2  15
BRANCH   6  19
HETATM   19  N5  UNL     1      25.990   0.610  54.041  1.00  0.00    -0.336 N 
HETATM   20  C9  UNL     1      27.108  -0.304  53.971  1.00  0.00     0.112 A 
HETATM   21  C10 UNL     1      28.362   0.033  53.623  1.00  0.00     0.026 A 
HETATM   22 BR1  UNL     1      29.856  -1.120  53.515  1.00  0.00    -0.050 Br
HETATM   23  C11 UNL     1      28.643   1.441  53.296  1.00  0.00     0.018 A 
HETATM   24  C12 UNL     1      27.588   2.232  53.389  1.00  0.00    -0.005 A 
HETATM   25  C13 UNL     1      26.166   2.018  53.755  1.00  0.00     0.157 A 
ENDBRANCH   6  19
TORSDOF 7
ENDMDL
MODEL 9
REMARK VINA RESULT:      -6.5      3.080      4.067
REMARK  7 active torsions:
REMARK  status: ('A' for Active; 'I' for Inactive)
REMARK    1  A    between atoms: C2_2  and  S1_3 
REMARK    2  A    between atoms: S1_3  and  N1_5 
REMARK    3  A    between atoms: N1_5  and  C3_6 
REMARK    4  A    between atoms: C4_7  and  C5_8 
REMARK    5  A    between atoms: C6_9  and  N2_10 
REMARK    6  A    between atoms: N2_10  and  O2_11 
REMARK    7  A    between atoms: C8_15  and  N5_16 
ROOT
HETATM    1  C5  UNL     1      24.930   0.154  53.449  1.00  0.00     0.059 A 
HETATM    2  C6  UNL     1      25.665  -0.371  54.475  1.00  0.00     0.162 A 
HETATM    3  N3  UNL     1      25.149  -1.108  55.483  1.00  0.00    -0.222 NA
HETATM    4  C7  UNL     1      23.810  -1.324  55.447  1.00  0.00     0.237 A 
HETATM    5  N4  UNL     1      23.086  -0.813  54.446  1.00  0.00    -0.223 NA
HETATM    6  C8  UNL     1      23.582  -0.080  53.437  1.00  0.00     0.145 A 
ENDROOT
BRANCH   1   7
HETATM    7  C4  UNL     1      25.461   0.959  52.375  1.00  0.00     0.037 C 
HETATM    8  C3  UNL     1      26.051   2.132  52.375  1.00  0.00     0.099 C 
BRANCH   8   9
HETATM    9  N1  UNL     1      26.583   2.953  51.361  1.00  0.00    -0.313 N 
HETATM   10  H4  UNL     1      27.579   3.137  51.082  1.00  0.00     0.175 HD
BRANCH   9  11
HETATM   11  S1  UNL     1      25.356   3.765  50.455  1.00  0.00     0.138 S 
HETATM   12  O1  UNL     1      24.218   4.306  51.263  1.00  0.00    -0.231 OA
BRANCH  11  13
HETATM   13  C2  UNL     1      25.962   4.877  49.240  1.00  0.00     0.091 C 
HETATM   14  C1  UNL     1      27.210   4.479  49.002  1.00  0.00     0.023 C 
ENDBRANCH  11  13
ENDBRANCH   9  11
ENDBRANCH   8   9
ENDBRANCH   1   7
BRANCH   2  15
HETATM   15  N2  UNL     1      27.058  -0.174  54.544  1.00  0.00    -0.251 N 
HETATM   16  H7  UNL     1      28.066  -0.000  54.613  1.00  0.00     0.196 HD
BRANCH  15  17
HETATM   17  O2  UNL     1      27.680  -1.202  53.881  1.00  0.00    -0.288 OA
HETATM   18  H8  UNL     1      28.482  -1.456  54.365  1.00  0.00     0.244 HD
ENDBRANCH  15  17
ENDBRANCH   2  15
BRANCH   6  19
HETATM   19  N5  UNL     1      22.618   0.332  52.481  1.00  0.00    -0.336 N 
HETATM   20  C9  UNL     1      21.338  -0.198  52.894  1.00  0.00     0.112 A 
HETATM   21  C10 UNL     1      20.173   0.008  52.254  1.00  0.00     0.026 A 
HETATM   22 BR1  UNL     1      18.476  -0.659  52.751  1.00  0.00    -0.050 Br
HETATM   23  C11 UNL     1      20.183   0.824  51.028  1.00  0.00     0.018 A 
HETATM   24  C12 UNL     1      21.380   1.270  50.693  1.00  0.00    -0.005 A 
HETATM   25  C13 UNL     1      22.736   1.131  51.281  1.00  0.00     0.157 A 
ENDBRANCH   6  19
TORSDOF 7
ENDMDL
