MODEL 1
REMARK VINA RESULT:      -8.7      0.000      0.000
REMARK  3 active torsions:
REMARK  status: ('A' for Active; 'I' for Inactive)
REMARK    1  A    between atoms: O1_1  and  C1_2 
REMARK    2  A    between atoms: C9_11  and  N2_12 
REMARK    3  A    between atoms: N2_12  and  C10_13 
ROOT
HETATM    1  C1  UNL     1      27.225   0.769  53.857  1.00  0.00     0.073 A 
HETATM    2  C2  UNL     1      27.167  -0.569  53.545  1.00  0.00     0.040 A 
HETATM    3  C3  UNL     1      26.039  -1.251  53.165  1.00  0.00     0.040 A 
HETATM    4  C4  UNL     1      24.824  -0.633  53.057  1.00  0.00     0.076 A 
HETATM    5  C5  UNL     1      25.197   0.629  53.418  1.00  0.00     0.048 A 
HETATM    6  C6  UNL     1      26.108   1.575  53.811  1.00  0.00    -0.005 A 
HETATM    7  C7  UNL     1      25.642   2.966  53.937  1.00  0.00     0.161 C 
HETATM    8  N1  UNL     1      24.286   3.006  53.301  1.00  0.00    -0.381 N 
HETATM    9  C8  UNL     1      23.586   2.551  52.130  1.00  0.00     0.108 A 
HETATM   10  C9  UNL     1      23.675   3.455  51.094  1.00  0.00     0.158 A 
HETATM   11  N3  UNL     1      23.138   3.178  49.909  1.00  0.00    -0.222 NA
HETATM   12  C16 UNL     1      22.503   2.024  49.707  1.00  0.00     0.236 A 
HETATM   13  N4  UNL     1      22.406   1.143  50.702  1.00  0.00    -0.235 NA
HETATM   14  C17 UNL     1      22.901   1.312  51.921  1.00  0.00     0.167 A 
HETATM   15  C18 UNL     1      22.567   0.159  52.789  1.00  0.00     0.408 C 
HETATM   16  F2  UNL     1      22.368   0.559  54.092  1.00  0.00    -0.168 F 
HETATM   17  F3  UNL     1      21.327  -0.396  52.425  1.00  0.00    -0.168 F 
HETATM   18  O2  UNL     1      23.509  -0.861  52.735  1.00  0.00    -0.278 OA
HETATM   19  H7  UNL     1      23.506   3.515  53.735  1.00  0.00     0.160 HD
ENDROOT
BRANCH  10  20
HETATM   20  N2  UNL     1      24.322   4.682  51.433  1.00  0.00    -0.337 N 
HETATM   21  H8  UNL     1      24.331   5.415  52.162  1.00  0.00     0.168 HD
BRANCH  20  22
HETATM   22  C10 UNL     1      25.281   4.942  50.391  1.00  0.00     0.074 A 
HETATM   23  C11 UNL     1      25.111   6.116  49.657  1.00  0.00     0.052 A 
HETATM   24  C12 UNL     1      26.006   6.388  48.645  1.00  0.00     0.013 A 
HETATM   25 BR1  UNL     1      25.823   7.978  47.584  1.00  0.00    -0.051 Br
HETATM   26  C13 UNL     1      27.014   5.483  48.419  1.00  0.00     0.022 A 
HETATM   27  C14 UNL     1      27.214   4.309  49.127  1.00  0.00     0.046 A 
HETATM   28  C15 UNL     1      26.297   4.074  50.133  1.00  0.00     0.143 A 
HETATM   29  F1  UNL     1      26.546   2.927  50.841  1.00  0.00    -0.204 F 
ENDBRANCH  20  22
ENDBRANCH  10  20
BRANCH   1  30
HETATM   30  O1  UNL     1      28.270   1.580  54.249  1.00  0.00    -0.360 OA
HETATM   31  H1  UNL     1      28.139   2.385  54.854  1.00  0.00     0.217 HD
ENDBRANCH   1  30
TORSDOF 3
ENDMDL
MODEL 2
REMARK VINA RESULT:      -8.6      3.242      5.957
REMARK  3 active torsions:
REMARK  status: ('A' for Active; 'I' for Inactive)
REMARK    1  A    between atoms: O1_1  and  C1_2 
REMARK    2  A    between atoms: C9_11  and  N2_12 
REMARK    3  A    between atoms: N2_12  and  C10_13 
ROOT
HETATM    1  C1  UNL     1      21.050   0.782  50.899  1.00  0.00     0.073 A 
HETATM    2  C2  UNL     1      20.765   0.701  49.555  1.00  0.00     0.040 A 
HETATM    3  C3  UNL     1      21.208   1.573  48.593  1.00  0.00     0.040 A 
HETATM    4  C4  UNL     1      22.005   2.642  48.899  1.00  0.00     0.076 A 
HETATM    5  C5  UNL     1      22.101   2.454  50.246  1.00  0.00     0.048 A 
HETATM    6  C6  UNL     1      21.840   1.786  51.415  1.00  0.00    -0.005 A 
HETATM    7  C7  UNL     1      22.494   2.269  52.643  1.00  0.00     0.161 C 
HETATM    8  N1  UNL     1      23.537   3.248  52.196  1.00  0.00    -0.381 N 
HETATM    9  C8  UNL     1      24.573   3.407  51.211  1.00  0.00     0.108 A 
HETATM   10  C9  UNL     1      25.780   2.908  51.648  1.00  0.00     0.158 A 
HETATM   11  N3  UNL     1      26.842   2.913  50.848  1.00  0.00    -0.222 NA
HETATM   12  C16 UNL     1      26.756   3.405  49.613  1.00  0.00     0.236 A 
HETATM   13  N4  UNL     1      25.595   3.896  49.179  1.00  0.00    -0.235 NA
HETATM   14  C17 UNL     1      24.475   3.942  49.887  1.00  0.00     0.167 A 
HETATM   15  C18 UNL     1      23.392   4.596  49.117  1.00  0.00     0.408 C 
HETATM   16  F2  UNL     1      22.554   5.311  49.944  1.00  0.00    -0.168 F 
HETATM   17  F3  UNL     1      23.916   5.577  48.255  1.00  0.00    -0.168 F 
HETATM   18  O2  UNL     1      22.659   3.709  48.336  1.00  0.00    -0.278 OA
HETATM   19  H7  UNL     1      23.680   4.139  52.686  1.00  0.00     0.160 HD
ENDROOT
BRANCH  10  20
HETATM   20  N2  UNL     1      25.779   2.460  53.004  1.00  0.00    -0.337 N 
HETATM   21  H8  UNL     1      25.492   2.758  53.953  1.00  0.00     0.168 HD
BRANCH  20  22
HETATM   22  C10 UNL     1      26.376   1.151  53.005  1.00  0.00     0.074 A 
HETATM   23  C11 UNL     1      27.736   1.079  53.309  1.00  0.00     0.052 A 
HETATM   24  C12 UNL     1      28.341  -0.160  53.307  1.00  0.00     0.013 A 
HETATM   25 BR1  UNL     1      30.212  -0.331  53.700  1.00  0.00    -0.051 Br
HETATM   26  C13 UNL     1      27.564  -1.253  53.005  1.00  0.00     0.022 A 
HETATM   27  C14 UNL     1      26.213  -1.219  52.700  1.00  0.00     0.046 A 
HETATM   28  C15 UNL     1      25.645   0.041  52.714  1.00  0.00     0.143 A 
HETATM   29  F1  UNL     1      24.301   0.035  52.449  1.00  0.00    -0.204 F 
ENDBRANCH  20  22
ENDBRANCH  10  20
BRANCH   1  30
HETATM   30  O1  UNL     1      20.683  -0.009  51.968  1.00  0.00    -0.360 OA
HETATM   31  H1  UNL     1      20.012  -0.767  51.880  1.00  0.00     0.217 HD
ENDBRANCH   1  30
TORSDOF 3
ENDMDL
MODEL 3
REMARK VINA RESULT:      -8.6      3.551      6.135
REMARK  3 active torsions:
REMARK  status: ('A' for Active; 'I' for Inactive)
REMARK    1  A    between atoms: O1_1  and  C1_2 
REMARK    2  A    between atoms: C9_11  and  N2_12 
REMARK    3  A    between atoms: N2_12  and  C10_13 
ROOT
HETATM    1  C1  UNL     1      24.896   6.751  48.746  1.00  0.00     0.073 A 
HETATM    2  C2  UNL     1      23.569   7.108  48.677  1.00  0.00     0.040 A 
HETATM    3  C3  UNL     1      22.506   6.248  48.793  1.00  0.00     0.040 A 
HETATM    4  C4  UNL     1      22.680   4.907  48.996  1.00  0.00     0.076 A 
HETATM    5  C5  UNL     1      24.044   4.873  49.014  1.00  0.00     0.048 A 
HETATM    6  C6  UNL     1      25.288   5.445  48.947  1.00  0.00    -0.005 A 
HETATM    7  C7  UNL     1      26.456   4.579  49.178  1.00  0.00     0.161 C 
HETATM    8  N1  UNL     1      25.913   3.293  49.723  1.00  0.00    -0.381 N 
HETATM    9  C8  UNL     1      24.965   2.797  50.685  1.00  0.00     0.108 A 
HETATM   10  C9  UNL     1      25.531   2.639  51.931  1.00  0.00     0.158 A 
HETATM   11  N3  UNL     1      24.790   2.246  52.963  1.00  0.00    -0.222 NA
HETATM   12  C16 UNL     1      23.491   1.994  52.806  1.00  0.00     0.236 A 
HETATM   13  N4  UNL     1      22.932   2.137  51.605  1.00  0.00    -0.235 NA
HETATM   14  C17 UNL     1      23.571   2.522  50.508  1.00  0.00     0.167 A 
HETATM   15  C18 UNL     1      22.659   2.526  49.341  1.00  0.00     0.408 C 
HETATM   16  F2  UNL     1      23.326   2.178  48.188  1.00  0.00    -0.168 F 
HETATM   17  F3  UNL     1      21.683   1.521  49.470  1.00  0.00    -0.168 F 
HETATM   18  O2  UNL     1      21.991   3.732  49.169  1.00  0.00    -0.278 OA
HETATM   19  H7  UNL     1      26.266   2.384  49.401  1.00  0.00     0.160 HD
ENDROOT
BRANCH  10  20
HETATM   20  N2  UNL     1      26.938   2.877  51.976  1.00  0.00    -0.337 N 
HETATM   21  H8  UNL     1      27.645   3.590  51.727  1.00  0.00     0.168 HD
BRANCH  20  22
HETATM   22  C10 UNL     1      27.531   1.718  52.589  1.00  0.00     0.074 A 
HETATM   23  C11 UNL     1      27.001   0.476  52.233  1.00  0.00     0.052 A 
HETATM   24  C12 UNL     1      27.540  -0.653  52.812  1.00  0.00     0.013 A 
HETATM   25 BR1  UNL     1      26.849  -2.391  52.380  1.00  0.00    -0.051 Br
HETATM   26  C13 UNL     1      28.569  -0.487  53.707  1.00  0.00     0.022 A 
HETATM   27  C14 UNL     1      29.120   0.728  54.082  1.00  0.00     0.046 A 
HETATM   28  C15 UNL     1      28.553   1.834  53.479  1.00  0.00     0.143 A 
HETATM   29  F1  UNL     1      29.147   3.015  53.840  1.00  0.00    -0.204 F 
ENDBRANCH  20  22
ENDBRANCH  10  20
BRANCH   1  30
HETATM   30  O1  UNL     1      26.056   7.492  48.649  1.00  0.00    -0.360 OA
HETATM   31  H1  UNL     1      26.593   7.556  47.790  1.00  0.00     0.217 HD
ENDBRANCH   1  30
TORSDOF 3
ENDMDL
MODEL 4
REMARK VINA RESULT:      -8.2      3.506      6.493
REMARK  3 active torsions:
REMARK  status: ('A' for Active; 'I' for Inactive)
REMARK    1  A    between atoms: O1_1  and  C1_2 
REMARK    2  A    between atoms: C9_11  and  N2_12 
REMARK    3  A    between atoms: N2_12  and  C10_13 
ROOT
HETATM    1  C1  UNL     1      27.751   5.769  48.699  1.00  0.00     0.073 A 
HETATM    2  C2  UNL     1      27.406   7.051  48.338  1.00  0.00     0.040 A 
HETATM    3  C3  UNL     1      26.125   7.517  48.182  1.00  0.00     0.040 A 
HETATM    4  C4  UNL     1      25.035   6.715  48.380  1.00  0.00     0.076 A 
HETATM    5  C5  UNL     1      25.681   5.560  48.710  1.00  0.00     0.048 A 
HETATM    6  C6  UNL     1      26.800   4.803  48.946  1.00  0.00    -0.005 A 
HETATM    7  C7  UNL     1      26.607   3.420  49.414  1.00  0.00     0.161 C 
HETATM    8  N1  UNL     1      25.158   3.308  49.782  1.00  0.00    -0.381 N 
HETATM    9  C8  UNL     1      24.125   4.020  50.485  1.00  0.00     0.108 A 
HETATM   10  C9  UNL     1      24.093   3.692  51.823  1.00  0.00     0.158 A 
HETATM   11  N3  UNL     1      23.240   4.295  52.646  1.00  0.00    -0.222 NA
HETATM   12  C16 UNL     1      22.401   5.223  52.187  1.00  0.00     0.236 A 
HETATM   13  N4  UNL     1      22.418   5.547  50.895  1.00  0.00    -0.235 NA
HETATM   14  C17 UNL     1      23.222   5.012  49.986  1.00  0.00     0.167 A 
HETATM   15  C18 UNL     1      22.938   5.564  48.641  1.00  0.00     0.408 C 
HETATM   16  F2  UNL     1      23.137   4.617  47.662  1.00  0.00    -0.168 F 
HETATM   17  F3  UNL     1      21.574   5.886  48.513  1.00  0.00    -0.168 F 
HETATM   18  O2  UNL     1      23.663   6.716  48.356  1.00  0.00    -0.278 OA
HETATM   19  H7  UNL     1      24.602   2.484  49.523  1.00  0.00     0.160 HD
ENDROOT
BRANCH  10  20
HETATM   20  N2  UNL     1      24.990   2.646  52.197  1.00  0.00    -0.337 N 
HETATM   21  H8  UNL     1      26.000   2.445  52.296  1.00  0.00     0.168 HD
BRANCH  20  22
HETATM   22  C10 UNL     1      24.176   1.516  52.558  1.00  0.00     0.074 A 
HETATM   23  C11 UNL     1      22.905   1.445  51.984  1.00  0.00     0.052 A 
HETATM   24  C12 UNL     1      22.096   0.380  52.319  1.00  0.00     0.013 A 
HETATM   25 BR1  UNL     1      20.331   0.229  51.580  1.00  0.00    -0.051 Br
HETATM   26  C13 UNL     1      22.591  -0.550  53.201  1.00  0.00     0.022 A 
HETATM   27  C14 UNL     1      23.846  -0.513  53.789  1.00  0.00     0.046 A 
HETATM   28  C15 UNL     1      24.625   0.569  53.426  1.00  0.00     0.143 A 
HETATM   29  F1  UNL     1      25.874   0.554  53.991  1.00  0.00    -0.204 F 
ENDBRANCH  20  22
ENDBRANCH  10  20
BRANCH   1  30
HETATM   30  O1  UNL     1      28.976   5.164  48.893  1.00  0.00    -0.360 OA
HETATM   31  H1  UNL     1      29.167   4.561  49.687  1.00  0.00     0.217 HD
ENDBRANCH   1  30
TORSDOF 3
ENDMDL
MODEL 5
REMARK VINA RESULT:      -8.2      2.959      5.171
REMARK  3 active torsions:
REMARK  status: ('A' for Active; 'I' for Inactive)
REMARK    1  A    between atoms: O1_1  and  C1_2 
REMARK    2  A    between atoms: C9_11  and  N2_12 
REMARK    3  A    between atoms: N2_12  and  C10_13 
ROOT
HETATM    1  C1  UNL     1      26.617   0.200  54.694  1.00  0.00     0.073 A 
HETATM    2  C2  UNL     1      27.766   0.954  54.769  1.00  0.00     0.040 A 
HETATM    3  C3  UNL     1      28.191   1.854  53.824  1.00  0.00     0.040 A 
HETATM    4  C4  UNL     1      27.479   2.091  52.681  1.00  0.00     0.076 A 
HETATM    5  C5  UNL     1      26.444   1.229  52.895  1.00  0.00     0.048 A 
HETATM    6  C6  UNL     1      25.758   0.290  53.621  1.00  0.00    -0.005 A 
HETATM    7  C7  UNL     1      24.457  -0.164  53.101  1.00  0.00     0.161 C 
HETATM    8  N1  UNL     1      24.101   0.784  51.997  1.00  0.00    -0.381 N 
HETATM    9  C8  UNL     1      24.082   2.190  51.692  1.00  0.00     0.108 A 
HETATM   10  C9  UNL     1      22.894   2.781  52.062  1.00  0.00     0.158 A 
HETATM   11  N3  UNL     1      22.716   4.090  51.912  1.00  0.00    -0.222 NA
HETATM   12  C16 UNL     1      23.684   4.849  51.397  1.00  0.00     0.236 A 
HETATM   13  N4  UNL     1      24.836   4.290  51.031  1.00  0.00    -0.235 NA
HETATM   14  C17 UNL     1      25.123   2.999  51.134  1.00  0.00     0.167 A 
HETATM   15  C18 UNL     1      26.470   2.714  50.587  1.00  0.00     0.408 C 
HETATM   16  F2  UNL     1      26.514   1.470  49.997  1.00  0.00    -0.168 F 
HETATM   17  F3  UNL     1      26.773   3.589  49.528  1.00  0.00    -0.168 F 
HETATM   18  O2  UNL     1      27.484   2.839  51.529  1.00  0.00    -0.278 OA
HETATM   19  H7  UNL     1      23.707   0.449  51.110  1.00  0.00     0.160 HD
ENDROOT
BRANCH  10  20
HETATM   20  N2  UNL     1      21.906   1.871  52.545  1.00  0.00    -0.337 N 
HETATM   21  H8  UNL     1      21.732   1.202  53.315  1.00  0.00     0.168 HD
BRANCH  20  22
HETATM   22  C10 UNL     1      20.795   1.948  51.633  1.00  0.00     0.074 A 
HETATM   23  C11 UNL     1      19.721   2.753  52.014  1.00  0.00     0.052 A 
HETATM   24  C12 UNL     1      18.637   2.839  51.167  1.00  0.00     0.013 A 
HETATM   25 BR1  UNL     1      17.118   3.915  51.637  1.00  0.00    -0.051 Br
HETATM   26  C13 UNL     1      18.680   2.124  49.994  1.00  0.00     0.022 A 
HETATM   27  C14 UNL     1      19.729   1.317  49.583  1.00  0.00     0.046 A 
HETATM   28  C15 UNL     1      20.796   1.259  50.459  1.00  0.00     0.143 A 
HETATM   29  F1  UNL     1      21.832   0.487  50.005  1.00  0.00    -0.204 F 
ENDBRANCH  20  22
ENDBRANCH  10  20
BRANCH   1  30
HETATM   30  O1  UNL     1      26.069  -0.730  55.552  1.00  0.00    -0.360 OA
HETATM   31  H1  UNL     1      25.177  -0.586  56.016  1.00  0.00     0.217 HD
ENDBRANCH   1  30
TORSDOF 3
ENDMDL
MODEL 6
REMARK VINA RESULT:      -8.1      2.210      2.956
REMARK  3 active torsions:
REMARK  status: ('A' for Active; 'I' for Inactive)
REMARK    1  A    between atoms: O1_1  and  C1_2 
REMARK    2  A    between atoms: C9_11  and  N2_12 
REMARK    3  A    between atoms: N2_12  and  C10_13 
ROOT
HETATM    1  C1  UNL     1      24.332   0.292  53.448  1.00  0.00     0.073 A 
HETATM    2  C2  UNL     1      23.347  -0.618  53.139  1.00  0.00     0.040 A 
HETATM    3  C3  UNL     1      22.137  -0.318  52.565  1.00  0.00     0.040 A 
HETATM    4  C4  UNL     1      21.792   0.963  52.236  1.00  0.00     0.076 A 
HETATM    5  C5  UNL     1      22.925   1.600  52.650  1.00  0.00     0.048 A 
HETATM    6  C6  UNL     1      24.182   1.638  53.195  1.00  0.00    -0.005 A 
HETATM    7  C7  UNL     1      24.878   2.935  53.227  1.00  0.00     0.161 C 
HETATM    8  N1  UNL     1      24.077   3.854  52.355  1.00  0.00    -0.381 N 
HETATM    9  C8  UNL     1      23.413   3.890  51.079  1.00  0.00     0.108 A 
HETATM   10  C9  UNL     1      24.258   4.297  50.071  1.00  0.00     0.158 A 
HETATM   11  N3  UNL     1      23.836   4.334  48.811  1.00  0.00    -0.222 NA
HETATM   12  C16 UNL     1      22.588   3.981  48.505  1.00  0.00     0.236 A 
HETATM   13  N4  UNL     1      21.759   3.590  49.471  1.00  0.00    -0.235 NA
HETATM   14  C17 UNL     1      22.069   3.515  50.759  1.00  0.00     0.167 A 
HETATM   15  C18 UNL     1      20.897   3.093  51.559  1.00  0.00     0.408 C 
HETATM   16  F2  UNL     1      20.903   3.686  52.802  1.00  0.00    -0.168 F 
HETATM   17  F3  UNL     1      19.703   3.561  50.980  1.00  0.00    -0.168 F 
HETATM   18  O2  UNL     1      20.783   1.713  51.683  1.00  0.00    -0.278 OA
HETATM   19  H7  UNL     1      23.877   4.821  52.637  1.00  0.00     0.160 HD
ENDROOT
BRANCH  10  20
HETATM   20  N2  UNL     1      25.552   4.709  50.514  1.00  0.00    -0.337 N 
HETATM   21  H8  UNL     1      26.364   4.371  51.059  1.00  0.00     0.168 HD
BRANCH  20  22
HETATM   22  C10 UNL     1      25.758   6.037  50.001  1.00  0.00     0.074 A 
HETATM   23  C11 UNL     1      26.647   6.171  48.933  1.00  0.00     0.052 A 
HETATM   24  C12 UNL     1      26.874   7.432  48.427  1.00  0.00     0.013 A 
HETATM   25 BR1  UNL     1      28.097   7.690  46.970  1.00  0.00    -0.051 Br
HETATM   26  C13 UNL     1      26.210   8.486  49.006  1.00  0.00     0.022 A 
HETATM   27  C14 UNL     1      25.320   8.391  50.065  1.00  0.00     0.046 A 
HETATM   28  C15 UNL     1      25.119   7.111  50.542  1.00  0.00     0.143 A 
HETATM   29  F1  UNL     1      24.204   7.046  51.560  1.00  0.00    -0.204 F 
ENDBRANCH  20  22
ENDBRANCH  10  20
BRANCH   1  30
HETATM   30  O1  UNL     1      25.579   0.141  54.018  1.00  0.00    -0.360 OA
HETATM   31  H1  UNL     1      26.370   0.725  53.763  1.00  0.00     0.217 HD
ENDBRANCH   1  30
TORSDOF 3
ENDMDL
MODEL 7
REMARK VINA RESULT:      -7.9      2.567      3.096
REMARK  3 active torsions:
REMARK  status: ('A' for Active; 'I' for Inactive)
REMARK    1  A    between atoms: O1_1  and  C1_2 
REMARK    2  A    between atoms: C9_11  and  N2_12 
REMARK    3  A    between atoms: N2_12  and  C10_13 
ROOT
HETATM    1  C1  UNL     1      26.018   1.605  53.695  1.00  0.00     0.073 A 
HETATM    2  C2  UNL     1      26.082   0.235  53.800  1.00  0.00     0.040 A 
HETATM    3  C3  UNL     1      25.043  -0.631  53.568  1.00  0.00     0.040 A 
HETATM    4  C4  UNL     1      23.803  -0.189  53.197  1.00  0.00     0.076 A 
HETATM    5  C5  UNL     1      24.053   1.152  53.183  1.00  0.00     0.048 A 
HETATM    6  C6  UNL     1      24.857   2.253  53.332  1.00  0.00    -0.005 A 
HETATM    7  C7  UNL     1      24.287   3.569  53.000  1.00  0.00     0.161 C 
HETATM    8  N1  UNL     1      22.996   3.292  52.291  1.00  0.00    -0.381 N 
HETATM    9  C8  UNL     1      22.440   2.447  51.267  1.00  0.00     0.108 A 
HETATM   10  C9  UNL     1      22.562   3.008  50.015  1.00  0.00     0.158 A 
HETATM   11  N3  UNL     1      22.158   2.344  48.936  1.00  0.00    -0.222 NA
HETATM   12  C16 UNL     1      21.625   1.128  49.051  1.00  0.00     0.236 A 
HETATM   13  N4  UNL     1      21.498   0.576  50.257  1.00  0.00    -0.235 NA
HETATM   14  C17 UNL     1      21.864   1.143  51.398  1.00  0.00     0.167 A 
HETATM   15  C18 UNL     1      21.532   0.273  52.550  1.00  0.00     0.408 C 
HETATM   16  F2  UNL     1      21.186   1.020  53.654  1.00  0.00    -0.168 F 
HETATM   17  F3  UNL     1      20.372  -0.478  52.287  1.00  0.00    -0.168 F 
HETATM   18  O2  UNL     1      22.543  -0.625  52.870  1.00  0.00    -0.278 OA
HETATM   19  H7  UNL     1      22.146   3.831  52.496  1.00  0.00     0.160 HD
ENDROOT
BRANCH  10  20
HETATM   20  N2  UNL     1      23.089   4.335  50.010  1.00  0.00    -0.337 N 
HETATM   21  H8  UNL     1      23.871   4.895  50.391  1.00  0.00     0.168 HD
BRANCH  20  22
HETATM   22  C10 UNL     1      22.216   5.121  49.178  1.00  0.00     0.074 A 
HETATM   23  C11 UNL     1      22.647   5.374  47.875  1.00  0.00     0.052 A 
HETATM   24  C12 UNL     1      21.838   6.133  47.056  1.00  0.00     0.013 A 
HETATM   25 BR1  UNL     1      22.376   6.533  45.257  1.00  0.00    -0.051 Br
HETATM   26  C13 UNL     1      20.653   6.596  47.575  1.00  0.00     0.022 A 
HETATM   27  C14 UNL     1      20.194   6.364  48.862  1.00  0.00     0.046 A 
HETATM   28  C15 UNL     1      21.032   5.598  49.649  1.00  0.00     0.143 A 
HETATM   29  F1  UNL     1      20.531   5.353  50.900  1.00  0.00    -0.204 F 
ENDBRANCH  20  22
ENDBRANCH  10  20
BRANCH   1  30
HETATM   30  O1  UNL     1      26.964   2.589  53.894  1.00  0.00    -0.360 OA
HETATM   31  H1  UNL     1      27.053   3.091  54.772  1.00  0.00     0.217 HD
ENDBRANCH   1  30
TORSDOF 3
ENDMDL
MODEL 8
REMARK VINA RESULT:      -7.9      2.090      4.254
REMARK  3 active torsions:
REMARK  status: ('A' for Active; 'I' for Inactive)
REMARK    1  A    between atoms: O1_1  and  C1_2 
REMARK    2  A    between atoms: C9_11  and  N2_12 
REMARK    3  A    between atoms: N2_12  and  C10_13 
ROOT
HETATM    1  C1  UNL     1      19.263   0.458  50.888  1.00  0.00     0.073 A 
HETATM    2  C2  UNL     1      18.855   0.118  52.157  1.00  0.00     0.040 A 
HETATM    3  C3  UNL     1      19.683  -0.086  53.232  1.00  0.00     0.040 A 
HETATM    4  C4  UNL     1      21.041   0.038  53.131  1.00  0.00     0.076 A 
HETATM    5  C5  UNL     1      21.125   0.365  51.810  1.00  0.00     0.048 A 
HETATM    6  C6  UNL     1      20.593   0.633  50.575  1.00  0.00    -0.005 A 
HETATM    7  C7  UNL     1      21.515   1.052  49.506  1.00  0.00     0.161 C 
HETATM    8  N1  UNL     1      22.820   1.348  50.180  1.00  0.00    -0.381 N 
HETATM    9  C8  UNL     1      23.356   2.021  51.333  1.00  0.00     0.108 A 
HETATM   10  C9  UNL     1      23.630   3.346  51.073  1.00  0.00     0.158 A 
HETATM   11  N3  UNL     1      24.077   4.144  52.038  1.00  0.00    -0.222 NA
HETATM   12  C16 UNL     1      24.270   3.673  53.270  1.00  0.00     0.236 A 
HETATM   13  N4  UNL     1      24.014   2.393  53.533  1.00  0.00    -0.235 NA
HETATM   14  C17 UNL     1      23.567   1.508  52.652  1.00  0.00     0.167 A 
HETATM   15  C18 UNL     1      23.441   0.167  53.269  1.00  0.00     0.408 C 
HETATM   16  F2  UNL     1      23.720  -0.828  52.360  1.00  0.00    -0.168 F 
HETATM   17  F3  UNL     1      24.417  -0.017  54.265  1.00  0.00    -0.168 F 
HETATM   18  O2  UNL     1      22.201  -0.052  53.860  1.00  0.00    -0.278 OA
HETATM   19  H7  UNL     1      23.713   1.040  49.777  1.00  0.00     0.160 HD
ENDROOT
BRANCH  10  20
HETATM   20  N2  UNL     1      23.446   3.733  49.711  1.00  0.00    -0.337 N 
HETATM   21  H8  UNL     1      22.766   3.656  48.935  1.00  0.00     0.168 HD
BRANCH  20  22
HETATM   22  C10 UNL     1      24.614   4.484  49.336  1.00  0.00     0.074 A 
HETATM   23  C11 UNL     1      24.415   5.815  48.963  1.00  0.00     0.052 A 
HETATM   24  C12 UNL     1      25.513   6.558  48.587  1.00  0.00     0.013 A 
HETATM   25 BR1  UNL     1      25.310   8.389  48.046  1.00  0.00    -0.051 Br
HETATM   26  C13 UNL     1      26.741   5.943  48.602  1.00  0.00     0.022 A 
HETATM   27  C14 UNL     1      26.977   4.627  48.967  1.00  0.00     0.046 A 
HETATM   28  C15 UNL     1      25.851   3.917  49.338  1.00  0.00     0.143 A 
HETATM   29  F1  UNL     1      26.122   2.633  49.733  1.00  0.00    -0.204 F 
ENDBRANCH  20  22
ENDBRANCH  10  20
BRANCH   1  30
HETATM   30  O1  UNL     1      18.557   0.692  49.726  1.00  0.00    -0.360 OA
HETATM   31  H1  UNL     1      18.174  -0.059  49.159  1.00  0.00     0.217 HD
ENDBRANCH   1  30
TORSDOF 3
ENDMDL
MODEL 9
REMARK VINA RESULT:      -7.8      3.676      6.222
REMARK  3 active torsions:
REMARK  status: ('A' for Active; 'I' for Inactive)
REMARK    1  A    between atoms: O1_1  and  C1_2 
REMARK    2  A    between atoms: C9_11  and  N2_12 
REMARK    3  A    between atoms: N2_12  and  C10_13 
ROOT
HETATM    1  C1  UNL     1      24.606   4.726  49.858  1.00  0.00     0.073 A 
HETATM    2  C2  UNL     1      25.668   4.271  49.111  1.00  0.00     0.040 A 
HETATM    3  C3  UNL     1      26.607   3.364  49.533  1.00  0.00     0.040 A 
HETATM    4  C4  UNL     1      26.568   2.811  50.783  1.00  0.00     0.076 A 
HETATM    5  C5  UNL     1      25.452   3.437  51.255  1.00  0.00     0.048 A 
HETATM    6  C6  UNL     1      24.384   4.291  51.146  1.00  0.00    -0.005 A 
HETATM    7  C7  UNL     1      23.442   4.359  52.276  1.00  0.00     0.161 C 
HETATM    8  N1  UNL     1      23.786   3.206  53.170  1.00  0.00    -0.381 N 
HETATM    9  C8  UNL     1      24.103   1.804  53.115  1.00  0.00     0.108 A 
HETATM   10  C9  UNL     1      22.973   1.018  53.181  1.00  0.00     0.158 A 
HETATM   11  N3  UNL     1      23.064  -0.305  53.084  1.00  0.00    -0.222 NA
HETATM   12  C16 UNL     1      24.251  -0.891  52.927  1.00  0.00     0.236 A 
HETATM   13  N4  UNL     1      25.352  -0.143  52.866  1.00  0.00    -0.235 NA
HETATM   14  C17 UNL     1      25.381   1.180  52.951  1.00  0.00     0.167 A 
HETATM   15  C18 UNL     1      26.773   1.681  52.898  1.00  0.00     0.408 C 
HETATM   16  F2  UNL     1      26.928   2.805  53.680  1.00  0.00    -0.168 F 
HETATM   17  F3  UNL     1      27.659   0.755  53.479  1.00  0.00    -0.168 F 
HETATM   18  O2  UNL     1      27.221   1.926  51.605  1.00  0.00    -0.278 OA
HETATM   19  H7  UNL     1      23.823   3.312  54.190  1.00  0.00     0.160 HD
ENDROOT
BRANCH  10  20
HETATM   20  N2  UNL     1      21.763   1.741  53.410  1.00  0.00    -0.337 N 
HETATM   21  H8  UNL     1      21.379   2.512  53.982  1.00  0.00     0.168 HD
BRANCH  20  22
HETATM   22  C10 UNL     1      20.777   1.183  52.521  1.00  0.00     0.074 A 
HETATM   23  C11 UNL     1      19.813   0.351  53.092  1.00  0.00     0.052 A 
HETATM   24  C12 UNL     1      18.861  -0.208  52.266  1.00  0.00     0.013 A 
HETATM   25 BR1  UNL     1      17.515  -1.374  52.982  1.00  0.00    -0.051 Br
HETATM   26  C13 UNL     1      18.921   0.088  50.926  1.00  0.00     0.022 A 
HETATM   27  C14 UNL     1      19.862   0.909  50.325  1.00  0.00     0.046 A 
HETATM   28  C15 UNL     1      20.796   1.450  51.187  1.00  0.00     0.143 A 
HETATM   29  F1  UNL     1      21.686   2.289  50.569  1.00  0.00    -0.204 F 
ENDBRANCH  20  22
ENDBRANCH  10  20
BRANCH   1  30
HETATM   30  O1  UNL     1      23.596   5.622  49.573  1.00  0.00    -0.360 OA
HETATM   31  H1  UNL     1      23.715   6.626  49.666  1.00  0.00     0.217 HD
ENDBRANCH   1  30
TORSDOF 3
ENDMDL
