MODEL 1
REMARK VINA RESULT:      -9.3      0.000      0.000
REMARK  5 active torsions:
REMARK  status: ('A' for Active; 'I' for Inactive)
REMARK    1  A    between atoms: C13_16  and  O3_17 
REMARK    2  A    between atoms: C17_22  and  C18_23 
REMARK    3  A    between atoms: C18_23  and  O5_24 
REMARK    4  A    between atoms: O5_24  and  C19_25 
REMARK    5  A    between atoms: C19_25  and  C20_26 
ROOT
HETATM    1  C1  UNL     1      22.050  -0.141  53.556  1.00  0.00     0.045 C 
HETATM    2  C2  UNL     1      22.242   1.287  53.016  1.00  0.00     0.153 C 
HETATM    3  O1  UNL     1      21.270   1.585  52.056  1.00  0.00    -0.372 OA
HETATM    4  C3  UNL     1      20.407   2.507  52.652  1.00  0.00     0.271 C 
HETATM    5  C4  UNL     1      19.374   3.007  51.674  1.00  0.00     0.241 C 
HETATM    6  O2  UNL     1      18.460   3.836  51.909  1.00  0.00    -0.271 OA
HETATM    7  N1  UNL     1      19.310   2.589  50.296  1.00  0.00    -0.359 N 
HETATM    8  C5  UNL     1      18.243   3.247  49.579  1.00  0.00     0.122 C 
HETATM    9  C6  UNL     1      18.174   2.900  48.140  1.00  0.00     0.020 C 
HETATM   10  C7  UNL     1      19.211   3.362  47.206  1.00  0.00     0.002 C 
HETATM   11  C8  UNL     1      20.633   3.046  47.354  1.00  0.00     0.000 C 
HETATM   12  C9  UNL     1      21.474   3.712  48.365  1.00  0.00     0.004 C 
HETATM   13  C10 UNL     1      22.896   3.154  48.403  1.00  0.00     0.034 C 
HETATM   14  C11 UNL     1      23.668   3.753  49.516  1.00  0.00    -0.070 C 
HETATM   15  C12 UNL     1      23.397   4.593  50.534  1.00  0.00     0.040 C 
HETATM   16  C13 UNL     1      23.650   3.938  51.834  1.00  0.00     0.080 C 
HETATM   17  C14 UNL     1      24.082   2.691  51.868  1.00  0.00     0.054 C 
HETATM   18  C15 UNL     1      25.262   2.775  50.983  1.00  0.00     0.166 C 
HETATM   19  O4  UNL     1      26.487   2.461  51.068  1.00  0.00    -0.292 OA
HETATM   20  C16 UNL     1      25.121   3.359  49.602  1.00  0.00     0.118 C 
HETATM   21  C17 UNL     1      23.622   1.483  52.544  1.00  0.00     0.009 C 
HETATM   22  H7  UNL     1      20.055   1.865  50.044  1.00  0.00     0.162 HD
ENDROOT
BRANCH  21  23
HETATM   23  C18 UNL     1      24.623   0.608  52.706  1.00  0.00     0.145 C 
BRANCH  23  24
HETATM   24  O5  UNL     1      25.412  -0.321  53.260  1.00  0.00    -0.358 OA
BRANCH  24  25
HETATM   25  C19 UNL     1      26.234  -1.274  52.665  1.00  0.00     0.213 C 
BRANCH  25  26
HETATM   26  C20 UNL     1      27.675  -1.017  53.039  1.00  0.00    -0.034 A 
HETATM   27  C21 UNL     1      28.041   0.288  53.345  1.00  0.00     0.009 A 
HETATM   28  C22 UNL     1      29.368   0.562  53.700  1.00  0.00     0.001 A 
HETATM   29  C23 UNL     1      30.241  -0.486  53.723  1.00  0.00     0.000 A 
HETATM   30  C24 UNL     1      29.884  -1.781  53.419  1.00  0.00     0.001 A 
HETATM   31  C25 UNL     1      28.574  -2.064  53.067  1.00  0.00     0.009 A 
ENDBRANCH  25  26
ENDBRANCH  24  25
ENDBRANCH  23  24
ENDBRANCH  21  23
BRANCH  16  32
HETATM   32  O3  UNL     1      23.416   4.675  53.004  1.00  0.00    -0.360 OA
HETATM   33  H21 UNL     1      23.666   5.654  53.082  1.00  0.00     0.217 HD
ENDBRANCH  16  32
TORSDOF 5
ENDMDL
MODEL 2
REMARK VINA RESULT:      -8.7      3.686      6.542
REMARK  5 active torsions:
REMARK  status: ('A' for Active; 'I' for Inactive)
REMARK    1  A    between atoms: C13_16  and  O3_17 
REMARK    2  A    between atoms: C17_22  and  C18_23 
REMARK    3  A    between atoms: C18_23  and  O5_24 
REMARK    4  A    between atoms: O5_24  and  C19_25 
REMARK    5  A    between atoms: C19_25  and  C20_26 
ROOT
HETATM    1  C1  UNL     1      24.165   3.266  52.911  1.00  0.00     0.045 C 
HETATM    2  C2  UNL     1      23.965   3.405  51.391  1.00  0.00     0.153 C 
HETATM    3  O1  UNL     1      24.839   4.360  50.864  1.00  0.00    -0.372 OA
HETATM    4  C3  UNL     1      25.790   3.649  50.128  1.00  0.00     0.271 C 
HETATM    5  C4  UNL     1      26.730   4.577  49.401  1.00  0.00     0.241 C 
HETATM    6  O2  UNL     1      27.690   4.242  48.663  1.00  0.00    -0.271 OA
HETATM    7  N1  UNL     1      26.635   6.014  49.456  1.00  0.00    -0.359 N 
HETATM    8  C5  UNL     1      27.642   6.655  48.642  1.00  0.00     0.122 C 
HETATM    9  C6  UNL     1      27.547   8.134  48.613  1.00  0.00     0.020 C 
HETATM   10  C7  UNL     1      26.433   8.802  47.924  1.00  0.00     0.002 C 
HETATM   11  C8  UNL     1      25.025   8.583  48.260  1.00  0.00     0.000 C 
HETATM   12  C9  UNL     1      24.318   7.351  47.869  1.00  0.00     0.004 C 
HETATM   13  C10 UNL     1      22.890   7.298  48.411  1.00  0.00     0.034 C 
HETATM   14  C11 UNL     1      22.259   5.991  48.111  1.00  0.00    -0.070 C 
HETATM   15  C12 UNL     1      22.663   4.832  47.558  1.00  0.00     0.040 C 
HETATM   16  C13 UNL     1      22.527   3.718  48.521  1.00  0.00     0.080 C 
HETATM   17  C14 UNL     1      22.060   3.952  49.733  1.00  0.00     0.054 C 
HETATM   18  C15 UNL     1      20.797   4.653  49.422  1.00  0.00     0.166 C 
HETATM   19  O4  UNL     1      19.578   4.515  49.742  1.00  0.00    -0.292 OA
HETATM   20  C16 UNL     1      20.811   5.849  48.507  1.00  0.00     0.118 C 
HETATM   21  C17 UNL     1      22.550   3.657  51.076  1.00  0.00     0.009 C 
HETATM   22  H7  UNL     1      25.844   6.357  50.089  1.00  0.00     0.162 HD
ENDROOT
BRANCH  21  23
HETATM   23  C18 UNL     1      21.544   3.612  51.958  1.00  0.00     0.145 C 
BRANCH  23  24
HETATM   24  O5  UNL     1      20.521   3.146  52.686  1.00  0.00    -0.358 OA
BRANCH  24  25
HETATM   25  C19 UNL     1      19.872   1.914  52.639  1.00  0.00     0.213 C 
BRANCH  25  26
HETATM   26  C20 UNL     1      20.800   0.824  53.121  1.00  0.00    -0.034 A 
HETATM   27  C21 UNL     1      20.733   0.462  54.460  1.00  0.00     0.009 A 
HETATM   28  C22 UNL     1      21.577  -0.548  54.940  1.00  0.00     0.001 A 
HETATM   29  C23 UNL     1      22.431  -1.128  54.050  1.00  0.00     0.000 A 
HETATM   30  C24 UNL     1      22.503  -0.773  52.721  1.00  0.00     0.001 A 
HETATM   31  C25 UNL     1      21.673   0.225  52.234  1.00  0.00     0.009 A 
ENDBRANCH  25  26
ENDBRANCH  24  25
ENDBRANCH  23  24
ENDBRANCH  21  23
BRANCH  16  32
HETATM   32  O3  UNL     1      22.906   2.434  48.106  1.00  0.00    -0.360 OA
HETATM   33  H21 UNL     1      23.706   1.955  48.503  1.00  0.00     0.217 HD
ENDBRANCH  16  32
TORSDOF 5
ENDMDL
MODEL 3
REMARK VINA RESULT:      -8.7      9.348     12.777
REMARK  5 active torsions:
REMARK  status: ('A' for Active; 'I' for Inactive)
REMARK    1  A    between atoms: C13_16  and  O3_17 
REMARK    2  A    between atoms: C17_22  and  C18_23 
REMARK    3  A    between atoms: C18_23  and  O5_24 
REMARK    4  A    between atoms: O5_24  and  C19_25 
REMARK    5  A    between atoms: C19_25  and  C20_26 
ROOT
HETATM    1  C1  UNL     1      31.239  10.371  46.809  1.00  0.00     0.045 C 
HETATM    2  C2  UNL     1      32.363   9.342  47.022  1.00  0.00     0.153 C 
HETATM    3  O1  UNL     1      32.842   8.873  45.795  1.00  0.00    -0.372 OA
HETATM    4  C3  UNL     1      34.115   9.425  45.640  1.00  0.00     0.271 C 
HETATM    5  C4  UNL     1      34.797   8.898  44.403  1.00  0.00     0.241 C 
HETATM    6  O2  UNL     1      35.944   9.207  43.992  1.00  0.00    -0.271 OA
HETATM    7  N1  UNL     1      34.203   7.935  43.512  1.00  0.00    -0.359 N 
HETATM    8  C5  UNL     1      35.087   7.584  42.425  1.00  0.00     0.122 C 
HETATM    9  C6  UNL     1      34.547   6.546  41.515  1.00  0.00     0.020 C 
HETATM   10  C7  UNL     1      34.400   5.155  41.966  1.00  0.00     0.002 C 
HETATM   11  C8  UNL     1      33.587   4.759  43.118  1.00  0.00     0.000 C 
HETATM   12  C9  UNL     1      34.040   4.991  44.501  1.00  0.00     0.004 C 
HETATM   13  C10 UNL     1      32.990   4.589  45.537  1.00  0.00     0.034 C 
HETATM   14  C11 UNL     1      33.427   4.958  46.903  1.00  0.00    -0.070 C 
HETATM   15  C12 UNL     1      34.471   5.625  47.433  1.00  0.00     0.040 C 
HETATM   16  C13 UNL     1      34.008   6.817  48.174  1.00  0.00     0.080 C 
HETATM   17  C14 UNL     1      32.718   7.090  48.238  1.00  0.00     0.054 C 
HETATM   18  C15 UNL     1      32.180   5.807  48.739  1.00  0.00     0.166 C 
HETATM   19  O4  UNL     1      31.435   5.446  49.699  1.00  0.00    -0.292 OA
HETATM   20  C16 UNL     1      32.522   4.525  48.028  1.00  0.00     0.118 C 
HETATM   21  C17 UNL     1      31.922   8.274  47.933  1.00  0.00     0.009 C 
HETATM   22  H7  UNL     1      33.214   7.650  43.804  1.00  0.00     0.162 HD
ENDROOT
BRANCH  21  23
HETATM   23  C18 UNL     1      30.769   8.271  48.616  1.00  0.00     0.145 C 
BRANCH  23  24
HETATM   24  O5  UNL     1      29.489   8.041  48.933  1.00  0.00    -0.358 OA
BRANCH  24  25
HETATM   25  C19 UNL     1      28.366   7.932  48.117  1.00  0.00     0.213 C 
BRANCH  25  26
HETATM   26  C20 UNL     1      27.547   6.730  48.524  1.00  0.00    -0.034 A 
HETATM   27  C21 UNL     1      26.237   6.948  48.930  1.00  0.00     0.009 A 
HETATM   28  C22 UNL     1      25.447   5.855  49.310  1.00  0.00     0.001 A 
HETATM   29  C23 UNL     1      26.020   4.618  49.261  1.00  0.00     0.000 A 
HETATM   30  C24 UNL     1      27.319   4.397  48.860  1.00  0.00     0.001 A 
HETATM   31  C25 UNL     1      28.110   5.471  48.480  1.00  0.00     0.009 A 
ENDBRANCH  25  26
ENDBRANCH  24  25
ENDBRANCH  23  24
ENDBRANCH  21  23
BRANCH  16  32
HETATM   32  O3  UNL     1      34.969   7.629  48.791  1.00  0.00    -0.360 OA
HETATM   33  H21 UNL     1      35.085   7.656  49.797  1.00  0.00     0.217 HD
ENDBRANCH  16  32
TORSDOF 5
ENDMDL
MODEL 4
REMARK VINA RESULT:      -8.4      3.431      7.000
REMARK  5 active torsions:
REMARK  status: ('A' for Active; 'I' for Inactive)
REMARK    1  A    between atoms: C13_16  and  O3_17 
REMARK    2  A    between atoms: C17_22  and  C18_23 
REMARK    3  A    between atoms: C18_23  and  O5_24 
REMARK    4  A    between atoms: O5_24  and  C19_25 
REMARK    5  A    between atoms: C19_25  and  C20_26 
ROOT
HETATM    1  C1  UNL     1      26.612   3.548  49.321  1.00  0.00     0.045 C 
HETATM    2  C2  UNL     1      25.650   3.903  50.469  1.00  0.00     0.153 C 
HETATM    3  O1  UNL     1      25.124   2.744  51.047  1.00  0.00    -0.372 OA
HETATM    4  C3  UNL     1      25.722   2.634  52.305  1.00  0.00     0.271 C 
HETATM    5  C4  UNL     1      25.146   1.482  53.089  1.00  0.00     0.241 C 
HETATM    6  O2  UNL     1      25.478   1.126  54.247  1.00  0.00    -0.271 OA
HETATM    7  N1  UNL     1      24.100   0.623  52.595  1.00  0.00    -0.359 N 
HETATM    8  C5  UNL     1      23.718  -0.378  53.564  1.00  0.00     0.122 C 
HETATM    9  C6  UNL     1      22.600  -1.248  53.129  1.00  0.00     0.020 C 
HETATM   10  C7  UNL     1      21.236  -0.713  53.008  1.00  0.00     0.002 C 
HETATM   11  C8  UNL     1      20.881   0.409  52.137  1.00  0.00     0.000 C 
HETATM   12  C9  UNL     1      21.223   1.799  52.486  1.00  0.00     0.004 C 
HETATM   13  C10 UNL     1      20.843   2.790  51.387  1.00  0.00     0.034 C 
HETATM   14  C11 UNL     1      21.321   4.153  51.716  1.00  0.00    -0.070 C 
HETATM   15  C12 UNL     1      22.067   4.702  52.693  1.00  0.00     0.040 C 
HETATM   16  C13 UNL     1      23.283   5.328  52.134  1.00  0.00     0.080 C 
HETATM   17  C14 UNL     1      23.501   5.291  50.832  1.00  0.00     0.054 C 
HETATM   18  C15 UNL     1      22.232   5.843  50.315  1.00  0.00     0.166 C 
HETATM   19  O4  UNL     1      21.902   6.775  49.522  1.00  0.00    -0.292 OA
HETATM   20  C16 UNL     1      20.922   5.244  50.755  1.00  0.00     0.118 C 
HETATM   21  C17 UNL     1      24.626   4.855  50.011  1.00  0.00     0.009 C 
HETATM   22  H7  UNL     1      23.791   0.869  51.601  1.00  0.00     0.162 HD
ENDROOT
BRANCH  21  23
HETATM   23  C18 UNL     1      24.616   5.462  48.817  1.00  0.00     0.145 C 
BRANCH  23  24
HETATM   24  O5  UNL     1      24.783   6.397  47.873  1.00  0.00    -0.358 OA
BRANCH  24  25
HETATM   25  C19 UNL     1      25.343   7.669  47.957  1.00  0.00     0.213 C 
BRANCH  25  26
HETATM   26  C20 UNL     1      26.774   7.636  47.473  1.00  0.00    -0.034 A 
HETATM   27  C21 UNL     1      27.088   8.370  46.336  1.00  0.00     0.009 A 
HETATM   28  C22 UNL     1      28.407   8.365  45.862  1.00  0.00     0.001 A 
HETATM   29  C23 UNL     1      29.321   7.627  46.554  1.00  0.00     0.000 A 
HETATM   30  C24 UNL     1      29.014   6.897  47.681  1.00  0.00     0.001 A 
HETATM   31  C25 UNL     1      27.713   6.894  48.160  1.00  0.00     0.009 A 
ENDBRANCH  25  26
ENDBRANCH  24  25
ENDBRANCH  23  24
ENDBRANCH  21  23
BRANCH  16  32
HETATM   32  O3  UNL     1      24.176   5.948  53.018  1.00  0.00    -0.360 OA
HETATM   33  H21 UNL     1      24.344   5.592  53.952  1.00  0.00     0.217 HD
ENDBRANCH  16  32
TORSDOF 5
ENDMDL
MODEL 5
REMARK VINA RESULT:      -8.1      4.175      6.444
REMARK  5 active torsions:
REMARK  status: ('A' for Active; 'I' for Inactive)
REMARK    1  A    between atoms: C13_16  and  O3_17 
REMARK    2  A    between atoms: C17_22  and  C18_23 
REMARK    3  A    between atoms: C18_23  and  O5_24 
REMARK    4  A    between atoms: O5_24  and  C19_25 
REMARK    5  A    between atoms: C19_25  and  C20_26 
ROOT
HETATM    1  C1  UNL     1      27.194   4.286  48.948  1.00  0.00     0.045 C 
HETATM    2  C2  UNL     1      26.014   4.764  49.813  1.00  0.00     0.153 C 
HETATM    3  O1  UNL     1      24.964   3.842  49.766  1.00  0.00    -0.372 OA
HETATM    4  C3  UNL     1      24.932   3.228  51.021  1.00  0.00     0.271 C 
HETATM    5  C4  UNL     1      23.757   2.290  51.144  1.00  0.00     0.241 C 
HETATM    6  O2  UNL     1      23.461   1.592  52.145  1.00  0.00    -0.271 OA
HETATM    7  N1  UNL     1      22.790   2.078  50.098  1.00  0.00    -0.359 N 
HETATM    8  C5  UNL     1      21.755   1.153  50.495  1.00  0.00     0.122 C 
HETATM    9  C6  UNL     1      20.698   0.950  49.476  1.00  0.00     0.020 C 
HETATM   10  C7  UNL     1      19.745   2.023  49.159  1.00  0.00     0.002 C 
HETATM   11  C8  UNL     1      20.146   3.346  48.676  1.00  0.00     0.000 C 
HETATM   12  C9  UNL     1      20.735   4.353  49.576  1.00  0.00     0.004 C 
HETATM   13  C10 UNL     1      21.166   5.619  48.836  1.00  0.00     0.034 C 
HETATM   14  C11 UNL     1      21.871   6.550  49.748  1.00  0.00    -0.070 C 
HETATM   15  C12 UNL     1      22.287   6.513  51.028  1.00  0.00     0.040 C 
HETATM   16  C13 UNL     1      23.755   6.669  51.106  1.00  0.00     0.080 C 
HETATM   17  C14 UNL     1      24.458   6.818  49.999  1.00  0.00     0.054 C 
HETATM   18  C15 UNL     1      23.752   7.950  49.363  1.00  0.00     0.166 C 
HETATM   19  O4  UNL     1      24.083   9.078  48.890  1.00  0.00    -0.292 OA
HETATM   20  C16 UNL     1      22.261   7.883  49.162  1.00  0.00     0.118 C 
HETATM   21  C17 UNL     1      25.620   6.132  49.443  1.00  0.00     0.009 C 
HETATM   22  H7  UNL     1      23.006   2.635  49.210  1.00  0.00     0.162 HD
ENDROOT
BRANCH  21  23
HETATM   23  C18 UNL     1      26.287   6.922  48.591  1.00  0.00     0.145 C 
BRANCH  23  24
HETATM   24  O5  UNL     1      27.191   7.787  48.115  1.00  0.00    -0.358 OA
BRANCH  24  25
HETATM   25  C19 UNL     1      28.271   7.580  47.260  1.00  0.00     0.213 C 
BRANCH  25  26
HETATM   26  C20 UNL     1      29.544   7.445  48.062  1.00  0.00    -0.034 A 
HETATM   27  C21 UNL     1      30.119   6.184  48.154  1.00  0.00     0.009 A 
HETATM   28  C22 UNL     1      31.302   6.023  48.887  1.00  0.00     0.001 A 
HETATM   29  C23 UNL     1      31.831   7.132  49.478  1.00  0.00     0.000 A 
HETATM   30  C24 UNL     1      31.264   8.385  49.391  1.00  0.00     0.001 A 
HETATM   31  C25 UNL     1      30.093   8.556  48.669  1.00  0.00     0.009 A 
ENDBRANCH  25  26
ENDBRANCH  24  25
ENDBRANCH  23  24
ENDBRANCH  21  23
BRANCH  16  32
HETATM   32  O3  UNL     1      24.357   6.652  52.371  1.00  0.00    -0.360 OA
HETATM   33  H21 UNL     1      23.837   6.434  53.212  1.00  0.00     0.217 HD
ENDBRANCH  16  32
TORSDOF 5
ENDMDL
MODEL 6
REMARK VINA RESULT:      -8.1      3.664      5.418
REMARK  5 active torsions:
REMARK  status: ('A' for Active; 'I' for Inactive)
REMARK    1  A    between atoms: C13_16  and  O3_17 
REMARK    2  A    between atoms: C17_22  and  C18_23 
REMARK    3  A    between atoms: C18_23  and  O5_24 
REMARK    4  A    between atoms: O5_24  and  C19_25 
REMARK    5  A    between atoms: C19_25  and  C20_26 
ROOT
HETATM    1  C1  UNL     1      20.622   4.112  50.538  1.00  0.00     0.045 C 
HETATM    2  C2  UNL     1      21.726   5.178  50.652  1.00  0.00     0.153 C 
HETATM    3  O1  UNL     1      21.537   6.187  49.703  1.00  0.00    -0.372 OA
HETATM    4  C3  UNL     1      21.125   7.316  50.416  1.00  0.00     0.271 C 
HETATM    5  C4  UNL     1      21.002   8.520  49.518  1.00  0.00     0.241 C 
HETATM    6  O2  UNL     1      20.649   9.676  49.861  1.00  0.00    -0.271 OA
HETATM    7  N1  UNL     1      21.291   8.497  48.106  1.00  0.00    -0.359 N 
HETATM    8  C5  UNL     1      21.118   9.795  47.497  1.00  0.00     0.122 C 
HETATM    9  C6  UNL     1      21.467   9.840  46.056  1.00  0.00     0.020 C 
HETATM   10  C7  UNL     1      22.864   9.717  45.618  1.00  0.00     0.002 C 
HETATM   11  C8  UNL     1      23.711   8.563  45.926  1.00  0.00     0.000 C 
HETATM   12  C9  UNL     1      24.283   8.358  47.268  1.00  0.00     0.004 C 
HETATM   13  C10 UNL     1      25.049   7.041  47.384  1.00  0.00     0.034 C 
HETATM   14  C11 UNL     1      25.494   6.809  48.778  1.00  0.00    -0.070 C 
HETATM   15  C12 UNL     1      25.316   7.428  49.961  1.00  0.00     0.040 C 
HETATM   16  C13 UNL     1      24.641   6.532  50.924  1.00  0.00     0.080 C 
HETATM   17  C14 UNL     1      24.305   5.309  50.558  1.00  0.00     0.054 C 
HETATM   18  C15 UNL     1      25.595   4.801  50.045  1.00  0.00     0.166 C 
HETATM   19  O4  UNL     1      26.320   3.783  50.256  1.00  0.00    -0.292 OA
HETATM   20  C16 UNL     1      26.348   5.588  49.006  1.00  0.00     0.118 C 
HETATM   21  C17 UNL     1      23.058   4.553  50.595  1.00  0.00     0.009 C 
HETATM   22  H7  UNL     1      21.578   7.528  47.754  1.00  0.00     0.162 HD
ENDROOT
BRANCH  21  23
HETATM   23  C18 UNL     1      23.292   3.235  50.609  1.00  0.00     0.145 C 
BRANCH  23  24
HETATM   24  O5  UNL     1      23.278   1.953  50.996  1.00  0.00    -0.358 OA
BRANCH  24  25
HETATM   25  C19 UNL     1      24.032   1.298  51.967  1.00  0.00     0.213 C 
BRANCH  25  26
HETATM   26  C20 UNL     1      23.117   0.610  52.953  1.00  0.00    -0.034 A 
HETATM   27  C21 UNL     1      21.804   1.057  53.038  1.00  0.00     0.009 A 
HETATM   28  C22 UNL     1      20.928   0.439  53.939  1.00  0.00     0.001 A 
HETATM   29  C23 UNL     1      21.421  -0.584  54.694  1.00  0.00     0.000 A 
HETATM   30  C24 UNL     1      22.721  -1.031  54.614  1.00  0.00     0.001 A 
HETATM   31  C25 UNL     1      23.598  -0.427  53.726  1.00  0.00     0.009 A 
ENDBRANCH  25  26
ENDBRANCH  24  25
ENDBRANCH  23  24
ENDBRANCH  21  23
BRANCH  16  32
HETATM   32  O3  UNL     1      24.377   7.021  52.211  1.00  0.00    -0.360 OA
HETATM   33  H21 UNL     1      25.053   6.951  52.962  1.00  0.00     0.217 HD
ENDBRANCH  16  32
TORSDOF 5
ENDMDL
MODEL 7
REMARK VINA RESULT:      -8.0      1.916      2.833
REMARK  5 active torsions:
REMARK  status: ('A' for Active; 'I' for Inactive)
REMARK    1  A    between atoms: C13_16  and  O3_17 
REMARK    2  A    between atoms: C17_22  and  C18_23 
REMARK    3  A    between atoms: C18_23  and  O5_24 
REMARK    4  A    between atoms: O5_24  and  C19_25 
REMARK    5  A    between atoms: C19_25  and  C20_26 
ROOT
HETATM    1  C1  UNL     1      23.273   1.302  51.705  1.00  0.00     0.045 C 
HETATM    2  C2  UNL     1      22.776   2.738  51.461  1.00  0.00     0.153 C 
HETATM    3  O1  UNL     1      21.498   2.727  50.892  1.00  0.00    -0.372 OA
HETATM    4  C3  UNL     1      20.627   3.173  51.889  1.00  0.00     0.271 C 
HETATM    5  C4  UNL     1      19.222   3.325  51.365  1.00  0.00     0.241 C 
HETATM    6  O2  UNL     1      18.217   3.703  52.017  1.00  0.00    -0.271 OA
HETATM    7  N1  UNL     1      18.844   3.055  50.001  1.00  0.00    -0.359 N 
HETATM    8  C5  UNL     1      17.443   3.312  49.765  1.00  0.00     0.122 C 
HETATM    9  C6  UNL     1      17.017   3.112  48.360  1.00  0.00     0.020 C 
HETATM   10  C7  UNL     1      17.458   4.034  47.303  1.00  0.00     0.002 C 
HETATM   11  C8  UNL     1      18.864   4.286  46.983  1.00  0.00     0.000 C 
HETATM   12  C9  UNL     1      19.717   5.122  47.847  1.00  0.00     0.004 C 
HETATM   13  C10 UNL     1      21.169   5.165  47.372  1.00  0.00     0.034 C 
HETATM   14  C11 UNL     1      22.019   5.903  48.335  1.00  0.00    -0.070 C 
HETATM   15  C12 UNL     1      21.837   6.464  49.546  1.00  0.00     0.040 C 
HETATM   16  C13 UNL     1      22.718   5.832  50.551  1.00  0.00     0.080 C 
HETATM   17  C14 UNL     1      23.532   4.857  50.191  1.00  0.00     0.054 C 
HETATM   18  C15 UNL     1      24.243   5.484  49.057  1.00  0.00     0.166 C 
HETATM   19  O4  UNL     1      25.455   5.667  48.733  1.00  0.00    -0.292 OA
HETATM   20  C16 UNL     1      23.457   6.102  47.931  1.00  0.00     0.118 C 
HETATM   21  C17 UNL     1      23.764   3.504  50.685  1.00  0.00     0.009 C 
HETATM   22  H7  UNL     1      19.660   2.709  49.402  1.00  0.00     0.162 HD
ENDROOT
BRANCH  21  23
HETATM   23  C18 UNL     1      24.994   3.079  50.370  1.00  0.00     0.145 C 
BRANCH  23  24
HETATM   24  O5  UNL     1      26.251   2.637  50.505  1.00  0.00    -0.358 OA
BRANCH  24  25
HETATM   25  C19 UNL     1      27.068   2.577  51.631  1.00  0.00     0.213 C 
BRANCH  25  26
HETATM   26  C20 UNL     1      26.712   1.368  52.463  1.00  0.00    -0.034 A 
HETATM   27  C21 UNL     1      26.756   0.124  51.846  1.00  0.00     0.009 A 
HETATM   28  C22 UNL     1      26.435  -1.020  52.589  1.00  0.00     0.001 A 
HETATM   29  C23 UNL     1      26.093  -0.844  53.897  1.00  0.00     0.000 A 
HETATM   30  C24 UNL     1      26.048   0.387  54.513  1.00  0.00     0.001 A 
HETATM   31  C25 UNL     1      26.363   1.526  53.788  1.00  0.00     0.009 A 
ENDBRANCH  25  26
ENDBRANCH  24  25
ENDBRANCH  23  24
ENDBRANCH  21  23
BRANCH  16  32
HETATM   32  O3  UNL     1      22.656   6.298  51.872  1.00  0.00    -0.360 OA
HETATM   33  H21 UNL     1      22.630   5.667  52.664  1.00  0.00     0.217 HD
ENDBRANCH  16  32
TORSDOF 5
ENDMDL
MODEL 8
REMARK VINA RESULT:      -7.9      2.561      8.585
REMARK  5 active torsions:
REMARK  status: ('A' for Active; 'I' for Inactive)
REMARK    1  A    between atoms: C13_16  and  O3_17 
REMARK    2  A    between atoms: C17_22  and  C18_23 
REMARK    3  A    between atoms: C18_23  and  O5_24 
REMARK    4  A    between atoms: O5_24  and  C19_25 
REMARK    5  A    between atoms: C19_25  and  C20_26 
ROOT
HETATM    1  C1  UNL     1      20.699   1.964  48.215  1.00  0.00     0.045 C 
HETATM    2  C2  UNL     1      20.891   2.125  49.734  1.00  0.00     0.153 C 
HETATM    3  O1  UNL     1      22.220   1.880  50.092  1.00  0.00    -0.372 OA
HETATM    4  C3  UNL     1      22.762   3.120  50.438  1.00  0.00     0.271 C 
HETATM    5  C4  UNL     1      24.168   2.978  50.964  1.00  0.00     0.241 C 
HETATM    6  O2  UNL     1      24.919   3.907  51.352  1.00  0.00    -0.271 OA
HETATM    7  N1  UNL     1      24.847   1.714  51.100  1.00  0.00    -0.359 N 
HETATM    8  C5  UNL     1      26.171   1.867  51.657  1.00  0.00     0.122 C 
HETATM    9  C6  UNL     1      26.888   0.589  51.878  1.00  0.00     0.020 C 
HETATM   10  C7  UNL     1      26.453  -0.343  52.929  1.00  0.00     0.002 C 
HETATM   11  C8  UNL     1      25.113  -0.928  52.989  1.00  0.00     0.000 C 
HETATM   12  C9  UNL     1      23.944  -0.143  53.426  1.00  0.00     0.004 C 
HETATM   13  C10 UNL     1      22.637  -0.927  53.315  1.00  0.00     0.034 C 
HETATM   14  C11 UNL     1      21.475  -0.066  53.636  1.00  0.00    -0.070 C 
HETATM   15  C12 UNL     1      21.292   1.239  53.915  1.00  0.00     0.040 C 
HETATM   16  C13 UNL     1      20.407   1.869  52.913  1.00  0.00     0.080 C 
HETATM   17  C14 UNL     1      19.921   1.147  51.920  1.00  0.00     0.054 C 
HETATM   18  C15 UNL     1      19.311   0.022  52.659  1.00  0.00     0.166 C 
HETATM   19  O4  UNL     1      18.172  -0.535  52.690  1.00  0.00    -0.292 OA
HETATM   20  C16 UNL     1      20.131  -0.748  53.659  1.00  0.00     0.118 C 
HETATM   21  C17 UNL     1      19.917   1.302  50.469  1.00  0.00     0.009 C 
HETATM   22  H7  UNL     1      24.259   0.886  50.764  1.00  0.00     0.162 HD
ENDROOT
BRANCH  21  23
HETATM   23  C18 UNL     1      18.899   0.633  49.914  1.00  0.00     0.145 C 
BRANCH  23  24
HETATM   24  O5  UNL     1      17.650   0.262  49.604  1.00  0.00    -0.358 OA
BRANCH  24  25
HETATM   25  C19 UNL     1      16.549   1.031  49.233  1.00  0.00     0.213 C 
BRANCH  25  26
HETATM   26  C20 UNL     1      16.170   1.965  50.359  1.00  0.00    -0.034 A 
HETATM   27  C21 UNL     1      15.437   1.439  51.415  1.00  0.00     0.009 A 
HETATM   28  C22 UNL     1      15.072   2.276  52.478  1.00  0.00     0.001 A 
HETATM   29  C23 UNL     1      15.462   3.581  52.413  1.00  0.00     0.000 A 
HETATM   30  C24 UNL     1      16.188   4.107  51.368  1.00  0.00     0.001 A 
HETATM   31  C25 UNL     1      16.556   3.289  50.311  1.00  0.00     0.009 A 
ENDBRANCH  25  26
ENDBRANCH  24  25
ENDBRANCH  23  24
ENDBRANCH  21  23
BRANCH  16  32
HETATM   32  O3  UNL     1      20.111   3.232  53.054  1.00  0.00    -0.360 OA
HETATM   33  H21 UNL     1      19.724   3.780  52.295  1.00  0.00     0.217 HD
ENDBRANCH  16  32
TORSDOF 5
ENDMDL
MODEL 9
REMARK VINA RESULT:      -7.8      5.119      7.794
REMARK  5 active torsions:
REMARK  status: ('A' for Active; 'I' for Inactive)
REMARK    1  A    between atoms: C13_16  and  O3_17 
REMARK    2  A    between atoms: C17_22  and  C18_23 
REMARK    3  A    between atoms: C18_23  and  O5_24 
REMARK    4  A    between atoms: O5_24  and  C19_25 
REMARK    5  A    between atoms: C19_25  and  C20_26 
ROOT
HETATM    1  C1  UNL     1      27.538   4.878  48.645  1.00  0.00     0.045 C 
HETATM    2  C2  UNL     1      26.322   5.274  49.500  1.00  0.00     0.153 C 
HETATM    3  O1  UNL     1      25.300   4.329  49.372  1.00  0.00    -0.372 OA
HETATM    4  C3  UNL     1      25.251   3.645  50.589  1.00  0.00     0.271 C 
HETATM    5  C4  UNL     1      24.101   2.670  50.626  1.00  0.00     0.241 C 
HETATM    6  O2  UNL     1      23.797   1.909  51.578  1.00  0.00    -0.271 OA
HETATM    7  N1  UNL     1      23.170   2.491  49.542  1.00  0.00    -0.359 N 
HETATM    8  C5  UNL     1      22.151   1.516  49.857  1.00  0.00     0.122 C 
HETATM    9  C6  UNL     1      21.129   1.342  48.798  1.00  0.00     0.020 C 
HETATM   10  C7  UNL     1      20.155   2.405  48.513  1.00  0.00     0.002 C 
HETATM   11  C8  UNL     1      20.531   3.763  48.115  1.00  0.00     0.000 C 
HETATM   12  C9  UNL     1      21.065   4.734  49.086  1.00  0.00     0.004 C 
HETATM   13  C10 UNL     1      21.480   6.050  48.430  1.00  0.00     0.034 C 
HETATM   14  C11 UNL     1      22.132   6.948  49.412  1.00  0.00    -0.070 C 
HETATM   15  C12 UNL     1      22.514   6.851  50.699  1.00  0.00     0.040 C 
HETATM   16  C13 UNL     1      23.973   7.042  50.828  1.00  0.00     0.080 C 
HETATM   17  C14 UNL     1      24.703   7.272  49.752  1.00  0.00     0.054 C 
HETATM   18  C15 UNL     1      23.982   8.418  49.159  1.00  0.00     0.166 C 
HETATM   19  O4  UNL     1      24.294   9.579  48.759  1.00  0.00    -0.292 OA
HETATM   20  C16 UNL     1      22.500   8.321  48.911  1.00  0.00     0.118 C 
HETATM   21  C17 UNL     1      25.899   6.650  49.194  1.00  0.00     0.009 C 
HETATM   22  H7  UNL     1      23.394   3.102  48.693  1.00  0.00     0.162 HD
ENDROOT
BRANCH  21  23
HETATM   23  C18 UNL     1      26.566   7.504  48.407  1.00  0.00     0.145 C 
BRANCH  23  24
HETATM   24  O5  UNL     1      27.322   8.540  48.022  1.00  0.00    -0.358 OA
BRANCH  24  25
HETATM   25  C19 UNL     1      28.705   8.702  48.049  1.00  0.00     0.213 C 
BRANCH  25  26
HETATM   26  C20 UNL     1      29.050  10.128  48.411  1.00  0.00    -0.034 A 
HETATM   27  C21 UNL     1      30.380  10.421  48.686  1.00  0.00     0.009 A 
HETATM   28  C22 UNL     1      30.736  11.734  49.021  1.00  0.00     0.001 A 
HETATM   29  C23 UNL     1      29.739  12.664  49.061  1.00  0.00     0.000 A 
HETATM   30  C24 UNL     1      28.419  12.378  48.790  1.00  0.00     0.001 A 
HETATM   31  C25 UNL     1      28.055  11.083  48.457  1.00  0.00     0.009 A 
ENDBRANCH  25  26
ENDBRANCH  24  25
ENDBRANCH  23  24
ENDBRANCH  21  23
BRANCH  16  32
HETATM   32  O3  UNL     1      24.541   6.972  52.108  1.00  0.00    -0.360 OA
HETATM   33  H21 UNL     1      24.706   7.798  52.670  1.00  0.00     0.217 HD
ENDBRANCH  16  32
TORSDOF 5
ENDMDL
