MODEL 1
REMARK VINA RESULT:      -9.6      0.000      0.000
REMARK  0 active torsions:
REMARK  status: ('A' for Active; 'I' for Inactive)
ROOT
HETATM    1  C1  UNL     1      22.530  -1.803  55.029  1.00  0.00     0.050 C 
HETATM    2  C2  UNL     1      21.359  -1.130  54.288  1.00  0.00     0.106 A 
HETATM    3  C3  UNL     1      21.706  -0.039  53.691  1.00  0.00     0.062 A 
HETATM    4  C4  UNL     1      23.069  -0.073  53.128  1.00  0.00     0.138 C 
HETATM    5  N1  UNL     1      24.294   0.078  53.764  1.00  0.00    -0.398 N 
HETATM    6  C5  UNL     1      25.197  -0.082  52.553  1.00  0.00     0.079 C 
HETATM    7  C6  UNL     1      26.181   0.572  51.923  1.00  0.00    -0.006 C 
HETATM    8  C7  UNL     1      27.027   1.763  51.911  1.00  0.00     0.055 C 
HETATM    9  C8  UNL     1      26.620   2.878  50.972  1.00  0.00    -0.027 C 
HETATM   10  C9  UNL     1      26.540   3.742  50.049  1.00  0.00    -0.029 C 
HETATM   11  C10 UNL     1      25.832   4.843  49.378  1.00  0.00     0.046 C 
HETATM   12  C11 UNL     1      24.550   5.304  49.986  1.00  0.00     0.120 C 
HETATM   13  N2  UNL     1      23.520   4.335  49.777  1.00  0.00    -0.416 N 
HETATM   14  C12 UNL     1      23.126   4.228  48.431  1.00  0.00     0.143 C 
HETATM   15  C13 UNL     1      22.636   4.116  50.800  1.00  0.00     0.118 C 
HETATM   16  C14 UNL     1      21.428   3.253  50.373  1.00  0.00     0.050 C 
HETATM   17  C15 UNL     1      20.687   3.026  51.673  1.00  0.00     0.132 C 
HETATM   18  C16 UNL     1      19.397   2.445  51.525  1.00  0.00    -0.000 C 
HETATM   19  C17 UNL     1      18.147   2.869  51.460  1.00  0.00    -0.005 C 
HETATM   20  C18 UNL     1      17.014   1.986  51.362  1.00  0.00    -0.010 C 
HETATM   21  C19 UNL     1      16.409   0.786  51.331  1.00  0.00     0.181 C 
HETATM   22  S1  UNL     1      17.314  -0.797  51.519  1.00  0.00    -0.230 SA
HETATM   23  C20 UNL     1      17.851  -1.077  53.313  1.00  0.00     0.097 C 
HETATM   24  C21 UNL     1      19.184  -0.555  53.379  1.00  0.00     0.112 A 
HETATM   25  C22 UNL     1      20.147   0.268  53.137  1.00  0.00     0.091 A 
HETATM   26  C23 UNL     1      21.225   1.098  52.920  1.00  0.00     0.030 A 
HETATM   27  N3  UNL     1      21.591   2.163  52.453  1.00  0.00    -0.288 NA
HETATM   28  O1  UNL     1      20.009  -1.412  54.125  1.00  0.00    -0.360 OA
HETATM   29  H6  UNL     1      25.209   0.182  54.199  1.00  0.00     0.158 HD
ENDROOT
TORSDOF 0
ENDMDL
MODEL 2
REMARK VINA RESULT:      -9.3      3.015      6.767
REMARK  0 active torsions:
REMARK  status: ('A' for Active; 'I' for Inactive)
ROOT
HETATM    1  C1  UNL     1      27.061   1.005  52.357  1.00  0.00     0.050 C 
HETATM    2  C2  UNL     1      26.365   2.041  51.454  1.00  0.00     0.106 A 
HETATM    3  C3  UNL     1      25.130   1.749  51.217  1.00  0.00     0.062 A 
HETATM    4  C4  UNL     1      24.438   1.114  52.354  1.00  0.00     0.138 C 
HETATM    5  N1  UNL     1      24.492  -0.199  52.804  1.00  0.00    -0.398 N 
HETATM    6  C5  UNL     1      23.539  -0.074  53.980  1.00  0.00     0.079 C 
HETATM    7  C6  UNL     1      22.426  -0.647  54.453  1.00  0.00    -0.006 C 
HETATM    8  C7  UNL     1      21.415  -1.682  54.244  1.00  0.00     0.055 C 
HETATM    9  C8  UNL     1      20.103  -1.238  53.636  1.00  0.00    -0.027 C 
HETATM   10  C9  UNL     1      18.893  -0.949  53.396  1.00  0.00    -0.029 C 
HETATM   11  C10 UNL     1      17.848  -0.443  52.493  1.00  0.00     0.046 C 
HETATM   12  C11 UNL     1      18.265  -0.048  51.116  1.00  0.00     0.120 C 
HETATM   13  N2  UNL     1      19.014   1.169  51.150  1.00  0.00    -0.416 N 
HETATM   14  C12 UNL     1      18.237   2.288  51.498  1.00  0.00     0.143 C 
HETATM   15  C13 UNL     1      20.087   1.279  50.306  1.00  0.00     0.118 C 
HETATM   16  C14 UNL     1      20.653   2.715  50.241  1.00  0.00     0.050 C 
HETATM   17  C15 UNL     1      21.891   2.561  49.385  1.00  0.00     0.132 C 
HETATM   18  C16 UNL     1      22.483   3.788  48.975  1.00  0.00    -0.000 C 
HETATM   19  C17 UNL     1      22.447   4.572  47.911  1.00  0.00    -0.005 C 
HETATM   20  C18 UNL     1      23.240   5.766  47.778  1.00  0.00    -0.010 C 
HETATM   21  C19 UNL     1      24.169   6.656  48.167  1.00  0.00     0.181 C 
HETATM   22  S1  UNL     1      25.154   6.470  49.702  1.00  0.00    -0.230 SA
HETATM   23  C20 UNL     1      26.473   5.123  49.517  1.00  0.00     0.097 C 
HETATM   24  C21 UNL     1      25.853   3.935  50.026  1.00  0.00     0.112 A 
HETATM   25  C22 UNL     1      24.902   3.087  50.222  1.00  0.00     0.091 A 
HETATM   26  C23 UNL     1      23.937   2.138  50.479  1.00  0.00     0.030 A 
HETATM   27  N3  UNL     1      22.806   1.764  50.219  1.00  0.00    -0.288 NA
HETATM   28  O1  UNL     1      26.759   3.212  50.819  1.00  0.00    -0.360 OA
HETATM   29  H6  UNL     1      24.512  -1.152  53.161  1.00  0.00     0.158 HD
ENDROOT
TORSDOF 0
ENDMDL
MODEL 3
REMARK VINA RESULT:      -9.2      3.160      6.244
REMARK  0 active torsions:
REMARK  status: ('A' for Active; 'I' for Inactive)
ROOT
HETATM    1  C1  UNL     1      26.943   4.214  49.317  1.00  0.00     0.050 C 
HETATM    2  C2  UNL     1      25.414   4.375  49.210  1.00  0.00     0.106 A 
HETATM    3  C3  UNL     1      24.769   3.432  49.811  1.00  0.00     0.062 A 
HETATM    4  C4  UNL     1      25.420   2.957  51.047  1.00  0.00     0.138 C 
HETATM    5  N1  UNL     1      26.498   2.097  51.206  1.00  0.00    -0.398 N 
HETATM    6  C5  UNL     1      26.569   2.102  52.724  1.00  0.00     0.079 C 
HETATM    7  C6  UNL     1      26.567   1.237  53.746  1.00  0.00    -0.006 C 
HETATM    8  C7  UNL     1      26.510  -0.168  54.141  1.00  0.00     0.055 C 
HETATM    9  C8  UNL     1      25.165  -0.693  54.594  1.00  0.00    -0.027 C 
HETATM   10  C9  UNL     1      24.181  -1.164  55.239  1.00  0.00    -0.029 C 
HETATM   11  C10 UNL     1      22.778  -1.601  55.304  1.00  0.00     0.046 C 
HETATM   12  C11 UNL     1      21.982  -1.536  54.044  1.00  0.00     0.120 C 
HETATM   13  N2  UNL     1      21.685  -0.179  53.709  1.00  0.00    -0.416 N 
HETATM   14  C12 UNL     1      20.779   0.425  54.599  1.00  0.00     0.143 C 
HETATM   15  C13 UNL     1      21.729   0.174  52.386  1.00  0.00     0.118 C 
HETATM   16  C14 UNL     1      21.142   1.578  52.121  1.00  0.00     0.050 C 
HETATM   17  C15 UNL     1      21.431   1.803  50.653  1.00  0.00     0.132 C 
HETATM   18  C16 UNL     1      20.785   2.939  50.090  1.00  0.00    -0.000 C 
HETATM   19  C17 UNL     1      19.683   3.184  49.403  1.00  0.00    -0.005 C 
HETATM   20  C18 UNL     1      19.327   4.489  48.912  1.00  0.00    -0.010 C 
HETATM   21  C19 UNL     1      19.530   5.799  48.689  1.00  0.00     0.181 C 
HETATM   22  S1  UNL     1      21.070   6.671  49.171  1.00  0.00    -0.230 SA
HETATM   23  C20 UNL     1      22.507   6.219  48.023  1.00  0.00     0.097 C 
HETATM   24  C21 UNL     1      23.170   5.132  48.683  1.00  0.00     0.112 A 
HETATM   25  C22 UNL     1      23.266   4.040  49.361  1.00  0.00     0.091 A 
HETATM   26  C23 UNL     1      23.450   2.882  50.084  1.00  0.00     0.030 A 
HETATM   27  N3  UNL     1      22.898   1.920  50.591  1.00  0.00    -0.288 NA
HETATM   28  O1  UNL     1      24.564   5.290  48.603  1.00  0.00    -0.360 OA
HETATM   29  H6  UNL     1      27.288   1.473  51.357  1.00  0.00     0.158 HD
ENDROOT
TORSDOF 0
ENDMDL
MODEL 4
REMARK VINA RESULT:      -8.9      2.485      4.095
REMARK  0 active torsions:
REMARK  status: ('A' for Active; 'I' for Inactive)
ROOT
HETATM    1  C1  UNL     1      26.336   1.172  52.228  1.00  0.00     0.050 C 
HETATM    2  C2  UNL     1      24.814   1.388  52.123  1.00  0.00     0.106 A 
HETATM    3  C3  UNL     1      24.506   2.561  51.678  1.00  0.00     0.062 A 
HETATM    4  C4  UNL     1      25.439   3.078  50.661  1.00  0.00     0.138 C 
HETATM    5  N1  UNL     1      26.695   3.648  50.820  1.00  0.00    -0.398 N 
HETATM    6  C5  UNL     1      27.010   3.912  49.357  1.00  0.00     0.079 C 
HETATM    7  C6  UNL     1      27.371   4.925  48.560  1.00  0.00    -0.006 C 
HETATM    8  C7  UNL     1      27.697   6.347  48.483  1.00  0.00     0.055 C 
HETATM    9  C8  UNL     1      26.598   7.273  48.009  1.00  0.00    -0.027 C 
HETATM   10  C9  UNL     1      25.865   8.091  47.379  1.00  0.00    -0.029 C 
HETATM   11  C10 UNL     1      24.627   8.876  47.255  1.00  0.00     0.046 C 
HETATM   12  C11 UNL     1      23.641   8.779  48.371  1.00  0.00     0.120 C 
HETATM   13  N2  UNL     1      22.995   7.505  48.360  1.00  0.00    -0.416 N 
HETATM   14  C12 UNL     1      22.134   7.330  47.262  1.00  0.00     0.143 C 
HETATM   15  C13 UNL     1      22.742   6.910  49.567  1.00  0.00     0.118 C 
HETATM   16  C14 UNL     1      21.818   5.677  49.445  1.00  0.00     0.050 C 
HETATM   17  C15 UNL     1      21.804   5.114  50.850  1.00  0.00     0.132 C 
HETATM   18  C16 UNL     1      20.836   4.095  51.069  1.00  0.00    -0.000 C 
HETATM   19  C17 UNL     1      19.609   4.014  51.556  1.00  0.00    -0.005 C 
HETATM   20  C18 UNL     1      18.894   2.774  51.701  1.00  0.00    -0.010 C 
HETATM   21  C19 UNL     1      18.757   1.438  51.648  1.00  0.00     0.181 C 
HETATM   22  S1  UNL     1      20.118   0.310  51.161  1.00  0.00    -0.230 SA
HETATM   23  C20 UNL     1      21.412   0.156  52.535  1.00  0.00     0.097 C 
HETATM   24  C21 UNL     1      22.402   1.142  52.213  1.00  0.00     0.112 A 
HETATM   25  C22 UNL     1      22.851   2.282  51.810  1.00  0.00     0.091 A 
HETATM   26  C23 UNL     1      23.407   3.469  51.388  1.00  0.00     0.030 A 
HETATM   27  N3  UNL     1      23.177   4.618  51.049  1.00  0.00    -0.288 NA
HETATM   28  O1  UNL     1      23.692   0.623  52.412  1.00  0.00    -0.360 OA
HETATM   29  H6  UNL     1      27.620   4.068  50.901  1.00  0.00     0.158 HD
ENDROOT
TORSDOF 0
ENDMDL
MODEL 5
REMARK VINA RESULT:      -8.4      2.613      5.804
REMARK  0 active torsions:
REMARK  status: ('A' for Active; 'I' for Inactive)
ROOT
HETATM    1  C1  UNL     1      17.889   2.049  51.565  1.00  0.00     0.050 C 
HETATM    2  C2  UNL     1      18.913   2.838  50.727  1.00  0.00     0.106 A 
HETATM    3  C3  UNL     1      20.104   2.795  51.222  1.00  0.00     0.062 A 
HETATM    4  C4  UNL     1      20.441   1.507  51.856  1.00  0.00     0.138 C 
HETATM    5  N1  UNL     1      20.082   1.011  53.102  1.00  0.00    -0.398 N 
HETATM    6  C5  UNL     1      20.790  -0.331  53.024  1.00  0.00     0.079 C 
HETATM    7  C6  UNL     1      21.676  -1.056  53.717  1.00  0.00    -0.006 C 
HETATM    8  C7  UNL     1      22.522  -1.118  54.907  1.00  0.00     0.055 C 
HETATM    9  C8  UNL     1      23.984  -0.776  54.721  1.00  0.00    -0.027 C 
HETATM   10  C9  UNL     1      25.249  -0.780  54.639  1.00  0.00    -0.029 C 
HETATM   11  C10 UNL     1      26.522  -0.092  54.376  1.00  0.00     0.046 C 
HETATM   12  C11 UNL     1      26.457   1.360  54.040  1.00  0.00     0.120 C 
HETATM   13  N2  UNL     1      25.929   1.547  52.725  1.00  0.00    -0.416 N 
HETATM   14  C12 UNL     1      26.796   1.102  51.711  1.00  0.00     0.143 C 
HETATM   15  C13 UNL     1      25.079   2.602  52.525  1.00  0.00     0.118 C 
HETATM   16  C14 UNL     1      24.782   2.858  51.031  1.00  0.00     0.050 C 
HETATM   17  C15 UNL     1      23.731   3.946  51.067  1.00  0.00     0.132 C 
HETATM   18  C16 UNL     1      23.444   4.534  49.804  1.00  0.00    -0.000 C 
HETATM   19  C17 UNL     1      23.821   5.606  49.128  1.00  0.00    -0.005 C 
HETATM   20  C18 UNL     1      23.279   5.964  47.844  1.00  0.00    -0.010 C 
HETATM   21  C19 UNL     1      22.452   5.825  46.793  1.00  0.00     0.181 C 
HETATM   22  S1  UNL     1      21.164   4.523  46.697  1.00  0.00    -0.230 SA
HETATM   23  C20 UNL     1      19.704   4.911  47.839  1.00  0.00     0.097 C 
HETATM   24  C21 UNL     1      20.005   4.222  49.060  1.00  0.00     0.112 A 
HETATM   25  C22 UNL     1      20.744   3.788  50.023  1.00  0.00     0.091 A 
HETATM   26  C23 UNL     1      21.467   3.285  51.082  1.00  0.00     0.030 A 
HETATM   27  N3  UNL     1      22.549   3.282  51.644  1.00  0.00    -0.288 NA
HETATM   28  O1  UNL     1      18.852   3.601  49.568  1.00  0.00    -0.360 OA
HETATM   29  H6  UNL     1      19.834   0.617  54.008  1.00  0.00     0.158 HD
ENDROOT
TORSDOF 0
ENDMDL
MODEL 6
REMARK VINA RESULT:      -8.3      3.037      7.160
REMARK  0 active torsions:
REMARK  status: ('A' for Active; 'I' for Inactive)
ROOT
HETATM    1  C1  UNL     1      26.265   4.985  49.120  1.00  0.00     0.050 C 
HETATM    2  C2  UNL     1      26.026   3.827  50.108  1.00  0.00     0.106 A 
HETATM    3  C3  UNL     1      24.774   3.634  50.359  1.00  0.00     0.062 A 
HETATM    4  C4  UNL     1      23.891   3.868  49.201  1.00  0.00     0.138 C 
HETATM    5  N1  UNL     1      23.431   5.063  48.664  1.00  0.00    -0.398 N 
HETATM    6  C5  UNL     1      22.602   4.494  47.525  1.00  0.00     0.079 C 
HETATM    7  C6  UNL     1      21.353   4.555  47.046  1.00  0.00    -0.006 C 
HETATM    8  C7  UNL     1      20.020   5.129  47.214  1.00  0.00     0.055 C 
HETATM    9  C8  UNL     1      18.983   4.256  47.885  1.00  0.00    -0.027 C 
HETATM   10  C9  UNL     1      17.981   3.538  48.177  1.00  0.00    -0.029 C 
HETATM   11  C10 UNL     1      17.214   2.732  49.140  1.00  0.00     0.046 C 
HETATM   12  C11 UNL     1      17.752   2.629  50.527  1.00  0.00     0.120 C 
HETATM   13  N2  UNL     1      18.915   1.799  50.554  1.00  0.00    -0.416 N 
HETATM   14  C12 UNL     1      18.634   0.444  50.302  1.00  0.00     0.143 C 
HETATM   15  C13 UNL     1      19.945   2.174  51.374  1.00  0.00     0.118 C 
HETATM   16  C14 UNL     1      21.026   1.079  51.517  1.00  0.00     0.050 C 
HETATM   17  C15 UNL     1      22.106   1.762  52.328  1.00  0.00     0.132 C 
HETATM   18  C16 UNL     1      23.128   0.893  52.802  1.00  0.00    -0.000 C 
HETATM   19  C17 UNL     1      23.399   0.235  53.916  1.00  0.00    -0.005 C 
HETATM   20  C18 UNL     1      24.593  -0.545  54.106  1.00  0.00    -0.010 C 
HETATM   21  C19 UNL     1      25.796  -1.030  53.751  1.00  0.00     0.181 C 
HETATM   22  S1  UNL     1      26.632  -0.586  52.181  1.00  0.00    -0.230 SA
HETATM   23  C20 UNL     1      27.324   1.176  52.241  1.00  0.00     0.097 C 
HETATM   24  C21 UNL     1      26.290   1.990  51.671  1.00  0.00     0.112 A 
HETATM   25  C22 UNL     1      25.084   2.388  51.446  1.00  0.00     0.091 A 
HETATM   26  C23 UNL     1      23.827   2.867  51.153  1.00  0.00     0.030 A 
HETATM   27  N3  UNL     1      22.639   2.790  51.418  1.00  0.00    -0.288 NA
HETATM   28  O1  UNL     1      26.844   2.950  50.808  1.00  0.00    -0.360 OA
HETATM   29  H6  UNL     1      23.079   5.921  48.245  1.00  0.00     0.158 HD
ENDROOT
TORSDOF 0
ENDMDL
MODEL 7
REMARK VINA RESULT:      -8.2      7.121     11.369
REMARK  0 active torsions:
REMARK  status: ('A' for Active; 'I' for Inactive)
ROOT
HETATM    1  C1  UNL     1      26.245  11.472  46.766  1.00  0.00     0.050 C 
HETATM    2  C2  UNL     1      26.117  10.071  47.394  1.00  0.00     0.106 A 
HETATM    3  C3  UNL     1      27.201   9.376  47.292  1.00  0.00     0.062 A 
HETATM    4  C4  UNL     1      28.435  10.175  47.409  1.00  0.00     0.138 C 
HETATM    5  N1  UNL     1      29.059  10.985  46.470  1.00  0.00    -0.398 N 
HETATM    6  C5  UNL     1      30.233  11.449  47.316  1.00  0.00     0.079 C 
HETATM    7  C6  UNL     1      31.570  11.483  47.270  1.00  0.00    -0.006 C 
HETATM    8  C7  UNL     1      32.762  11.154  46.493  1.00  0.00     0.055 C 
HETATM    9  C8  UNL     1      33.494   9.886  46.873  1.00  0.00    -0.027 C 
HETATM   10  C9  UNL     1      34.328   9.016  47.267  1.00  0.00    -0.029 C 
HETATM   11  C10 UNL     1      34.705   7.615  47.510  1.00  0.00     0.046 C 
HETATM   12  C11 UNL     1      33.715   6.565  47.134  1.00  0.00     0.120 C 
HETATM   13  N2  UNL     1      32.612   6.567  48.043  1.00  0.00    -0.416 N 
HETATM   14  C12 UNL     1      32.957   6.124  49.332  1.00  0.00     0.143 C 
HETATM   15  C13 UNL     1      31.361   6.357  47.527  1.00  0.00     0.118 C 
HETATM   16  C14 UNL     1      30.294   6.122  48.619  1.00  0.00     0.050 C 
HETATM   17  C15 UNL     1      29.001   6.065  47.834  1.00  0.00     0.132 C 
HETATM   18  C16 UNL     1      27.874   5.625  48.582  1.00  0.00    -0.000 C 
HETATM   19  C17 UNL     1      27.227   4.489  48.780  1.00  0.00    -0.005 C 
HETATM   20  C18 UNL     1      26.038   4.383  49.584  1.00  0.00    -0.010 C 
HETATM   21  C19 UNL     1      25.034   4.866  50.337  1.00  0.00     0.181 C 
HETATM   22  S1  UNL     1      24.804   6.654  50.672  1.00  0.00    -0.230 SA
HETATM   23  C20 UNL     1      24.143   7.563  49.147  1.00  0.00     0.097 C 
HETATM   24  C21 UNL     1      25.314   8.057  48.484  1.00  0.00     0.112 A 
HETATM   25  C22 UNL     1      26.524   8.029  48.040  1.00  0.00     0.091 A 
HETATM   26  C23 UNL     1      27.807   8.077  47.540  1.00  0.00     0.030 A 
HETATM   27  N3  UNL     1      28.826   7.439  47.335  1.00  0.00    -0.288 NA
HETATM   28  O1  UNL     1      25.102   9.370  48.032  1.00  0.00    -0.360 OA
HETATM   29  H6  UNL     1      29.540  11.588  45.805  1.00  0.00     0.158 HD
ENDROOT
TORSDOF 0
ENDMDL
MODEL 8
REMARK VINA RESULT:      -8.0      2.288      5.528
REMARK  0 active torsions:
REMARK  status: ('A' for Active; 'I' for Inactive)
ROOT
HETATM    1  C1  UNL     1      17.870  -0.787  52.715  1.00  0.00     0.050 C 
HETATM    2  C2  UNL     1      19.382  -0.760  53.009  1.00  0.00     0.106 A 
HETATM    3  C3  UNL     1      20.012   0.121  52.307  1.00  0.00     0.062 A 
HETATM    4  C4  UNL     1      19.241   1.355  52.066  1.00  0.00     0.138 C 
HETATM    5  N1  UNL     1      18.221   1.600  51.157  1.00  0.00    -0.398 N 
HETATM    6  C5  UNL     1      17.949   3.053  51.508  1.00  0.00     0.079 C 
HETATM    7  C6  UNL     1      17.881   4.249  50.910  1.00  0.00    -0.006 C 
HETATM    8  C7  UNL     1      17.994   4.979  49.650  1.00  0.00     0.055 C 
HETATM    9  C8  UNL     1      19.302   5.694  49.393  1.00  0.00    -0.027 C 
HETATM   10  C9  UNL     1      20.225   6.539  49.193  1.00  0.00    -0.029 C 
HETATM   11  C10 UNL     1      21.636   6.864  48.936  1.00  0.00     0.046 C 
HETATM   12  C11 UNL     1      22.586   5.722  48.790  1.00  0.00     0.120 C 
HETATM   13  N2  UNL     1      22.820   5.100  50.055  1.00  0.00    -0.416 N 
HETATM   14  C12 UNL     1      23.549   5.910  50.944  1.00  0.00     0.143 C 
HETATM   15  C13 UNL     1      22.924   3.735  50.084  1.00  0.00     0.118 C 
HETATM   16  C14 UNL     1      23.431   3.201  51.442  1.00  0.00     0.050 C 
HETATM   17  C15 UNL     1      23.324   1.700  51.286  1.00  0.00     0.132 C 
HETATM   18  C16 UNL     1      23.949   0.951  52.322  1.00  0.00    -0.000 C 
HETATM   19  C17 UNL     1      25.111   0.352  52.516  1.00  0.00    -0.005 C 
HETATM   20  C18 UNL     1      25.427  -0.401  53.702  1.00  0.00    -0.010 C 
HETATM   21  C19 UNL     1      25.155  -0.959  54.894  1.00  0.00     0.181 C 
HETATM   22  S1  UNL     1      23.502  -0.879  55.684  1.00  0.00    -0.230 SA
HETATM   23  C20 UNL     1      22.270  -2.033  54.826  1.00  0.00     0.097 C 
HETATM   24  C21 UNL     1      21.611  -1.205  53.858  1.00  0.00     0.112 A 
HETATM   25  C22 UNL     1      21.510  -0.295  52.950  1.00  0.00     0.091 A 
HETATM   26  C23 UNL     1      21.322   0.664  51.980  1.00  0.00     0.030 A 
HETATM   27  N3  UNL     1      21.874   1.449  51.228  1.00  0.00    -0.288 NA
HETATM   28  O1  UNL     1      20.232  -1.474  53.843  1.00  0.00    -0.360 OA
HETATM   29  H6  UNL     1      17.468   1.811  50.504  1.00  0.00     0.158 HD
ENDROOT
TORSDOF 0
ENDMDL
MODEL 9
REMARK VINA RESULT:      -7.9      2.460      5.451
REMARK  0 active torsions:
REMARK  status: ('A' for Active; 'I' for Inactive)
ROOT
HETATM    1  C1  UNL     1      18.344   5.408  49.241  1.00  0.00     0.050 C 
HETATM    2  C2  UNL     1      17.650   4.203  49.903  1.00  0.00     0.106 A 
HETATM    3  C3  UNL     1      18.486   3.312  50.323  1.00  0.00     0.062 A 
HETATM    4  C4  UNL     1      19.743   3.875  50.849  1.00  0.00     0.138 C 
HETATM    5  N1  UNL     1      20.852   4.358  50.167  1.00  0.00    -0.398 N 
HETATM    6  C5  UNL     1      21.701   4.750  51.364  1.00  0.00     0.079 C 
HETATM    7  C6  UNL     1      22.922   4.525  51.864  1.00  0.00    -0.006 C 
HETATM    8  C7  UNL     1      24.197   3.837  51.677  1.00  0.00     0.055 C 
HETATM    9  C8  UNL     1      24.397   2.552  52.450  1.00  0.00    -0.027 C 
HETATM   10  C9  UNL     1      24.781   1.635  53.236  1.00  0.00    -0.029 C 
HETATM   11  C10 UNL     1      24.681   0.262  53.754  1.00  0.00     0.046 C 
HETATM   12  C11 UNL     1      23.676  -0.638  53.118  1.00  0.00     0.120 C 
HETATM   13  N2  UNL     1      22.352  -0.256  53.494  1.00  0.00    -0.416 N 
HETATM   14  C12 UNL     1      22.070  -0.499  54.851  1.00  0.00     0.143 C 
HETATM   15  C13 UNL     1      21.373  -0.326  52.539  1.00  0.00     0.118 C 
HETATM   16  C14 UNL     1      19.954  -0.143  53.121  1.00  0.00     0.050 C 
HETATM   17  C15 UNL     1      19.076  -0.109  51.889  1.00  0.00     0.132 C 
HETATM   18  C16 UNL     1      17.680  -0.179  52.154  1.00  0.00    -0.000 C 
HETATM   19  C17 UNL     1      16.747  -1.115  52.187  1.00  0.00    -0.005 C 
HETATM   20  C18 UNL     1      15.358  -0.841  52.445  1.00  0.00    -0.010 C 
HETATM   21  C19 UNL     1      14.299  -0.044  52.670  1.00  0.00     0.181 C 
HETATM   22  S1  UNL     1      14.409   1.786  52.696  1.00  0.00    -0.230 SA
HETATM   23  C20 UNL     1      14.611   2.491  50.950  1.00  0.00     0.097 C 
HETATM   24  C21 UNL     1      16.028   2.622  50.773  1.00  0.00     0.112 A 
HETATM   25  C22 UNL     1      17.269   2.285  50.865  1.00  0.00     0.091 A 
HETATM   26  C23 UNL     1      18.614   1.996  50.928  1.00  0.00     0.030 A 
HETATM   27  N3  UNL     1      19.444   1.152  51.222  1.00  0.00    -0.288 NA
HETATM   28  O1  UNL     1      16.331   3.839  50.142  1.00  0.00    -0.360 OA
HETATM   29  H6  UNL     1      21.679   4.722  49.697  1.00  0.00     0.158 HD
ENDROOT
TORSDOF 0
ENDMDL
