MODEL 1
REMARK VINA RESULT:      -7.0      0.000      0.000
REMARK  11 active torsions:
REMARK  status: ('A' for Active; 'I' for Inactive)
REMARK    1  A    between atoms: N1_7  and  C6_8 
REMARK    2  A    between atoms: C6_8  and  C7_9 
REMARK    3  A    between atoms: C7_9  and  C8_10 
REMARK    4  A    between atoms: C8_10  and  O2_11 
REMARK    5  A    between atoms: O2_11  and  C9_12 
REMARK    6  A    between atoms: N3_19  and  C15_20 
REMARK    7  A    between atoms: C15_20  and  C16_21 
REMARK    8  A    between atoms: C15_20  and  C18_24 
REMARK    9  A    between atoms: C16_21  and  C17_22 
REMARK   10  A    between atoms: C18_24  and  C19_25 
REMARK   11  A    between atoms: C21_28  and  O3_29 
ROOT
HETATM    1  C9  UNL     1      25.585   0.353  52.714  1.00  0.00     0.100 A 
HETATM    2  C10 UNL     1      24.289   0.609  52.606  1.00  0.00     0.053 A 
HETATM    3  C11 UNL     1      23.248   0.119  53.534  1.00  0.00     0.287 A 
HETATM    4  C12 UNL     1      23.837  -0.707  54.620  1.00  0.00     0.012 A 
HETATM    5  C13 UNL     1      23.033  -1.205  55.516  1.00  0.00     0.090 C 
HETATM    6  N2  UNL     1      21.894  -1.582  55.042  1.00  0.00    -0.257 NA
HETATM    7  C14 UNL     1      21.751  -1.757  53.607  1.00  0.00     0.423 C 
HETATM    8  N3  UNL     1      22.159  -0.569  52.868  1.00  0.00     0.129 N 
HETATM    9  C20 UNL     1      25.270  -0.963  54.699  1.00  0.00     0.051 A 
HETATM   10  C21 UNL     1      26.105  -0.465  53.802  1.00  0.00     0.102 A 
ENDROOT
BRANCH   1  11
HETATM   11  O2  UNL     1      26.254   0.973  51.673  1.00  0.00    -0.348 OA
BRANCH  11  12
HETATM   12  C8  UNL     1      26.670   2.300  51.627  1.00  0.00     0.177 C 
BRANCH  12  13
HETATM   13  C7  UNL     1      26.432   2.949  50.279  1.00  0.00     0.046 C 
BRANCH  13  14
HETATM   14  C6  UNL     1      25.557   4.139  50.441  1.00  0.00     0.125 C 
BRANCH  14  15
HETATM   15  N1  UNL     1      24.165   3.918  50.241  1.00  0.00    -0.381 N 
HETATM   16  C2  UNL     1      23.124   4.334  51.157  1.00  0.00     0.021 C 
HETATM   17  C1  UNL     1      23.504   4.644  52.387  1.00  0.00     0.040 C 
HETATM   18  C3  UNL     1      21.781   4.320  50.469  1.00  0.00     0.223 C 
HETATM   19  O1  UNL     1      21.991   4.935  49.239  1.00  0.00    -0.384 OA
HETATM   20  C4  UNL     1      22.746   4.183  48.362  1.00  0.00     0.187 C 
HETATM   21  C5  UNL     1      23.694   3.235  49.054  1.00  0.00     0.149 C 
ENDBRANCH  14  15
ENDBRANCH  13  14
ENDBRANCH  12  13
ENDBRANCH  11  12
ENDBRANCH   1  11
BRANCH  10  22
HETATM   22  O3  UNL     1      27.481  -0.631  53.761  1.00  0.00    -0.353 OA
HETATM   23  C22 UNL     1      28.283   0.071  54.687  1.00  0.00     0.210 C 
ENDBRANCH  10  22
BRANCH   8  24
HETATM   24  C15 UNL     1      21.000   0.276  52.703  1.00  0.00     0.257 C 
BRANCH  24  25
HETATM   25  C16 UNL     1      20.991   0.983  51.403  1.00  0.00     0.038 C 
BRANCH  25  26
HETATM   26  C17 UNL     1      21.364   0.579  50.193  1.00  0.00     0.186 C 
HETATM   27  F1  UNL     1      21.344   0.726  48.850  1.00  0.00    -0.220 F 
ENDBRANCH  25  26
ENDBRANCH  24  25
BRANCH  24  28
HETATM   28  C18 UNL     1      19.747  -0.439  52.996  1.00  0.00     0.093 C 
BRANCH  28  29
HETATM   29  C19 UNL     1      18.519  -0.404  52.441  1.00  0.00     0.204 C 
HETATM   30 CL1  UNL     1      17.177  -0.519  51.290  1.00  0.00    -0.261 Cl
ENDBRANCH  28  29
ENDBRANCH  24  28
ENDBRANCH   8  24
TORSDOF 11
ENDMDL
MODEL 2
REMARK VINA RESULT:      -7.0      3.474      6.719
REMARK  11 active torsions:
REMARK  status: ('A' for Active; 'I' for Inactive)
REMARK    1  A    between atoms: N1_7  and  C6_8 
REMARK    2  A    between atoms: C6_8  and  C7_9 
REMARK    3  A    between atoms: C7_9  and  C8_10 
REMARK    4  A    between atoms: C8_10  and  O2_11 
REMARK    5  A    between atoms: O2_11  and  C9_12 
REMARK    6  A    between atoms: N3_19  and  C15_20 
REMARK    7  A    between atoms: C15_20  and  C16_21 
REMARK    8  A    between atoms: C15_20  and  C18_24 
REMARK    9  A    between atoms: C16_21  and  C17_22 
REMARK   10  A    between atoms: C18_24  and  C19_25 
REMARK   11  A    between atoms: C21_28  and  O3_29 
ROOT
HETATM    1  C9  UNL     1      22.304   0.723  52.664  1.00  0.00     0.100 A 
HETATM    2  C10 UNL     1      22.910   1.723  52.041  1.00  0.00     0.053 A 
HETATM    3  C11 UNL     1      22.245   2.960  51.576  1.00  0.00     0.287 A 
HETATM    4  C12 UNL     1      20.795   2.947  51.899  1.00  0.00     0.012 A 
HETATM    5  C13 UNL     1      20.080   3.979  51.549  1.00  0.00     0.090 C 
HETATM    6  N2  UNL     1      20.427   4.495  50.419  1.00  0.00    -0.257 NA
HETATM    7  C14 UNL     1      21.267   3.722  49.521  1.00  0.00     0.423 C 
HETATM    8  N3  UNL     1      22.480   3.251  50.176  1.00  0.00     0.129 N 
HETATM    9  C20 UNL     1      20.170   1.824  52.587  1.00  0.00     0.051 A 
HETATM   10  C21 UNL     1      20.876   0.767  52.953  1.00  0.00     0.102 A 
ENDROOT
BRANCH   1  11
HETATM   11  O2  UNL     1      23.235  -0.261  52.946  1.00  0.00    -0.348 OA
BRANCH  11  12
HETATM   12  C8  UNL     1      23.609  -0.713  54.208  1.00  0.00     0.177 C 
BRANCH  12  13
HETATM   13  C7  UNL     1      25.104  -0.651  54.441  1.00  0.00     0.046 C 
BRANCH  13  14
HETATM   14  C6  UNL     1      25.808  -0.481  53.144  1.00  0.00     0.125 C 
BRANCH  14  15
HETATM   15  N1  UNL     1      27.077   0.163  53.205  1.00  0.00    -0.381 N 
HETATM   16  C2  UNL     1      27.290   1.582  53.021  1.00  0.00     0.021 C 
HETATM   17  C1  UNL     1      26.308   2.263  52.449  1.00  0.00     0.040 C 
HETATM   18  C3  UNL     1      28.646   1.983  53.547  1.00  0.00     0.223 C 
HETATM   19  O1  UNL     1      28.760   1.359  54.786  1.00  0.00    -0.384 OA
HETATM   20  C4  UNL     1      28.899  -0.011  54.708  1.00  0.00     0.187 C 
HETATM   21  C5  UNL     1      28.275  -0.604  53.469  1.00  0.00     0.149 C 
ENDBRANCH  14  15
ENDBRANCH  13  14
ENDBRANCH  12  13
ENDBRANCH  11  12
ENDBRANCH   1  11
BRANCH  10  22
HETATM   22  O3  UNL     1      20.409  -0.362  53.609  1.00  0.00    -0.353 OA
HETATM   23  C22 UNL     1      19.112  -0.836  53.316  1.00  0.00     0.210 C 
ENDBRANCH  10  22
BRANCH   8  24
HETATM   24  C15 UNL     1      23.507   4.250  49.991  1.00  0.00     0.257 C 
BRANCH  24  25
HETATM   25  C16 UNL     1      23.758   5.042  51.216  1.00  0.00     0.038 C 
BRANCH  25  26
HETATM   26  C17 UNL     1      23.684   6.351  51.433  1.00  0.00     0.186 C 
HETATM   27  F1  UNL     1      24.218   7.588  51.332  1.00  0.00    -0.220 F 
ENDBRANCH  25  26
ENDBRANCH  24  25
BRANCH  24  28
HETATM   28  C18 UNL     1      24.726   3.685  49.391  1.00  0.00     0.093 C 
BRANCH  28  29
HETATM   29  C19 UNL     1      26.001   4.118  49.323  1.00  0.00     0.204 C 
HETATM   30 CL1  UNL     1      27.580   4.644  48.718  1.00  0.00    -0.261 Cl
ENDBRANCH  28  29
ENDBRANCH  24  28
ENDBRANCH   8  24
TORSDOF 11
ENDMDL
MODEL 3
REMARK VINA RESULT:      -6.9      1.198      1.390
REMARK  11 active torsions:
REMARK  status: ('A' for Active; 'I' for Inactive)
REMARK    1  A    between atoms: N1_7  and  C6_8 
REMARK    2  A    between atoms: C6_8  and  C7_9 
REMARK    3  A    between atoms: C7_9  and  C8_10 
REMARK    4  A    between atoms: C8_10  and  O2_11 
REMARK    5  A    between atoms: O2_11  and  C9_12 
REMARK    6  A    between atoms: N3_19  and  C15_20 
REMARK    7  A    between atoms: C15_20  and  C16_21 
REMARK    8  A    between atoms: C15_20  and  C18_24 
REMARK    9  A    between atoms: C16_21  and  C17_22 
REMARK   10  A    between atoms: C18_24  and  C19_25 
REMARK   11  A    between atoms: C21_28  and  O3_29 
ROOT
HETATM    1  C9  UNL     1      25.482   0.451  52.585  1.00  0.00     0.100 A 
HETATM    2  C10 UNL     1      24.187   0.728  52.562  1.00  0.00     0.053 A 
HETATM    3  C11 UNL     1      23.193   0.215  53.529  1.00  0.00     0.287 A 
HETATM    4  C12 UNL     1      23.831  -0.660  54.546  1.00  0.00     0.012 A 
HETATM    5  C13 UNL     1      23.072  -1.184  55.467  1.00  0.00     0.090 C 
HETATM    6  N2  UNL     1      21.902  -1.526  55.046  1.00  0.00    -0.257 NA
HETATM    7  C14 UNL     1      21.675  -1.642  53.617  1.00  0.00     0.423 C 
HETATM    8  N3  UNL     1      22.057  -0.432  52.902  1.00  0.00     0.129 N 
HETATM    9  C20 UNL     1      25.262  -0.938  54.532  1.00  0.00     0.051 A 
HETATM   10  C21 UNL     1      26.052  -0.415  53.609  1.00  0.00     0.102 A 
ENDROOT
BRANCH   1  11
HETATM   11  O2  UNL     1      26.100   1.103  51.532  1.00  0.00    -0.348 OA
BRANCH  11  12
HETATM   12  C8  UNL     1      26.708   2.355  51.572  1.00  0.00     0.177 C 
BRANCH  12  13
HETATM   13  C7  UNL     1      26.514   3.149  50.297  1.00  0.00     0.046 C 
BRANCH  13  14
HETATM   14  C6  UNL     1      25.063   3.343  50.042  1.00  0.00     0.125 C 
BRANCH  14  15
HETATM   15  N1  UNL     1      24.601   4.689  50.079  1.00  0.00    -0.381 N 
HETATM   16  C2  UNL     1      23.881   5.283  51.186  1.00  0.00     0.021 C 
HETATM   17  C1  UNL     1      23.346   4.449  52.064  1.00  0.00     0.040 C 
HETATM   18  C3  UNL     1      23.906   6.788  51.082  1.00  0.00     0.223 C 
HETATM   19  O1  UNL     1      25.225   7.115  50.780  1.00  0.00    -0.384 OA
HETATM   20  C4  UNL     1      25.609   6.755  49.505  1.00  0.00     0.187 C 
HETATM   21  C5  UNL     1      24.839   5.577  48.961  1.00  0.00     0.149 C 
ENDBRANCH  14  15
ENDBRANCH  13  14
ENDBRANCH  12  13
ENDBRANCH  11  12
ENDBRANCH   1  11
BRANCH  10  22
HETATM   22  O3  UNL     1      27.421  -0.598  53.481  1.00  0.00    -0.353 OA
HETATM   23  C22 UNL     1      28.277  -0.054  54.462  1.00  0.00     0.210 C 
ENDBRANCH  10  22
BRANCH   8  24
HETATM   24  C15 UNL     1      20.904   0.435  52.837  1.00  0.00     0.257 C 
BRANCH  24  25
HETATM   25  C16 UNL     1      20.955   1.367  51.689  1.00  0.00     0.038 C 
BRANCH  25  26
HETATM   26  C17 UNL     1      21.294   1.163  50.420  1.00  0.00     0.186 C 
HETATM   27  F1  UNL     1      22.236   1.097  49.454  1.00  0.00    -0.220 F 
ENDBRANCH  25  26
ENDBRANCH  24  25
BRANCH  24  28
HETATM   28  C18 UNL     1      19.642  -0.317  52.932  1.00  0.00     0.093 C 
BRANCH  28  29
HETATM   29  C19 UNL     1      18.574  -0.425  52.116  1.00  0.00     0.204 C 
HETATM   30 CL1  UNL     1      17.382  -0.130  50.840  1.00  0.00    -0.261 Cl
ENDBRANCH  28  29
ENDBRANCH  24  28
ENDBRANCH   8  24
TORSDOF 11
ENDMDL
MODEL 4
REMARK VINA RESULT:      -6.8      3.263      5.139
REMARK  11 active torsions:
REMARK  status: ('A' for Active; 'I' for Inactive)
REMARK    1  A    between atoms: N1_7  and  C6_8 
REMARK    2  A    between atoms: C6_8  and  C7_9 
REMARK    3  A    between atoms: C7_9  and  C8_10 
REMARK    4  A    between atoms: C8_10  and  O2_11 
REMARK    5  A    between atoms: O2_11  and  C9_12 
REMARK    6  A    between atoms: N3_19  and  C15_20 
REMARK    7  A    between atoms: C15_20  and  C16_21 
REMARK    8  A    between atoms: C15_20  and  C18_24 
REMARK    9  A    between atoms: C16_21  and  C17_22 
REMARK   10  A    between atoms: C18_24  and  C19_25 
REMARK   11  A    between atoms: C21_28  and  O3_29 
ROOT
HETATM    1  C9  UNL     1      22.537   1.082  52.386  1.00  0.00     0.100 A 
HETATM    2  C10 UNL     1      23.832   0.804  52.396  1.00  0.00     0.053 A 
HETATM    3  C11 UNL     1      24.495  -0.114  53.347  1.00  0.00     0.287 A 
HETATM    4  C12 UNL     1      23.519  -0.697  54.304  1.00  0.00     0.012 A 
HETATM    5  C13 UNL     1      23.965  -1.529  55.203  1.00  0.00     0.090 C 
HETATM    6  N2  UNL     1      25.131  -1.225  55.663  1.00  0.00    -0.257 NA
HETATM    7  C14 UNL     1      25.648   0.114  55.440  1.00  0.00     0.423 C 
HETATM    8  N3  UNL     1      25.627   0.481  54.031  1.00  0.00     0.129 N 
HETATM    9  C20 UNL     1      22.102  -0.361  54.256  1.00  0.00     0.051 A 
HETATM   10  C21 UNL     1      21.627   0.479  53.351  1.00  0.00     0.102 A 
ENDROOT
BRANCH   1  11
HETATM   11  O2  UNL     1      22.276   1.975  51.361  1.00  0.00    -0.348 OA
BRANCH  11  12
HETATM   12  C8  UNL     1      22.392   1.730  49.996  1.00  0.00     0.177 C 
BRANCH  12  13
HETATM   13  C7  UNL     1      23.144   2.819  49.261  1.00  0.00     0.046 C 
BRANCH  13  14
HETATM   14  C6  UNL     1      22.320   4.055  49.213  1.00  0.00     0.125 C 
BRANCH  14  15
HETATM   15  N1  UNL     1      23.004   5.270  49.500  1.00  0.00    -0.381 N 
HETATM   16  C2  UNL     1      23.018   5.922  50.793  1.00  0.00     0.021 C 
HETATM   17  C1  UNL     1      22.090   5.546  51.659  1.00  0.00     0.040 C 
HETATM   18  C3  UNL     1      24.140   6.928  50.862  1.00  0.00     0.223 C 
HETATM   19  O1  UNL     1      25.252   6.278  50.335  1.00  0.00    -0.384 OA
HETATM   20  C4  UNL     1      25.176   6.058  48.975  1.00  0.00     0.187 C 
HETATM   21  C5  UNL     1      23.759   5.948  48.468  1.00  0.00     0.149 C 
ENDBRANCH  14  15
ENDBRANCH  13  14
ENDBRANCH  12  13
ENDBRANCH  11  12
ENDBRANCH   1  11
BRANCH  10  22
HETATM   22  O3  UNL     1      20.309   0.881  53.197  1.00  0.00    -0.353 OA
HETATM   23  C22 UNL     1      19.371  -0.034  52.674  1.00  0.00     0.210 C 
ENDBRANCH  10  22
BRANCH   8  24
HETATM   24  C15 UNL     1      26.887   0.088  53.445  1.00  0.00     0.257 C 
BRANCH  24  25
HETATM   25  C16 UNL     1      26.756  -1.078  52.542  1.00  0.00     0.038 C 
BRANCH  25  26
HETATM   26  C17 UNL     1      27.230  -2.315  52.649  1.00  0.00     0.186 C 
HETATM   27  F1  UNL     1      28.273  -3.173  52.665  1.00  0.00    -0.220 F 
ENDBRANCH  25  26
ENDBRANCH  24  25
BRANCH  24  28
HETATM   28  C18 UNL     1      27.594   1.228  52.840  1.00  0.00     0.093 C 
BRANCH  28  29
HETATM   29  C19 UNL     1      27.211   2.197  51.985  1.00  0.00     0.204 C 
HETATM   30 CL1  UNL     1      26.451   3.065  50.640  1.00  0.00    -0.261 Cl
ENDBRANCH  28  29
ENDBRANCH  24  28
ENDBRANCH   8  24
TORSDOF 11
ENDMDL
MODEL 5
REMARK VINA RESULT:      -6.6      3.599      5.838
REMARK  11 active torsions:
REMARK  status: ('A' for Active; 'I' for Inactive)
REMARK    1  A    between atoms: N1_7  and  C6_8 
REMARK    2  A    between atoms: C6_8  and  C7_9 
REMARK    3  A    between atoms: C7_9  and  C8_10 
REMARK    4  A    between atoms: C8_10  and  O2_11 
REMARK    5  A    between atoms: O2_11  and  C9_12 
REMARK    6  A    between atoms: N3_19  and  C15_20 
REMARK    7  A    between atoms: C15_20  and  C16_21 
REMARK    8  A    between atoms: C15_20  and  C18_24 
REMARK    9  A    between atoms: C16_21  and  C17_22 
REMARK   10  A    between atoms: C18_24  and  C19_25 
REMARK   11  A    between atoms: C21_28  and  O3_29 
ROOT
HETATM    1  C9  UNL     1      22.200   3.458  51.981  1.00  0.00     0.100 A 
HETATM    2  C10 UNL     1      23.320   2.755  51.903  1.00  0.00     0.053 A 
HETATM    3  C11 UNL     1      23.419   1.293  52.102  1.00  0.00     0.287 A 
HETATM    4  C12 UNL     1      22.091   0.698  52.402  1.00  0.00     0.012 A 
HETATM    5  C13 UNL     1      22.026  -0.589  52.599  1.00  0.00     0.090 C 
HETATM    6  N2  UNL     1      23.043  -1.071  53.229  1.00  0.00    -0.257 NA
HETATM    7  C14 UNL     1      23.925  -0.164  53.942  1.00  0.00     0.423 C 
HETATM    8  N3  UNL     1      24.413   0.910  53.086  1.00  0.00     0.129 N 
HETATM    9  C20 UNL     1      20.884   1.512  52.478  1.00  0.00     0.051 A 
HETATM   10  C21 UNL     1      20.925   2.819  52.279  1.00  0.00     0.102 A 
ENDROOT
BRANCH   1  11
HETATM   11  O2  UNL     1      22.488   4.790  51.738  1.00  0.00    -0.348 OA
BRANCH  11  12
HETATM   12  C8  UNL     1      23.746   5.386  51.758  1.00  0.00     0.177 C 
BRANCH  12  13
HETATM   13  C7  UNL     1      23.867   6.546  50.793  1.00  0.00     0.046 C 
BRANCH  13  14
HETATM   14  C6  UNL     1      24.415   6.068  49.497  1.00  0.00     0.125 C 
BRANCH  14  15
HETATM   15  N1  UNL     1      25.831   6.119  49.365  1.00  0.00    -0.381 N 
HETATM   16  C2  UNL     1      26.676   4.973  49.107  1.00  0.00     0.021 C 
HETATM   17  C1  UNL     1      26.145   3.780  49.326  1.00  0.00     0.040 C 
HETATM   18  C3  UNL     1      28.034   5.419  48.623  1.00  0.00     0.223 C 
HETATM   19  O1  UNL     1      27.782   6.398  47.667  1.00  0.00    -0.384 OA
HETATM   20  C4  UNL     1      27.288   7.574  48.192  1.00  0.00     0.187 C 
HETATM   21  C5  UNL     1      26.534   7.379  49.485  1.00  0.00     0.149 C 
ENDBRANCH  14  15
ENDBRANCH  13  14
ENDBRANCH  12  13
ENDBRANCH  11  12
ENDBRANCH   1  11
BRANCH  10  22
HETATM   22  O3  UNL     1      19.858   3.703  52.321  1.00  0.00    -0.353 OA
HETATM   23  C22 UNL     1      18.707   3.425  51.553  1.00  0.00     0.210 C 
ENDBRANCH  10  22
BRANCH   8  24
HETATM   24  C15 UNL     1      25.646   0.473  52.475  1.00  0.00     0.257 C 
BRANCH  24  25
HETATM   25  C16 UNL     1      26.606   1.581  52.275  1.00  0.00     0.038 C 
BRANCH  25  26
HETATM   26  C17 UNL     1      27.662   1.953  52.990  1.00  0.00     0.186 C 
HETATM   27  F1  UNL     1      28.542   2.904  53.372  1.00  0.00    -0.220 F 
ENDBRANCH  25  26
ENDBRANCH  24  25
BRANCH  24  28
HETATM   28  C18 UNL     1      26.222  -0.693  53.164  1.00  0.00     0.093 C 
BRANCH  28  29
HETATM   29  C19 UNL     1      27.173  -1.583  52.821  1.00  0.00     0.204 C 
HETATM   30 CL1  UNL     1      28.512  -2.741  52.889  1.00  0.00    -0.261 Cl
ENDBRANCH  28  29
ENDBRANCH  24  28
ENDBRANCH   8  24
TORSDOF 11
ENDMDL
MODEL 6
REMARK VINA RESULT:      -6.6      2.246      2.910
REMARK  11 active torsions:
REMARK  status: ('A' for Active; 'I' for Inactive)
REMARK    1  A    between atoms: N1_7  and  C6_8 
REMARK    2  A    between atoms: C6_8  and  C7_9 
REMARK    3  A    between atoms: C7_9  and  C8_10 
REMARK    4  A    between atoms: C8_10  and  O2_11 
REMARK    5  A    between atoms: O2_11  and  C9_12 
REMARK    6  A    between atoms: N3_19  and  C15_20 
REMARK    7  A    between atoms: C15_20  and  C16_21 
REMARK    8  A    between atoms: C15_20  and  C18_24 
REMARK    9  A    between atoms: C16_21  and  C17_22 
REMARK   10  A    between atoms: C18_24  and  C19_25 
REMARK   11  A    between atoms: C21_28  and  O3_29 
ROOT
HETATM    1  C9  UNL     1      25.283   0.538  52.643  1.00  0.00     0.100 A 
HETATM    2  C10 UNL     1      23.976   0.715  52.520  1.00  0.00     0.053 A 
HETATM    3  C11 UNL     1      22.953   0.129  53.413  1.00  0.00     0.287 A 
HETATM    4  C12 UNL     1      23.578  -0.693  54.482  1.00  0.00     0.012 A 
HETATM    5  C13 UNL     1      22.793  -1.271  55.347  1.00  0.00     0.090 C 
HETATM    6  N2  UNL     1      21.688  -1.704  54.841  1.00  0.00    -0.257 NA
HETATM    7  C14 UNL     1      21.580  -1.840  53.399  1.00  0.00     0.423 C 
HETATM    8  N3  UNL     1      21.922  -0.605  52.706  1.00  0.00     0.129 N 
HETATM    9  C20 UNL     1      25.022  -0.860  54.579  1.00  0.00     0.051 A 
HETATM   10  C21 UNL     1      25.838  -0.280  53.714  1.00  0.00     0.102 A 
ENDROOT
BRANCH   1  11
HETATM   11  O2  UNL     1      25.928   1.234  51.635  1.00  0.00    -0.348 OA
BRANCH  11  12
HETATM   12  C8  UNL     1      25.594   2.495  51.151  1.00  0.00     0.177 C 
BRANCH  12  13
HETATM   13  C7  UNL     1      26.784   3.255  50.606  1.00  0.00     0.046 C 
BRANCH  13  14
HETATM   14  C6  UNL     1      26.464   3.793  49.259  1.00  0.00     0.125 C 
BRANCH  14  15
HETATM   15  N1  UNL     1      26.428   5.213  49.149  1.00  0.00    -0.381 N 
HETATM   16  C2  UNL     1      27.451   6.016  48.513  1.00  0.00     0.021 C 
HETATM   17  C1  UNL     1      28.624   5.436  48.314  1.00  0.00     0.040 C 
HETATM   18  C3  UNL     1      26.922   7.396  48.208  1.00  0.00     0.223 C 
HETATM   19  O1  UNL     1      25.666   7.193  47.644  1.00  0.00    -0.384 OA
HETATM   20  C4  UNL     1      24.720   6.738  48.540  1.00  0.00     0.187 C 
HETATM   21  C5  UNL     1      25.314   5.962  49.690  1.00  0.00     0.149 C 
ENDBRANCH  14  15
ENDBRANCH  13  14
ENDBRANCH  12  13
ENDBRANCH  11  12
ENDBRANCH   1  11
BRANCH  10  22
HETATM   22  O3  UNL     1      27.222  -0.357  53.692  1.00  0.00    -0.353 OA
HETATM   23  C22 UNL     1      27.954   0.187  54.769  1.00  0.00     0.210 C 
ENDBRANCH  10  22
BRANCH   8  24
HETATM   24  C15 UNL     1      20.713   0.170  52.547  1.00  0.00     0.257 C 
BRANCH  24  25
HETATM   25  C16 UNL     1      20.751   1.445  53.297  1.00  0.00     0.038 C 
BRANCH  25  26
HETATM   26  C17 UNL     1      20.542   2.695  52.895  1.00  0.00     0.186 C 
HETATM   27  F1  UNL     1      19.927   3.575  52.076  1.00  0.00    -0.220 F 
ENDBRANCH  25  26
ENDBRANCH  24  25
BRANCH  24  28
HETATM   28  C18 UNL     1      20.340   0.327  51.132  1.00  0.00     0.093 C 
BRANCH  28  29
HETATM   29  C19 UNL     1      21.057   0.565  50.015  1.00  0.00     0.204 C 
HETATM   30 CL1  UNL     1      21.629   1.248  48.484  1.00  0.00    -0.261 Cl
ENDBRANCH  28  29
ENDBRANCH  24  28
ENDBRANCH   8  24
TORSDOF 11
ENDMDL
MODEL 7
REMARK VINA RESULT:      -6.5      3.234      5.165
REMARK  11 active torsions:
REMARK  status: ('A' for Active; 'I' for Inactive)
REMARK    1  A    between atoms: N1_7  and  C6_8 
REMARK    2  A    between atoms: C6_8  and  C7_9 
REMARK    3  A    between atoms: C7_9  and  C8_10 
REMARK    4  A    between atoms: C8_10  and  O2_11 
REMARK    5  A    between atoms: O2_11  and  C9_12 
REMARK    6  A    between atoms: N3_19  and  C15_20 
REMARK    7  A    between atoms: C15_20  and  C16_21 
REMARK    8  A    between atoms: C15_20  and  C18_24 
REMARK    9  A    between atoms: C16_21  and  C17_22 
REMARK   10  A    between atoms: C18_24  and  C19_25 
REMARK   11  A    between atoms: C21_28  and  O3_29 
ROOT
HETATM    1  C9  UNL     1      22.245   0.939  52.691  1.00  0.00     0.100 A 
HETATM    2  C10 UNL     1      23.550   0.850  52.483  1.00  0.00     0.053 A 
HETATM    3  C11 UNL     1      24.487   0.054  53.304  1.00  0.00     0.287 A 
HETATM    4  C12 UNL     1      23.778  -0.646  54.407  1.00  0.00     0.012 A 
HETATM    5  C13 UNL     1      24.482  -1.390  55.213  1.00  0.00     0.090 C 
HETATM    6  N2  UNL     1      25.652  -0.913  55.474  1.00  0.00    -0.257 NA
HETATM    7  C14 UNL     1      25.926   0.482  55.178  1.00  0.00     0.423 C 
HETATM    8  N3  UNL     1      25.618   0.818  53.794  1.00  0.00     0.129 N 
HETATM    9  C20 UNL     1      22.339  -0.518  54.598  1.00  0.00     0.051 A 
HETATM   10  C21 UNL     1      21.605   0.229  53.790  1.00  0.00     0.102 A 
ENDROOT
BRANCH   1  11
HETATM   11  O2  UNL     1      21.692   1.768  51.730  1.00  0.00    -0.348 OA
BRANCH  11  12
HETATM   12  C8  UNL     1      21.184   3.048  51.930  1.00  0.00     0.177 C 
BRANCH  12  13
HETATM   13  C7  UNL     1      22.262   4.078  52.192  1.00  0.00     0.046 C 
BRANCH  13  14
HETATM   14  C6  UNL     1      23.137   4.206  50.998  1.00  0.00     0.125 C 
BRANCH  14  15
HETATM   15  N1  UNL     1      22.511   4.702  49.819  1.00  0.00    -0.381 N 
HETATM   16  C2  UNL     1      22.236   3.913  48.637  1.00  0.00     0.021 C 
HETATM   17  C1  UNL     1      22.887   2.765  48.524  1.00  0.00     0.040 C 
HETATM   18  C3  UNL     1      21.223   4.610  47.763  1.00  0.00     0.223 C 
HETATM   19  O1  UNL     1      20.223   5.040  48.629  1.00  0.00    -0.384 OA
HETATM   20  C4  UNL     1      20.612   6.072  49.459  1.00  0.00     0.187 C 
HETATM   21  C5  UNL     1      22.094   6.086  49.738  1.00  0.00     0.149 C 
ENDBRANCH  14  15
ENDBRANCH  13  14
ENDBRANCH  12  13
ENDBRANCH  11  12
ENDBRANCH   1  11
BRANCH  10  22
HETATM   22  O3  UNL     1      20.235   0.435  53.860  1.00  0.00    -0.353 OA
HETATM   23  C22 UNL     1      19.370  -0.499  53.250  1.00  0.00     0.210 C 
ENDBRANCH  10  22
BRANCH   8  24
HETATM   24  C15 UNL     1      26.807   0.599  53.004  1.00  0.00     0.257 C 
BRANCH  24  25
HETATM   25  C16 UNL     1      26.717  -0.614  52.162  1.00  0.00     0.038 C 
BRANCH  25  26
HETATM   26  C17 UNL     1      27.362  -1.773  52.238  1.00  0.00     0.186 C 
HETATM   27  F1  UNL     1      27.570  -2.961  52.848  1.00  0.00    -0.220 F 
ENDBRANCH  25  26
ENDBRANCH  24  25
BRANCH  24  28
HETATM   28  C18 UNL     1      27.207   1.806  52.263  1.00  0.00     0.093 C 
BRANCH  28  29
HETATM   29  C19 UNL     1      26.668   2.458  51.213  1.00  0.00     0.204 C 
HETATM   30 CL1  UNL     1      26.412   3.165  49.609  1.00  0.00    -0.261 Cl
ENDBRANCH  28  29
ENDBRANCH  24  28
ENDBRANCH   8  24
TORSDOF 11
ENDMDL
MODEL 8
REMARK VINA RESULT:      -6.4      5.084      7.952
REMARK  11 active torsions:
REMARK  status: ('A' for Active; 'I' for Inactive)
REMARK    1  A    between atoms: N1_7  and  C6_8 
REMARK    2  A    between atoms: C6_8  and  C7_9 
REMARK    3  A    between atoms: C7_9  and  C8_10 
REMARK    4  A    between atoms: C8_10  and  O2_11 
REMARK    5  A    between atoms: O2_11  and  C9_12 
REMARK    6  A    between atoms: N3_19  and  C15_20 
REMARK    7  A    between atoms: C15_20  and  C16_21 
REMARK    8  A    between atoms: C15_20  and  C18_24 
REMARK    9  A    between atoms: C16_21  and  C17_22 
REMARK   10  A    between atoms: C18_24  and  C19_25 
REMARK   11  A    between atoms: C21_28  and  O3_29 
ROOT
HETATM    1  C9  UNL     1      26.959   4.819  48.884  1.00  0.00     0.100 A 
HETATM    2  C10 UNL     1      26.664   3.725  49.571  1.00  0.00     0.053 A 
HETATM    3  C11 UNL     1      25.323   3.390  50.097  1.00  0.00     0.287 A 
HETATM    4  C12 UNL     1      24.331   4.443  49.757  1.00  0.00     0.012 A 
HETATM    5  C13 UNL     1      23.102   4.279  50.157  1.00  0.00     0.090 C 
HETATM    6  N2  UNL     1      23.000   3.728  51.318  1.00  0.00    -0.257 NA
HETATM    7  C14 UNL     1      24.168   3.685  52.181  1.00  0.00     0.423 C 
HETATM    8  N3  UNL     1      25.318   3.088  51.515  1.00  0.00     0.129 N 
HETATM    9  C20 UNL     1      24.702   5.631  48.998  1.00  0.00     0.051 A 
HETATM   10  C21 UNL     1      25.942   5.818  48.580  1.00  0.00     0.102 A 
ENDROOT
BRANCH   1  11
HETATM   11  O2  UNL     1      28.304   4.796  48.557  1.00  0.00    -0.348 OA
BRANCH  11  12
HETATM   12  C8  UNL     1      29.174   5.882  48.544  1.00  0.00     0.177 C 
BRANCH  12  13
HETATM   13  C7  UNL     1      30.374   5.668  47.645  1.00  0.00     0.046 C 
BRANCH  13  14
HETATM   14  C6  UNL     1      31.586   5.436  48.472  1.00  0.00     0.125 C 
BRANCH  14  15
HETATM   15  N1  UNL     1      32.635   4.706  47.845  1.00  0.00    -0.381 N 
HETATM   16  C2  UNL     1      34.047   4.921  48.086  1.00  0.00     0.021 C 
HETATM   17  C1  UNL     1      34.384   6.062  48.666  1.00  0.00     0.040 C 
HETATM   18  C3  UNL     1      34.849   3.740  47.596  1.00  0.00     0.223 C 
HETATM   19  O1  UNL     1      34.170   2.617  48.057  1.00  0.00    -0.384 OA
HETATM   20  C4  UNL     1      32.964   2.397  47.425  1.00  0.00     0.187 C 
HETATM   21  C5  UNL     1      32.332   3.660  46.892  1.00  0.00     0.149 C 
ENDBRANCH  14  15
ENDBRANCH  13  14
ENDBRANCH  12  13
ENDBRANCH  11  12
ENDBRANCH   1  11
BRANCH  10  22
HETATM   22  O3  UNL     1      26.425   6.897  47.855  1.00  0.00    -0.353 OA
HETATM   23  C22 UNL     1      26.189   8.204  48.334  1.00  0.00     0.210 C 
ENDBRANCH  10  22
BRANCH   8  24
HETATM   24  C15 UNL     1      25.296   1.666  51.769  1.00  0.00     0.257 C 
BRANCH  24  25
HETATM   25  C16 UNL     1      26.644   1.113  52.027  1.00  0.00     0.038 C 
BRANCH  25  26
HETATM   26  C17 UNL     1      27.653   1.587  52.751  1.00  0.00     0.186 C 
HETATM   27  F1  UNL     1      28.306   2.629  53.310  1.00  0.00    -0.220 F 
ENDBRANCH  25  26
ENDBRANCH  24  25
BRANCH  24  28
HETATM   28  C18 UNL     1      24.301   1.303  52.791  1.00  0.00     0.093 C 
BRANCH  28  29
HETATM   29  C19 UNL     1      23.626   0.165  53.049  1.00  0.00     0.204 C 
HETATM   30 CL1  UNL     1      22.333  -0.994  53.403  1.00  0.00    -0.261 Cl
ENDBRANCH  28  29
ENDBRANCH  24  28
ENDBRANCH   8  24
TORSDOF 11
ENDMDL
MODEL 9
REMARK VINA RESULT:      -6.4      3.442      5.470
REMARK  11 active torsions:
REMARK  status: ('A' for Active; 'I' for Inactive)
REMARK    1  A    between atoms: N1_7  and  C6_8 
REMARK    2  A    between atoms: C6_8  and  C7_9 
REMARK    3  A    between atoms: C7_9  and  C8_10 
REMARK    4  A    between atoms: C8_10  and  O2_11 
REMARK    5  A    between atoms: O2_11  and  C9_12 
REMARK    6  A    between atoms: N3_19  and  C15_20 
REMARK    7  A    between atoms: C15_20  and  C16_21 
REMARK    8  A    between atoms: C15_20  and  C18_24 
REMARK    9  A    between atoms: C16_21  and  C17_22 
REMARK   10  A    between atoms: C18_24  and  C19_25 
REMARK   11  A    between atoms: C21_28  and  O3_29 
ROOT
HETATM    1  C9  UNL     1      22.087   3.232  51.848  1.00  0.00     0.100 A 
HETATM    2  C10 UNL     1      23.239   2.602  51.670  1.00  0.00     0.053 A 
HETATM    3  C11 UNL     1      23.488   1.181  51.997  1.00  0.00     0.287 A 
HETATM    4  C12 UNL     1      22.271   0.535  52.556  1.00  0.00     0.012 A 
HETATM    5  C13 UNL     1      22.344  -0.723  52.888  1.00  0.00     0.090 C 
HETATM    6  N2  UNL     1      23.478  -1.063  53.399  1.00  0.00    -0.257 NA
HETATM    7  C14 UNL     1      24.376  -0.025  53.874  1.00  0.00     0.423 C 
HETATM    8  N3  UNL     1      24.642   0.978  52.850  1.00  0.00     0.129 N 
HETATM    9  C20 UNL     1      21.024   1.269  52.733  1.00  0.00     0.051 A 
HETATM   10  C21 UNL     1      20.927   2.545  52.400  1.00  0.00     0.102 A 
ENDROOT
BRANCH   1  11
HETATM   11  O2  UNL     1      22.224   4.545  51.432  1.00  0.00    -0.348 OA
BRANCH  11  12
HETATM   12  C8  UNL     1      23.403   5.174  51.041  1.00  0.00     0.177 C 
BRANCH  12  13
HETATM   13  C7  UNL     1      23.313   5.799  49.665  1.00  0.00     0.046 C 
BRANCH  13  14
HETATM   14  C6  UNL     1      23.426   4.743  48.625  1.00  0.00     0.125 C 
BRANCH  14  15
HETATM   15  N1  UNL     1      22.224   4.424  47.930  1.00  0.00    -0.381 N 
HETATM   16  C2  UNL     1      21.659   3.096  47.831  1.00  0.00     0.021 C 
HETATM   17  C1  UNL     1      22.461   2.084  48.121  1.00  0.00     0.040 C 
HETATM   18  C3  UNL     1      20.215   3.170  47.399  1.00  0.00     0.223 C 
HETATM   19  O1  UNL     1      19.648   4.173  48.179  1.00  0.00    -0.384 OA
HETATM   20  C4  UNL     1      20.086   5.442  47.859  1.00  0.00     0.187 C 
HETATM   21  C5  UNL     1      21.470   5.460  47.258  1.00  0.00     0.149 C 
ENDBRANCH  14  15
ENDBRANCH  13  14
ENDBRANCH  12  13
ENDBRANCH  11  12
ENDBRANCH   1  11
BRANCH  10  22
HETATM   22  O3  UNL     1      19.807   3.355  52.518  1.00  0.00    -0.353 OA
HETATM   23  C22 UNL     1      18.859   3.367  51.473  1.00  0.00     0.210 C 
ENDBRANCH  10  22
BRANCH   8  24
HETATM   24  C15 UNL     1      25.805   0.560  52.104  1.00  0.00     0.257 C 
BRANCH  24  25
HETATM   25  C16 UNL     1      26.687   1.691  51.742  1.00  0.00     0.038 C 
BRANCH  25  26
HETATM   26  C17 UNL     1      26.611   2.568  50.746  1.00  0.00     0.186 C 
HETATM   27  F1  UNL     1      26.600   2.840  49.423  1.00  0.00    -0.220 F 
ENDBRANCH  25  26
ENDBRANCH  24  25
BRANCH  24  28
HETATM   28  C18 UNL     1      26.509  -0.555  52.757  1.00  0.00     0.093 C 
BRANCH  28  29
HETATM   29  C19 UNL     1      27.781  -0.718  53.175  1.00  0.00     0.204 C 
HETATM   30 CL1  UNL     1      29.488  -1.182  53.262  1.00  0.00    -0.261 Cl
ENDBRANCH  28  29
ENDBRANCH  24  28
ENDBRANCH   8  24
TORSDOF 11
ENDMDL
