MODEL 1
REMARK VINA RESULT:      -8.5      0.000      0.000
REMARK  1 active torsions:
REMARK  status: ('A' for Active; 'I' for Inactive)
REMARK    1  A    between atoms: C2_2  and  C3_3 
ROOT
HETATM    1  C3  UNL     1      19.213  -0.440  52.929  1.00  0.00     0.026 C 
HETATM    2  C4  UNL     1      19.460  -0.115  51.664  1.00  0.00     0.026 C 
HETATM    3  C5  UNL     1      20.568   0.483  50.968  1.00  0.00     0.011 C 
HETATM    4  C6  UNL     1      21.670   1.051  50.449  1.00  0.00    -0.032 C 
HETATM    5  C7  UNL     1      21.342   1.123  49.025  1.00  0.00     0.050 C 
HETATM    6  C8  UNL     1      22.921   1.485  51.102  1.00  0.00     0.075 A 
HETATM    7  N1  UNL     1      23.495   2.374  50.321  1.00  0.00    -0.260 NA
HETATM    8  C9  UNL     1      24.673   3.018  50.609  1.00  0.00     0.117 A 
HETATM    9  C10 UNL     1      25.211   2.634  51.826  1.00  0.00     0.020 A 
HETATM   10  C11 UNL     1      24.608   1.699  52.650  1.00  0.00     0.017 A 
HETATM   11  C12 UNL     1      23.412   1.069  52.318  1.00  0.00     0.023 A 
HETATM   12  C13 UNL     1      23.062   0.151  53.400  1.00  0.00     0.089 A 
HETATM   13  C14 UNL     1      23.970  -0.553  54.145  1.00  0.00     0.053 A 
HETATM   14  C15 UNL     1      23.409  -1.383  55.118  1.00  0.00     0.139 A 
HETATM   15  N2  UNL     1      22.045  -1.491  55.319  1.00  0.00    -0.075 NA
HETATM   16  C16 UNL     1      21.234  -0.771  54.546  1.00  0.00     0.727 A 
HETATM   17  N3  UNL     1      21.807  -0.033  53.682  1.00  0.00    -0.062 NA
HETATM   18  N4  UNL     1      19.932  -0.389  54.145  1.00  0.00    -0.192 N 
HETATM   19  H16 UNL     1      19.642  -0.047  55.075  1.00  0.00     0.184 HD
ENDROOT
BRANCH   1  20
HETATM   20  C2  UNL     1      17.885  -1.042  53.126  1.00  0.00     0.053 C 
HETATM   21  C1  UNL     1      17.930  -2.459  53.665  1.00  0.00     0.011 C 
ENDBRANCH   1  20
TORSDOF 1
ENDMDL
MODEL 2
REMARK VINA RESULT:      -8.4      2.466      5.442
REMARK  1 active torsions:
REMARK  status: ('A' for Active; 'I' for Inactive)
REMARK    1  A    between atoms: C2_2  and  C3_3 
ROOT
HETATM    1  C3  UNL     1      27.431   0.525  53.509  1.00  0.00     0.026 C 
HETATM    2  C4  UNL     1      27.114   1.593  52.781  1.00  0.00     0.026 C 
HETATM    3  C5  UNL     1      25.938   2.025  52.073  1.00  0.00     0.011 C 
HETATM    4  C6  UNL     1      24.778   2.302  51.455  1.00  0.00    -0.032 C 
HETATM    5  C7  UNL     1      25.048   3.611  50.858  1.00  0.00     0.050 C 
HETATM    6  C8  UNL     1      23.521   1.530  51.387  1.00  0.00     0.075 A 
HETATM    7  N1  UNL     1      22.852   1.942  50.332  1.00  0.00    -0.260 NA
HETATM    8  C9  UNL     1      21.639   1.438  49.934  1.00  0.00     0.117 A 
HETATM    9  C10 UNL     1      21.177   0.432  50.766  1.00  0.00     0.020 A 
HETATM   10  C11 UNL     1      21.879  -0.003  51.877  1.00  0.00     0.017 A 
HETATM   11  C12 UNL     1      23.108   0.537  52.245  1.00  0.00     0.023 A 
HETATM   12  C13 UNL     1      23.567  -0.148  53.451  1.00  0.00     0.089 A 
HETATM   13  C14 UNL     1      22.743  -0.601  54.448  1.00  0.00     0.053 A 
HETATM   14  C15 UNL     1      23.402  -1.213  55.516  1.00  0.00     0.139 A 
HETATM   15  N2  UNL     1      24.776  -1.355  55.571  1.00  0.00    -0.075 NA
HETATM   16  C16 UNL     1      25.501  -0.882  54.559  1.00  0.00     0.727 A 
HETATM   17  N3  UNL     1      24.841  -0.338  53.615  1.00  0.00    -0.062 NA
HETATM   18  N4  UNL     1      26.754  -0.634  53.951  1.00  0.00    -0.192 N 
HETATM   19  H16 UNL     1      27.050  -1.623  53.935  1.00  0.00     0.184 HD
ENDROOT
BRANCH   1  20
HETATM   20  C2  UNL     1      28.807   0.563  54.026  1.00  0.00     0.053 C 
HETATM   21  C1  UNL     1      29.606  -0.693  53.730  1.00  0.00     0.011 C 
ENDBRANCH   1  20
TORSDOF 1
ENDMDL
MODEL 3
REMARK VINA RESULT:      -8.4      2.253      6.344
REMARK  1 active torsions:
REMARK  status: ('A' for Active; 'I' for Inactive)
REMARK    1  A    between atoms: C2_2  and  C3_3 
ROOT
HETATM    1  C3  UNL     1      25.813   2.854  50.518  1.00  0.00     0.026 C 
HETATM    2  C4  UNL     1      26.485   1.907  51.167  1.00  0.00     0.026 C 
HETATM    3  C5  UNL     1      26.134   0.878  52.109  1.00  0.00     0.011 C 
HETATM    4  C6  UNL     1      25.669  -0.033  52.982  1.00  0.00    -0.032 C 
HETATM    5  C7  UNL     1      26.876  -0.790  53.315  1.00  0.00     0.050 C 
HETATM    6  C8  UNL     1      24.300  -0.263  53.484  1.00  0.00     0.075 A 
HETATM    7  N1  UNL     1      24.394  -0.917  54.622  1.00  0.00    -0.260 NA
HETATM    8  C9  UNL     1      23.323  -1.292  55.395  1.00  0.00     0.117 A 
HETATM    9  C10 UNL     1      22.108  -0.909  54.851  1.00  0.00     0.020 A 
HETATM   10  C11 UNL     1      22.007  -0.221  53.654  1.00  0.00     0.017 A 
HETATM   11  C12 UNL     1      23.121   0.140  52.901  1.00  0.00     0.023 A 
HETATM   12  C13 UNL     1      22.659   0.848  51.710  1.00  0.00     0.089 A 
HETATM   13  C14 UNL     1      21.498   0.565  51.040  1.00  0.00     0.053 A 
HETATM   14  C15 UNL     1      21.263   1.362  49.916  1.00  0.00     0.139 A 
HETATM   15  N2  UNL     1      22.129   2.359  49.507  1.00  0.00    -0.075 NA
HETATM   16  C16 UNL     1      23.237   2.564  50.217  1.00  0.00     0.727 A 
HETATM   17  N3  UNL     1      23.391   1.808  51.229  1.00  0.00    -0.062 NA
HETATM   18  N4  UNL     1      24.459   3.247  50.425  1.00  0.00    -0.192 N 
HETATM   19  H16 UNL     1      24.034   4.187  50.482  1.00  0.00     0.184 HD
ENDROOT
BRANCH   1  20
HETATM   20  C2  UNL     1      26.663   3.676  49.646  1.00  0.00     0.053 C 
HETATM   21  C1  UNL     1      26.050   5.014  49.278  1.00  0.00     0.011 C 
ENDBRANCH   1  20
TORSDOF 1
ENDMDL
MODEL 4
REMARK VINA RESULT:      -8.1      2.525      6.193
REMARK  1 active torsions:
REMARK  status: ('A' for Active; 'I' for Inactive)
REMARK    1  A    between atoms: C2_2  and  C3_3 
ROOT
HETATM    1  C3  UNL     1      26.892   0.201  53.309  1.00  0.00     0.026 C 
HETATM    2  C4  UNL     1      25.809  -0.550  53.491  1.00  0.00     0.026 C 
HETATM    3  C5  UNL     1      24.395  -0.349  53.320  1.00  0.00     0.011 C 
HETATM    4  C6  UNL     1      23.106  -0.024  53.118  1.00  0.00    -0.032 C 
HETATM    5  C7  UNL     1      22.414  -1.265  53.467  1.00  0.00     0.050 C 
HETATM    6  C8  UNL     1      22.500   1.237  52.645  1.00  0.00     0.075 A 
HETATM    7  N1  UNL     1      21.245   1.252  53.037  1.00  0.00    -0.260 NA
HETATM    8  C9  UNL     1      20.366   2.278  52.797  1.00  0.00     0.117 A 
HETATM    9  C10 UNL     1      20.940   3.321  52.088  1.00  0.00     0.020 A 
HETATM   10  C11 UNL     1      22.261   3.308  51.675  1.00  0.00     0.017 A 
HETATM   11  C12 UNL     1      23.118   2.243  51.939  1.00  0.00     0.023 A 
HETATM   12  C13 UNL     1      24.426   2.555  51.368  1.00  0.00     0.089 A 
HETATM   13  C14 UNL     1      24.619   3.258  50.208  1.00  0.00     0.053 A 
HETATM   14  C15 UNL     1      25.957   3.425  49.843  1.00  0.00     0.139 A 
HETATM   15  N2  UNL     1      27.008   2.923  50.588  1.00  0.00    -0.075 NA
HETATM   16  C16 UNL     1      26.728   2.249  51.701  1.00  0.00     0.727 A 
HETATM   17  N3  UNL     1      25.492   2.135  51.980  1.00  0.00    -0.062 NA
HETATM   18  N4  UNL     1      27.148   1.505  52.829  1.00  0.00    -0.192 N 
HETATM   19  H16 UNL     1      27.747   2.251  53.218  1.00  0.00     0.184 HD
ENDROOT
BRANCH   1  20
HETATM   20  C2  UNL     1      28.143  -0.494  53.644  1.00  0.00     0.053 C 
HETATM   21  C1  UNL     1      29.334   0.433  53.803  1.00  0.00     0.011 C 
ENDBRANCH   1  20
TORSDOF 1
ENDMDL
MODEL 5
REMARK VINA RESULT:      -8.1      2.273      5.793
REMARK  1 active torsions:
REMARK  status: ('A' for Active; 'I' for Inactive)
REMARK    1  A    between atoms: C2_2  and  C3_3 
ROOT
HETATM    1  C3  UNL     1      25.862   2.826  50.589  1.00  0.00     0.026 C 
HETATM    2  C4  UNL     1      24.631   3.278  50.812  1.00  0.00     0.026 C 
HETATM    3  C5  UNL     1      23.499   2.808  51.564  1.00  0.00     0.011 C 
HETATM    4  C6  UNL     1      22.522   2.251  52.301  1.00  0.00    -0.032 C 
HETATM    5  C7  UNL     1      21.441   3.229  52.174  1.00  0.00     0.050 C 
HETATM    6  C8  UNL     1      22.506   0.995  53.076  1.00  0.00     0.075 A 
HETATM    7  N1  UNL     1      21.250   0.637  53.237  1.00  0.00    -0.260 NA
HETATM    8  C9  UNL     1      20.842  -0.496  53.894  1.00  0.00     0.117 A 
HETATM    9  C10 UNL     1      21.901  -1.244  54.383  1.00  0.00     0.020 A 
HETATM   10  C11 UNL     1      23.223  -0.870  54.215  1.00  0.00     0.017 A 
HETATM   11  C12 UNL     1      23.593   0.290  53.541  1.00  0.00     0.023 A 
HETATM   12  C13 UNL     1      25.051   0.378  53.546  1.00  0.00     0.089 A 
HETATM   13  C14 UNL     1      25.851  -0.046  54.574  1.00  0.00     0.053 A 
HETATM   14  C15 UNL     1      27.218   0.150  54.370  1.00  0.00     0.139 A 
HETATM   15  N2  UNL     1      27.732   0.727  53.223  1.00  0.00    -0.075 NA
HETATM   16  C16 UNL     1      26.881   1.113  52.275  1.00  0.00     0.727 A 
HETATM   17  N3  UNL     1      25.650   0.904  52.520  1.00  0.00    -0.062 NA
HETATM   18  N4  UNL     1      26.624   1.716  51.020  1.00  0.00    -0.192 N 
HETATM   19  H16 UNL     1      27.211   1.061  50.478  1.00  0.00     0.184 HD
ENDROOT
BRANCH   1  20
HETATM   20  C2  UNL     1      26.655   3.705  49.718  1.00  0.00     0.053 C 
HETATM   21  C1  UNL     1      25.941   4.985  49.328  1.00  0.00     0.011 C 
ENDBRANCH   1  20
TORSDOF 1
ENDMDL
MODEL 6
REMARK VINA RESULT:      -7.9      1.788      4.145
REMARK  1 active torsions:
REMARK  status: ('A' for Active; 'I' for Inactive)
REMARK    1  A    between atoms: C2_2  and  C3_3 
ROOT
HETATM    1  C3  UNL     1      20.379   0.140  51.966  1.00  0.00     0.026 C 
HETATM    2  C4  UNL     1      20.844  -0.377  53.099  1.00  0.00     0.026 C 
HETATM    3  C5  UNL     1      22.152  -0.558  53.670  1.00  0.00     0.011 C 
HETATM    4  C6  UNL     1      23.427  -0.666  54.081  1.00  0.00    -0.032 C 
HETATM    5  C7  UNL     1      23.279  -1.287  55.397  1.00  0.00     0.050 C 
HETATM    6  C8  UNL     1      24.683  -0.257  53.420  1.00  0.00     0.075 A 
HETATM    7  N1  UNL     1      25.663  -0.955  53.952  1.00  0.00    -0.260 NA
HETATM    8  C9  UNL     1      26.979  -0.861  53.575  1.00  0.00     0.117 A 
HETATM    9  C10 UNL     1      27.182   0.060  52.560  1.00  0.00     0.020 A 
HETATM   10  C11 UNL     1      26.153   0.795  51.999  1.00  0.00     0.017 A 
HETATM   11  C12 UNL     1      24.830   0.668  52.413  1.00  0.00     0.023 A 
HETATM   12  C13 UNL     1      24.011   1.580  51.618  1.00  0.00     0.089 A 
HETATM   13  C14 UNL     1      24.427   2.807  51.171  1.00  0.00     0.053 A 
HETATM   14  C15 UNL     1      23.471   3.517  50.440  1.00  0.00     0.139 A 
HETATM   15  N2  UNL     1      22.204   3.026  50.184  1.00  0.00    -0.075 NA
HETATM   16  C16 UNL     1      21.884   1.824  50.658  1.00  0.00     0.727 A 
HETATM   17  N3  UNL     1      22.799   1.228  51.313  1.00  0.00    -0.062 NA
HETATM   18  N4  UNL     1      20.945   0.781  50.841  1.00  0.00    -0.192 N 
HETATM   19  H16 UNL     1      20.779   0.625  49.833  1.00  0.00     0.184 HD
ENDROOT
BRANCH   1  20
HETATM   20  C2  UNL     1      18.914   0.079  51.857  1.00  0.00     0.053 C 
HETATM   21  C1  UNL     1      18.271  -0.912  52.810  1.00  0.00     0.011 C 
ENDBRANCH   1  20
TORSDOF 1
ENDMDL
MODEL 7
REMARK VINA RESULT:      -7.5      1.425      4.559
REMARK  1 active torsions:
REMARK  status: ('A' for Active; 'I' for Inactive)
REMARK    1  A    between atoms: C2_2  and  C3_3 
ROOT
HETATM    1  C3  UNL     1      24.814  -0.012  53.717  1.00  0.00     0.026 C 
HETATM    2  C4  UNL     1      25.217   1.080  53.073  1.00  0.00     0.026 C 
HETATM    3  C5  UNL     1      24.728   1.833  51.950  1.00  0.00     0.011 C 
HETATM    4  C6  UNL     1      24.163   2.438  50.890  1.00  0.00    -0.032 C 
HETATM    5  C7  UNL     1      25.051   3.581  50.675  1.00  0.00     0.050 C 
HETATM    6  C8  UNL     1      22.951   2.089  50.124  1.00  0.00     0.075 A 
HETATM    7  N1  UNL     1      23.044   2.657  48.942  1.00  0.00    -0.260 NA
HETATM    8  C9  UNL     1      22.107   2.541  47.946  1.00  0.00     0.117 A 
HETATM    9  C10 UNL     1      21.030   1.751  48.312  1.00  0.00     0.020 A 
HETATM   10  C11 UNL     1      20.929   1.152  49.556  1.00  0.00     0.017 A 
HETATM   11  C12 UNL     1      21.904   1.297  50.539  1.00  0.00     0.023 A 
HETATM   12  C13 UNL     1      21.486   0.539  51.715  1.00  0.00     0.089 A 
HETATM   13  C14 UNL     1      20.186   0.390  52.122  1.00  0.00     0.053 A 
HETATM   14  C15 UNL     1      20.021  -0.365  53.285  1.00  0.00     0.139 A 
HETATM   15  N2  UNL     1      21.081  -0.922  53.977  1.00  0.00    -0.075 NA
HETATM   16  C16 UNL     1      22.313  -0.724  53.511  1.00  0.00     0.727 A 
HETATM   17  N3  UNL     1      22.395  -0.031  52.447  1.00  0.00    -0.062 NA
HETATM   18  N4  UNL     1      23.714  -0.892  53.622  1.00  0.00    -0.192 N 
HETATM   19  H16 UNL     1      23.686  -1.925  53.622  1.00  0.00     0.184 HD
ENDROOT
BRANCH   1  20
HETATM   20  C2  UNL     1      25.695  -0.386  54.834  1.00  0.00     0.053 C 
HETATM   21  C1  UNL     1      27.070   0.253  54.769  1.00  0.00     0.011 C 
ENDBRANCH   1  20
TORSDOF 1
ENDMDL
MODEL 8
REMARK VINA RESULT:      -7.3      3.056      6.606
REMARK  1 active torsions:
REMARK  status: ('A' for Active; 'I' for Inactive)
REMARK    1  A    between atoms: C2_2  and  C3_3 
ROOT
HETATM    1  C3  UNL     1      25.819   4.900  49.450  1.00  0.00     0.026 C 
HETATM    2  C4  UNL     1      24.663   5.493  49.733  1.00  0.00     0.026 C 
HETATM    3  C5  UNL     1      23.492   5.127  50.485  1.00  0.00     0.011 C 
HETATM    4  C6  UNL     1      22.464   4.656  51.212  1.00  0.00    -0.032 C 
HETATM    5  C7  UNL     1      21.520   5.773  51.176  1.00  0.00     0.050 C 
HETATM    6  C8  UNL     1      22.297   3.364  51.907  1.00  0.00     0.075 A 
HETATM    7  N1  UNL     1      21.008   3.164  52.079  1.00  0.00    -0.260 NA
HETATM    8  C9  UNL     1      20.466   2.053  52.674  1.00  0.00     0.117 A 
HETATM    9  C10 UNL     1      21.425   1.142  53.086  1.00  0.00     0.020 A 
HETATM   10  C11 UNL     1      22.782   1.351  52.906  1.00  0.00     0.017 A 
HETATM   11  C12 UNL     1      23.290   2.495  52.297  1.00  0.00     0.023 A 
HETATM   12  C13 UNL     1      24.747   2.391  52.268  1.00  0.00     0.089 A 
HETATM   13  C14 UNL     1      25.502   1.798  53.245  1.00  0.00     0.053 A 
HETATM   14  C15 UNL     1      26.880   1.827  53.016  1.00  0.00     0.139 A 
HETATM   15  N2  UNL     1      27.444   2.406  51.894  1.00  0.00    -0.075 NA
HETATM   16  C16 UNL     1      26.633   2.962  50.996  1.00  0.00     0.727 A 
HETATM   17  N3  UNL     1      25.390   2.900  51.261  1.00  0.00    -0.062 NA
HETATM   18  N4  UNL     1      26.435   3.675  49.789  1.00  0.00    -0.192 N 
HETATM   19  H16 UNL     1      26.920   2.986  49.191  1.00  0.00     0.184 HD
ENDROOT
BRANCH   1  20
HETATM   20  C2  UNL     1      26.705   5.723  48.614  1.00  0.00     0.053 C 
HETATM   21  C1  UNL     1      28.123   5.192  48.517  1.00  0.00     0.011 C 
ENDBRANCH   1  20
TORSDOF 1
ENDMDL
MODEL 9
REMARK VINA RESULT:      -7.3      2.411      4.245
REMARK  1 active torsions:
REMARK  status: ('A' for Active; 'I' for Inactive)
REMARK    1  A    between atoms: C2_2  and  C3_3 
ROOT
HETATM    1  C3  UNL     1      22.058   3.358  51.024  1.00  0.00     0.026 C 
HETATM    2  C4  UNL     1      23.192   3.577  50.365  1.00  0.00     0.026 C 
HETATM    3  C5  UNL     1      24.572   3.232  50.580  1.00  0.00     0.011 C 
HETATM    4  C6  UNL     1      25.818   2.846  50.905  1.00  0.00    -0.032 C 
HETATM    5  C7  UNL     1      26.606   3.362  49.785  1.00  0.00     0.050 C 
HETATM    6  C8  UNL     1      26.309   2.079  52.066  1.00  0.00     0.075 A 
HETATM    7  N1  UNL     1      27.592   2.335  52.206  1.00  0.00    -0.260 NA
HETATM    8  C9  UNL     1      28.387   1.814  53.195  1.00  0.00     0.117 A 
HETATM    9  C10 UNL     1      27.696   0.973  54.052  1.00  0.00     0.020 A 
HETATM   10  C11 UNL     1      26.346   0.702  53.908  1.00  0.00     0.017 A 
HETATM   11  C12 UNL     1      25.576   1.252  52.887  1.00  0.00     0.023 A 
HETATM   12  C13 UNL     1      24.208   0.762  53.030  1.00  0.00     0.089 A 
HETATM   13  C14 UNL     1      23.874  -0.489  53.479  1.00  0.00     0.053 A 
HETATM   14  C15 UNL     1      22.502  -0.748  53.519  1.00  0.00     0.139 A 
HETATM   15  N2  UNL     1      21.550   0.180  53.139  1.00  0.00    -0.075 NA
HETATM   16  C16 UNL     1      21.964   1.371  52.713  1.00  0.00     0.727 A 
HETATM   17  N3  UNL     1      23.225   1.545  52.702  1.00  0.00    -0.062 NA
HETATM   18  N4  UNL     1      21.688   2.659  52.195  1.00  0.00    -0.192 N 
HETATM   19  H16 UNL     1      21.085   2.950  52.981  1.00  0.00     0.184 HD
ENDROOT
BRANCH   1  20
HETATM   20  C2  UNL     1      20.881   3.943  50.364  1.00  0.00     0.053 C 
HETATM   21  C1  UNL     1      20.581   3.343  49.004  1.00  0.00     0.011 C 
ENDBRANCH   1  20
TORSDOF 1
ENDMDL
