MODEL 1
REMARK VINA RESULT:      -8.1      0.000      0.000
REMARK  5 active torsions:
REMARK  status: ('A' for Active; 'I' for Inactive)
REMARK    1  A    between atoms: O1_2  and  C2_3 
REMARK    2  A    between atoms: C7_8  and  N1_9 
REMARK    3  A    between atoms: N1_9  and  C8_10 
REMARK    4  A    between atoms: C11_14  and  N3_15 
REMARK    5  A    between atoms: N3_15  and  C12_16 
ROOT
HETATM    1  C8  UNL     1      24.313   2.905  52.099  1.00  0.00     0.728 A 
HETATM    2  N2  UNL     1      23.206   2.317  51.549  1.00  0.00    -0.075 NA
HETATM    3  C9  UNL     1      22.915   1.024  51.858  1.00  0.00     0.140 A 
HETATM    4  C10 UNL     1      23.806   0.383  52.740  1.00  0.00     0.071 A 
HETATM    5  C11 UNL     1      24.936   1.008  53.290  1.00  0.00     0.148 A 
HETATM    6  N4  UNL     1      25.174   2.283  52.955  1.00  0.00    -0.045 NA
ENDROOT
BRANCH   1   7
HETATM    7  N1  UNL     1      24.388   4.228  51.591  1.00  0.00    -0.185 N 
HETATM    8  H8  UNL     1      23.697   4.876  52.033  1.00  0.00     0.184 HD
BRANCH   7   9
HETATM    9  C7  UNL     1      25.304   4.673  50.567  1.00  0.00     0.082 A 
HETATM   10  C2  UNL     1      25.373   5.998  50.136  1.00  0.00     0.095 A 
HETATM   11  C3  UNL     1      26.320   6.231  49.177  1.00  0.00     0.039 A 
HETATM   12  C4  UNL     1      27.170   5.300  48.629  1.00  0.00     0.003 A 
HETATM   13  C5  UNL     1      27.038   4.018  49.108  1.00  0.00     0.002 A 
HETATM   14  C6  UNL     1      26.118   3.640  50.082  1.00  0.00     0.033 A 
BRANCH  10  15
HETATM   15  O1  UNL     1      24.474   6.819  50.757  1.00  0.00    -0.354 OA
HETATM   16  C1  UNL     1      24.249   8.142  50.361  1.00  0.00     0.210 C 
ENDBRANCH  10  15
ENDBRANCH   7   9
ENDBRANCH   1   7
BRANCH   5  17
HETATM   17  N3  UNL     1      25.541   0.023  54.085  1.00  0.00    -0.340 N 
HETATM   18  H11 UNL     1      24.967  -0.472  54.804  1.00  0.00     0.167 HD
BRANCH  17  19
HETATM   19  C12 UNL     1      26.919  -0.229  53.852  1.00  0.00     0.039 A 
HETATM   20  C13 UNL     1      27.694   0.693  54.560  1.00  0.00     0.030 A 
HETATM   21  C14 UNL     1      29.090   0.745  54.559  1.00  0.00     0.002 A 
HETATM   22  C15 UNL     1      29.712  -0.202  53.786  1.00  0.00     0.001 A 
HETATM   23  C16 UNL     1      28.968  -1.118  53.081  1.00  0.00     0.009 A 
HETATM   24  C17 UNL     1      27.593  -1.168  53.084  1.00  0.00    -0.035 A 
HETATM   25  C18 UNL     1      26.688  -2.099  52.399  1.00  0.00     0.050 C 
ENDBRANCH  17  19
ENDBRANCH   5  17
TORSDOF 5
ENDMDL
MODEL 2
REMARK VINA RESULT:      -8.0      1.196      1.998
REMARK  5 active torsions:
REMARK  status: ('A' for Active; 'I' for Inactive)
REMARK    1  A    between atoms: O1_2  and  C2_3 
REMARK    2  A    between atoms: C7_8  and  N1_9 
REMARK    3  A    between atoms: N1_9  and  C8_10 
REMARK    4  A    between atoms: C11_14  and  N3_15 
REMARK    5  A    between atoms: N3_15  and  C12_16 
ROOT
HETATM    1  C8  UNL     1      25.119   2.937  50.975  1.00  0.00     0.728 A 
HETATM    2  N2  UNL     1      23.796   2.761  51.278  1.00  0.00    -0.075 NA
HETATM    3  C9  UNL     1      23.453   2.237  52.486  1.00  0.00     0.140 A 
HETATM    4  C10 UNL     1      24.520   1.908  53.344  1.00  0.00     0.071 A 
HETATM    5  C11 UNL     1      25.870   2.097  53.008  1.00  0.00     0.148 A 
HETATM    6  N4  UNL     1      26.151   2.619  51.808  1.00  0.00    -0.045 NA
ENDROOT
BRANCH   1   7
HETATM    7  N1  UNL     1      25.187   3.467  49.660  1.00  0.00    -0.185 N 
HETATM    8  H8  UNL     1      24.599   2.939  48.975  1.00  0.00     0.184 HD
BRANCH   7   9
HETATM    9  C7  UNL     1      25.977   4.610  49.265  1.00  0.00     0.082 A 
HETATM   10  C2  UNL     1      25.480   5.913  49.272  1.00  0.00     0.095 A 
HETATM   11  C3  UNL     1      26.385   6.865  48.891  1.00  0.00     0.039 A 
HETATM   12  C4  UNL     1      27.690   6.644  48.518  1.00  0.00     0.003 A 
HETATM   13  C5  UNL     1      28.101   5.332  48.538  1.00  0.00     0.002 A 
HETATM   14  C6  UNL     1      27.287   4.265  48.905  1.00  0.00     0.033 A 
BRANCH  10  15
HETATM   15  O1  UNL     1      24.172   5.994  49.660  1.00  0.00    -0.354 OA
HETATM   16  C1  UNL     1      23.770   6.552  50.879  1.00  0.00     0.210 C 
ENDBRANCH  10  15
ENDBRANCH   7   9
ENDBRANCH   1   7
BRANCH   5  17
HETATM   17  N3  UNL     1      26.585   1.629  54.121  1.00  0.00    -0.340 N 
HETATM   18  H11 UNL     1      26.315   1.960  55.074  1.00  0.00     0.167 HD
BRANCH  17  19
HETATM   19  C12 UNL     1      27.650   0.726  53.861  1.00  0.00     0.039 A 
HETATM   20  C13 UNL     1      27.134  -0.512  53.469  1.00  0.00     0.030 A 
HETATM   21  C14 UNL     1      27.894  -1.637  53.141  1.00  0.00     0.002 A 
HETATM   22  C15 UNL     1      29.253  -1.472  53.226  1.00  0.00     0.001 A 
HETATM   23  C16 UNL     1      29.781  -0.263  53.610  1.00  0.00     0.009 A 
HETATM   24  C17 UNL     1      29.031   0.845  53.932  1.00  0.00    -0.035 A 
HETATM   25  C18 UNL     1      29.467   2.188  54.333  1.00  0.00     0.050 C 
ENDBRANCH  17  19
ENDBRANCH   5  17
TORSDOF 5
ENDMDL
MODEL 3
REMARK VINA RESULT:      -8.0      2.267      6.804
REMARK  5 active torsions:
REMARK  status: ('A' for Active; 'I' for Inactive)
REMARK    1  A    between atoms: O1_2  and  C2_3 
REMARK    2  A    between atoms: C7_8  and  N1_9 
REMARK    3  A    between atoms: N1_9  and  C8_10 
REMARK    4  A    between atoms: C11_14  and  N3_15 
REMARK    5  A    between atoms: N3_15  and  C12_16 
ROOT
HETATM    1  C8  UNL     1      26.047   2.468  52.875  1.00  0.00     0.728 A 
HETATM    2  N2  UNL     1      24.881   2.843  53.485  1.00  0.00    -0.075 NA
HETATM    3  C9  UNL     1      23.907   3.446  52.750  1.00  0.00     0.140 A 
HETATM    4  C10 UNL     1      24.192   3.640  51.385  1.00  0.00     0.071 A 
HETATM    5  C11 UNL     1      25.398   3.247  50.783  1.00  0.00     0.148 A 
HETATM    6  N4  UNL     1      26.321   2.656  51.552  1.00  0.00    -0.045 NA
ENDROOT
BRANCH   1   7
HETATM    7  N1  UNL     1      26.883   1.897  53.869  1.00  0.00    -0.185 N 
HETATM    8  H8  UNL     1      26.851   2.415  54.777  1.00  0.00     0.184 HD
BRANCH   7   9
HETATM    9  C7  UNL     1      27.710   0.728  53.687  1.00  0.00     0.082 A 
HETATM   10  C2  UNL     1      27.186  -0.541  53.439  1.00  0.00     0.095 A 
HETATM   11  C3  UNL     1      28.127  -1.518  53.268  1.00  0.00     0.039 A 
HETATM   12  C4  UNL     1      29.491  -1.352  53.320  1.00  0.00     0.003 A 
HETATM   13  C5  UNL     1      29.926  -0.071  53.569  1.00  0.00     0.002 A 
HETATM   14  C6  UNL     1      29.080   1.016  53.762  1.00  0.00     0.033 A 
BRANCH  10  15
HETATM   15  O1  UNL     1      25.820  -0.569  53.415  1.00  0.00    -0.354 OA
HETATM   16  C1  UNL     1      25.041  -0.843  54.545  1.00  0.00     0.210 C 
ENDBRANCH  10  15
ENDBRANCH   7   9
ENDBRANCH   1   7
BRANCH   5  17
HETATM   17  N3  UNL     1      25.272   3.637  49.441  1.00  0.00    -0.340 N 
HETATM   18  H11 UNL     1      24.660   3.078  48.805  1.00  0.00     0.167 HD
BRANCH  17  19
HETATM   19  C12 UNL     1      26.008   4.783  49.037  1.00  0.00     0.039 A 
HETATM   20  C13 UNL     1      27.350   4.442  48.855  1.00  0.00     0.030 A 
HETATM   21  C14 UNL     1      28.362   5.324  48.465  1.00  0.00     0.002 A 
HETATM   22  C15 UNL     1      27.962   6.618  48.254  1.00  0.00     0.001 A 
HETATM   23  C16 UNL     1      26.646   6.974  48.427  1.00  0.00     0.009 A 
HETATM   24  C17 UNL     1      25.651   6.105  48.811  1.00  0.00    -0.035 A 
HETATM   25  C18 UNL     1      24.217   6.350  49.009  1.00  0.00     0.050 C 
ENDBRANCH  17  19
ENDBRANCH   5  17
TORSDOF 5
ENDMDL
MODEL 4
REMARK VINA RESULT:      -7.9      2.114      6.572
REMARK  5 active torsions:
REMARK  status: ('A' for Active; 'I' for Inactive)
REMARK    1  A    between atoms: O1_2  and  C2_3 
REMARK    2  A    between atoms: C7_8  and  N1_9 
REMARK    3  A    between atoms: N1_9  and  C8_10 
REMARK    4  A    between atoms: C11_14  and  N3_15 
REMARK    5  A    between atoms: N3_15  and  C12_16 
ROOT
HETATM    1  C8  UNL     1      25.290   1.599  52.989  1.00  0.00     0.728 A 
HETATM    2  N2  UNL     1      24.762   2.595  53.764  1.00  0.00    -0.075 NA
HETATM    3  C9  UNL     1      24.201   3.680  53.164  1.00  0.00     0.140 A 
HETATM    4  C10 UNL     1      24.215   3.686  51.756  1.00  0.00     0.071 A 
HETATM    5  C11 UNL     1      24.765   2.651  50.983  1.00  0.00     0.148 A 
HETATM    6  N4  UNL     1      25.302   1.605  51.625  1.00  0.00    -0.045 NA
ENDROOT
BRANCH   1   7
HETATM    7  N1  UNL     1      25.825   0.618  53.864  1.00  0.00    -0.185 N 
HETATM    8  H8  UNL     1      25.313   0.559  54.775  1.00  0.00     0.184 HD
BRANCH   7   9
HETATM    9  C7  UNL     1      26.958  -0.228  53.570  1.00  0.00     0.082 A 
HETATM   10  C2  UNL     1      28.271   0.132  53.872  1.00  0.00     0.095 A 
HETATM   11  C3  UNL     1      29.205  -0.811  53.542  1.00  0.00     0.039 A 
HETATM   12  C4  UNL     1      28.959  -2.032  52.961  1.00  0.00     0.003 A 
HETATM   13  C5  UNL     1      27.639  -2.310  52.695  1.00  0.00     0.002 A 
HETATM   14  C6  UNL     1      26.587  -1.444  52.978  1.00  0.00     0.033 A 
BRANCH  10  15
HETATM   15  O1  UNL     1      28.377   1.369  54.444  1.00  0.00    -0.354 OA
HETATM   16  C1  UNL     1      28.812   2.500  53.743  1.00  0.00     0.210 C 
ENDBRANCH  10  15
ENDBRANCH   7   9
ENDBRANCH   1   7
BRANCH   5  17
HETATM   17  N3  UNL     1      24.586   3.061  49.654  1.00  0.00    -0.340 N 
HETATM   18  H11 UNL     1      23.931   2.526  49.042  1.00  0.00     0.167 HD
BRANCH  17  19
HETATM   19  C12 UNL     1      25.330   4.194  49.229  1.00  0.00     0.039 A 
HETATM   20  C13 UNL     1      26.692   3.886  49.211  1.00  0.00     0.030 A 
HETATM   21  C14 UNL     1      27.716   4.766  48.850  1.00  0.00     0.002 A 
HETATM   22  C15 UNL     1      27.307   6.025  48.492  1.00  0.00     0.001 A 
HETATM   23  C16 UNL     1      25.972   6.349  48.502  1.00  0.00     0.009 A 
HETATM   24  C17 UNL     1      24.965   5.481  48.858  1.00  0.00    -0.035 A 
HETATM   25  C18 UNL     1      23.512   5.693  48.891  1.00  0.00     0.050 C 
ENDBRANCH  17  19
ENDBRANCH   5  17
TORSDOF 5
ENDMDL
MODEL 5
REMARK VINA RESULT:      -7.8      1.982      3.173
REMARK  5 active torsions:
REMARK  status: ('A' for Active; 'I' for Inactive)
REMARK    1  A    between atoms: O1_2  and  C2_3 
REMARK    2  A    between atoms: C7_8  and  N1_9 
REMARK    3  A    between atoms: N1_9  and  C8_10 
REMARK    4  A    between atoms: C11_14  and  N3_15 
REMARK    5  A    between atoms: N3_15  and  C12_16 
ROOT
HETATM    1  C8  UNL     1      26.372   3.154  50.282  1.00  0.00     0.728 A 
HETATM    2  N2  UNL     1      25.006   3.186  50.199  1.00  0.00    -0.075 NA
HETATM    3  C9  UNL     1      24.264   2.675  51.218  1.00  0.00     0.140 A 
HETATM    4  C10 UNL     1      24.986   2.138  52.301  1.00  0.00     0.071 A 
HETATM    5  C11 UNL     1      26.388   2.116  52.362  1.00  0.00     0.148 A 
HETATM    6  N4  UNL     1      27.070   2.635  51.333  1.00  0.00    -0.045 NA
ENDROOT
BRANCH   1   7
HETATM    7  N1  UNL     1      26.884   3.721  49.086  1.00  0.00    -0.185 N 
HETATM    8  H8  UNL     1      27.264   3.005  48.424  1.00  0.00     0.184 HD
BRANCH   7   9
HETATM    9  C7  UNL     1      26.904   5.131  48.778  1.00  0.00     0.082 A 
HETATM   10  C2  UNL     1      28.066   5.812  48.419  1.00  0.00     0.095 A 
HETATM   11  C3  UNL     1      27.881   7.138  48.138  1.00  0.00     0.039 A 
HETATM   12  C4  UNL     1      26.688   7.820  48.182  1.00  0.00     0.003 A 
HETATM   13  C5  UNL     1      25.589   7.076  48.545  1.00  0.00     0.002 A 
HETATM   14  C6  UNL     1      25.634   5.721  48.856  1.00  0.00     0.033 A 
BRANCH  10  15
HETATM   15  O1  UNL     1      29.181   5.021  48.416  1.00  0.00    -0.354 OA
HETATM   16  C1  UNL     1      30.423   5.454  47.937  1.00  0.00     0.210 C 
ENDBRANCH  10  15
ENDBRANCH   7   9
ENDBRANCH   1   7
BRANCH   5  17
HETATM   17  N3  UNL     1      26.685   1.490  53.582  1.00  0.00    -0.340 N 
HETATM   18  H11 UNL     1      26.147   1.760  54.435  1.00  0.00     0.167 HD
BRANCH  17  19
HETATM   19  C12 UNL     1      27.722   0.519  53.567  1.00  0.00     0.039 A 
HETATM   20  C13 UNL     1      27.227  -0.692  53.076  1.00  0.00     0.030 A 
HETATM   21  C14 UNL     1      27.968  -1.867  52.928  1.00  0.00     0.002 A 
HETATM   22  C15 UNL     1      29.284  -1.782  53.308  1.00  0.00     0.001 A 
HETATM   23  C16 UNL     1      29.790  -0.600  53.792  1.00  0.00     0.009 A 
HETATM   24  C17 UNL     1      29.059   0.556  53.937  1.00  0.00    -0.035 A 
HETATM   25  C18 UNL     1      29.481   1.878  54.417  1.00  0.00     0.050 C 
ENDBRANCH  17  19
ENDBRANCH   5  17
TORSDOF 5
ENDMDL
MODEL 6
REMARK VINA RESULT:      -7.6      1.171      2.065
REMARK  5 active torsions:
REMARK  status: ('A' for Active; 'I' for Inactive)
REMARK    1  A    between atoms: O1_2  and  C2_3 
REMARK    2  A    between atoms: C7_8  and  N1_9 
REMARK    3  A    between atoms: N1_9  and  C8_10 
REMARK    4  A    between atoms: C11_14  and  N3_15 
REMARK    5  A    between atoms: N3_15  and  C12_16 
ROOT
HETATM    1  C8  UNL     1      24.171   2.063  51.236  1.00  0.00     0.728 A 
HETATM    2  N2  UNL     1      22.883   1.600  51.221  1.00  0.00    -0.075 NA
HETATM    3  C9  UNL     1      22.507   0.645  52.114  1.00  0.00     0.140 A 
HETATM    4  C10 UNL     1      23.506   0.199  53.000  1.00  0.00     0.071 A 
HETATM    5  C11 UNL     1      24.821   0.688  52.995  1.00  0.00     0.148 A 
HETATM    6  N4  UNL     1      25.137   1.631  52.097  1.00  0.00    -0.045 NA
ENDROOT
BRANCH   1   7
HETATM    7  N1  UNL     1      24.291   3.021  50.196  1.00  0.00    -0.185 N 
HETATM    8  H8  UNL     1      24.315   2.589  49.243  1.00  0.00     0.184 HD
BRANCH   7   9
HETATM    9  C7  UNL     1      24.379   4.449  50.388  1.00  0.00     0.082 A 
HETATM   10  C2  UNL     1      25.510   5.191  50.046  1.00  0.00     0.095 A 
HETATM   11  C3  UNL     1      25.395   6.534  50.278  1.00  0.00     0.039 A 
HETATM   12  C4  UNL     1      24.299   7.179  50.800  1.00  0.00     0.003 A 
HETATM   13  C5  UNL     1      23.227   6.376  51.111  1.00  0.00     0.002 A 
HETATM   14  C6  UNL     1      23.206   4.997  50.927  1.00  0.00     0.033 A 
BRANCH  10  15
HETATM   15  O1  UNL     1      26.527   4.431  49.541  1.00  0.00    -0.354 OA
HETATM   16  C1  UNL     1      27.476   4.927  48.639  1.00  0.00     0.210 C 
ENDBRANCH  10  15
ENDBRANCH   7   9
ENDBRANCH   1   7
BRANCH   5  17
HETATM   17  N3  UNL     1      25.475  -0.026  54.010  1.00  0.00    -0.340 N 
HETATM   18  H11 UNL     1      24.930  -0.337  54.844  1.00  0.00     0.167 HD
BRANCH  17  19
HETATM   19  C12 UNL     1      26.862  -0.272  53.826  1.00  0.00     0.039 A 
HETATM   20  C13 UNL     1      27.608   0.663  54.548  1.00  0.00     0.030 A 
HETATM   21  C14 UNL     1      29.003   0.723  54.592  1.00  0.00     0.002 A 
HETATM   22  C15 UNL     1      29.655  -0.230  53.852  1.00  0.00     0.001 A 
HETATM   23  C16 UNL     1      28.940  -1.159  53.135  1.00  0.00     0.009 A 
HETATM   24  C17 UNL     1      27.566  -1.217  53.093  1.00  0.00    -0.035 A 
HETATM   25  C18 UNL     1      26.689  -2.162  52.390  1.00  0.00     0.050 C 
ENDBRANCH  17  19
ENDBRANCH   5  17
TORSDOF 5
ENDMDL
MODEL 7
REMARK VINA RESULT:      -7.3      3.096      3.715
REMARK  5 active torsions:
REMARK  status: ('A' for Active; 'I' for Inactive)
REMARK    1  A    between atoms: O1_2  and  C2_3 
REMARK    2  A    between atoms: C7_8  and  N1_9 
REMARK    3  A    between atoms: N1_9  and  C8_10 
REMARK    4  A    between atoms: C11_14  and  N3_15 
REMARK    5  A    between atoms: N3_15  and  C12_16 
ROOT
HETATM    1  C8  UNL     1      21.603   0.247  52.572  1.00  0.00     0.728 A 
HETATM    2  N2  UNL     1      20.700  -0.309  53.438  1.00  0.00    -0.075 NA
HETATM    3  C9  UNL     1      21.153  -0.991  54.525  1.00  0.00     0.140 A 
HETATM    4  C10 UNL     1      22.552  -1.071  54.668  1.00  0.00     0.071 A 
HETATM    5  C11 UNL     1      23.456  -0.493  53.763  1.00  0.00     0.148 A 
HETATM    6  N4  UNL     1      22.957   0.170  52.712  1.00  0.00    -0.045 NA
ENDROOT
BRANCH   1   7
HETATM    7  N1  UNL     1      20.865   0.866  51.530  1.00  0.00    -0.185 N 
HETATM    8  H8  UNL     1      19.831   0.731  51.624  1.00  0.00     0.184 HD
BRANCH   7   9
HETATM    9  C7  UNL     1      21.440   1.609  50.433  1.00  0.00     0.082 A 
HETATM   10  C2  UNL     1      21.960   2.894  50.578  1.00  0.00     0.095 A 
HETATM   11  C3  UNL     1      22.485   3.424  49.432  1.00  0.00     0.039 A 
HETATM   12  C4  UNL     1      22.536   2.813  48.202  1.00  0.00     0.003 A 
HETATM   13  C5  UNL     1      22.002   1.547  48.143  1.00  0.00     0.002 A 
HETATM   14  C6  UNL     1      21.437   0.888  49.230  1.00  0.00     0.033 A 
BRANCH  10  15
HETATM   15  O1  UNL     1      21.845   3.387  51.848  1.00  0.00    -0.354 OA
HETATM   16  C1  UNL     1      22.131   4.716  52.180  1.00  0.00     0.210 C 
ENDBRANCH  10  15
ENDBRANCH   7   9
ENDBRANCH   1   7
BRANCH   5  17
HETATM   17  N3  UNL     1      24.725  -0.820  54.265  1.00  0.00    -0.340 N 
HETATM   18  H11 UNL     1      24.803  -1.540  55.018  1.00  0.00     0.167 HD
BRANCH  17  19
HETATM   19  C12 UNL     1      25.832  -0.130  53.703  1.00  0.00     0.039 A 
HETATM   20  C13 UNL     1      25.825   1.200  54.131  1.00  0.00     0.030 A 
HETATM   21  C14 UNL     1      26.763   2.171  53.769  1.00  0.00     0.002 A 
HETATM   22  C15 UNL     1      27.754   1.742  52.924  1.00  0.00     0.001 A 
HETATM   23  C16 UNL     1      27.779   0.437  52.491  1.00  0.00     0.009 A 
HETATM   24  C17 UNL     1      26.854  -0.517  52.849  1.00  0.00    -0.035 A 
HETATM   25  C18 UNL     1      26.780  -1.936  52.478  1.00  0.00     0.050 C 
ENDBRANCH  17  19
ENDBRANCH   5  17
TORSDOF 5
ENDMDL
MODEL 8
REMARK VINA RESULT:      -7.2      5.329      7.855
REMARK  5 active torsions:
REMARK  status: ('A' for Active; 'I' for Inactive)
REMARK    1  A    between atoms: O1_2  and  C2_3 
REMARK    2  A    between atoms: C7_8  and  N1_9 
REMARK    3  A    between atoms: N1_9  and  C8_10 
REMARK    4  A    between atoms: C11_14  and  N3_15 
REMARK    5  A    between atoms: N3_15  and  C12_16 
ROOT
HETATM    1  C8  UNL     1      29.297   6.459  48.402  1.00  0.00     0.728 A 
HETATM    2  N2  UNL     1      29.485   7.802  48.593  1.00  0.00    -0.075 NA
HETATM    3  C9  UNL     1      30.701   8.253  49.002  1.00  0.00     0.140 A 
HETATM    4  C10 UNL     1      31.691   7.272  49.203  1.00  0.00     0.071 A 
HETATM    5  C11 UNL     1      31.472   5.900  49.002  1.00  0.00     0.148 A 
HETATM    6  N4  UNL     1      30.257   5.510  48.596  1.00  0.00    -0.045 NA
ENDROOT
BRANCH   1   7
HETATM    7  N1  UNL     1      27.947   6.271  48.008  1.00  0.00    -0.185 N 
HETATM    8  H8  UNL     1      27.757   6.595  47.032  1.00  0.00     0.184 HD
BRANCH   7   9
HETATM    9  C7  UNL     1      26.912   5.701  48.837  1.00  0.00     0.082 A 
HETATM   10  C2  UNL     1      25.884   6.461  49.397  1.00  0.00     0.095 A 
HETATM   11  C3  UNL     1      24.983   5.740  50.130  1.00  0.00     0.039 A 
HETATM   12  C4  UNL     1      25.012   4.383  50.350  1.00  0.00     0.003 A 
HETATM   13  C5  UNL     1      26.057   3.707  49.764  1.00  0.00     0.002 A 
HETATM   14  C6  UNL     1      27.043   4.314  48.992  1.00  0.00     0.033 A 
BRANCH  10  15
HETATM   15  O1  UNL     1      25.973   7.793  49.104  1.00  0.00    -0.354 OA
HETATM   16  C1  UNL     1      26.264   8.768  50.065  1.00  0.00     0.210 C 
ENDBRANCH  10  15
ENDBRANCH   7   9
ENDBRANCH   1   7
BRANCH   5  17
HETATM   17  N3  UNL     1      32.693   5.290  49.327  1.00  0.00    -0.340 N 
HETATM   18  H11 UNL     1      33.003   5.275  50.324  1.00  0.00     0.167 HD
BRANCH  17  19
HETATM   19  C12 UNL     1      33.434   4.732  48.252  1.00  0.00     0.039 A 
HETATM   20  C13 UNL     1      32.820   3.555  47.815  1.00  0.00     0.030 A 
HETATM   21  C14 UNL     1      33.280   2.740  46.778  1.00  0.00     0.002 A 
HETATM   22  C15 UNL     1      34.431   3.165  46.165  1.00  0.00     0.001 A 
HETATM   23  C16 UNL     1      35.051   4.320  46.578  1.00  0.00     0.009 A 
HETATM   24  C17 UNL     1      34.596   5.121  47.600  1.00  0.00    -0.035 A 
HETATM   25  C18 UNL     1      35.147   6.379  48.121  1.00  0.00     0.050 C 
ENDBRANCH  17  19
ENDBRANCH   5  17
TORSDOF 5
ENDMDL
MODEL 9
REMARK VINA RESULT:      -7.2      3.169      6.853
REMARK  5 active torsions:
REMARK  status: ('A' for Active; 'I' for Inactive)
REMARK    1  A    between atoms: O1_2  and  C2_3 
REMARK    2  A    between atoms: C7_8  and  N1_9 
REMARK    3  A    between atoms: N1_9  and  C8_10 
REMARK    4  A    between atoms: C11_14  and  N3_15 
REMARK    5  A    between atoms: N3_15  and  C12_16 
ROOT
HETATM    1  C8  UNL     1      24.493   0.397  53.426  1.00  0.00     0.728 A 
HETATM    2  N2  UNL     1      23.994  -0.638  54.169  1.00  0.00    -0.075 NA
HETATM    3  C9  UNL     1      22.703  -1.027  53.988  1.00  0.00     0.140 A 
HETATM    4  C10 UNL     1      21.969  -0.308  53.025  1.00  0.00     0.071 A 
HETATM    5  C11 UNL     1      22.504   0.752  52.276  1.00  0.00     0.148 A 
HETATM    6  N4  UNL     1      23.781   1.092  52.493  1.00  0.00    -0.045 NA
ENDROOT
BRANCH   1   7
HETATM    7  N1  UNL     1      25.836   0.605  53.834  1.00  0.00    -0.185 N 
HETATM    8  H8  UNL     1      25.968   1.493  54.372  1.00  0.00     0.184 HD
BRANCH   7   9
HETATM    9  C7  UNL     1      26.937  -0.287  53.554  1.00  0.00     0.082 A 
HETATM   10  C2  UNL     1      28.240  -0.041  53.985  1.00  0.00     0.095 A 
HETATM   11  C3  UNL     1      29.140  -1.013  53.646  1.00  0.00     0.039 A 
HETATM   12  C4  UNL     1      28.870  -2.162  52.942  1.00  0.00     0.003 A 
HETATM   13  C5  UNL     1      27.561  -2.329  52.553  1.00  0.00     0.002 A 
HETATM   14  C6  UNL     1      26.544  -1.422  52.831  1.00  0.00     0.033 A 
BRANCH  10  15
HETATM   15  O1  UNL     1      28.373   1.134  54.671  1.00  0.00    -0.354 OA
HETATM   16  C1  UNL     1      29.388   2.061  54.407  1.00  0.00     0.210 C 
ENDBRANCH  10  15
ENDBRANCH   7   9
ENDBRANCH   1   7
BRANCH   5  17
HETATM   17  N3  UNL     1      21.447   1.187  51.463  1.00  0.00    -0.340 N 
HETATM   18  H11 UNL     1      20.484   0.824  51.644  1.00  0.00     0.167 HD
BRANCH  17  19
HETATM   19  C12 UNL     1      21.773   2.104  50.428  1.00  0.00     0.039 A 
HETATM   20  C13 UNL     1      22.054   1.406  49.251  1.00  0.00     0.030 A 
HETATM   21  C14 UNL     1      22.418   1.989  48.034  1.00  0.00     0.002 A 
HETATM   22  C15 UNL     1      22.495   3.358  48.039  1.00  0.00     0.001 A 
HETATM   23  C16 UNL     1      22.222   4.063  49.186  1.00  0.00     0.009 A 
HETATM   24  C17 UNL     1      21.863   3.488  50.384  1.00  0.00    -0.035 A 
HETATM   25  C18 UNL     1      21.528   4.122  51.665  1.00  0.00     0.050 C 
ENDBRANCH  17  19
ENDBRANCH   5  17
TORSDOF 5
ENDMDL
