MODEL 1
REMARK VINA RESULT:      -8.6      0.000      0.000
REMARK  6 active torsions:
REMARK  status: ('A' for Active; 'I' for Inactive)
REMARK    1  A    between atoms: C7_7  and  N1_8 
REMARK    2  A    between atoms: N1_8  and  C8_9 
REMARK    3  A    between atoms: C12_16  and  C13_17 
REMARK    4  A    between atoms: C13_17  and  O1_18 
REMARK    5  A    between atoms: O1_18  and  C14_19 
REMARK    6  A    between atoms: C14_19  and  C15_20 
ROOT
HETATM    1  C1  UNL     1      27.453   4.998  48.582  1.00  0.00     0.018 C 
HETATM    2  C2  UNL     1      26.519   4.696  49.282  1.00  0.00    -0.078 C 
HETATM    3  C3  UNL     1      25.406   4.333  50.118  1.00  0.00     0.019 A 
HETATM    4  C4  UNL     1      24.737   5.377  50.703  1.00  0.00     0.021 A 
HETATM    5  C5  UNL     1      23.669   5.107  51.510  1.00  0.00     0.004 A 
HETATM    6  C6  UNL     1      23.290   3.805  51.720  1.00  0.00     0.029 A 
HETATM    7  C7  UNL     1      23.923   2.689  51.159  1.00  0.00     0.035 A 
HETATM    8  C20 UNL     1      24.994   3.050  50.354  1.00  0.00     0.050 A 
ENDROOT
BRANCH   7   9
HETATM    9  N1  UNL     1      23.559   1.319  51.330  1.00  0.00    -0.339 N 
HETATM   10  H5  UNL     1      24.402   0.820  51.008  1.00  0.00     0.167 HD
BRANCH   9  11
HETATM   11  C8  UNL     1      22.313   0.863  51.832  1.00  0.00     0.159 A 
HETATM   12  N2  UNL     1      21.186   1.286  51.247  1.00  0.00    -0.220 NA
HETATM   13  C9  UNL     1      19.975   0.903  51.673  1.00  0.00     0.258 A 
HETATM   14  N3  UNL     1      19.880   0.068  52.721  1.00  0.00    -0.161 NA
HETATM   15  N4  UNL     1      21.029  -0.332  53.279  1.00  0.00    -0.240 N 
HETATM   16  C10 UNL     1      21.061  -1.164  54.335  1.00  0.00     0.119 A 
HETATM   17  C19 UNL     1      22.277   0.009  52.906  1.00  0.00     0.112 A 
HETATM   18  C11 UNL     1      22.400  -1.335  54.616  1.00  0.00     0.031 A 
HETATM   19  C12 UNL     1      23.193  -0.600  53.722  1.00  0.00    -0.001 A 
BRANCH  19  20
HETATM   20  C13 UNL     1      24.668  -0.494  53.658  1.00  0.00     0.208 C 
BRANCH  20  21
HETATM   21  O1  UNL     1      25.200   0.734  53.830  1.00  0.00    -0.384 OA
BRANCH  21  22
HETATM   22  C14 UNL     1      26.492   0.995  53.594  1.00  0.00     0.201 C 
BRANCH  22  23
HETATM   23  C15 UNL     1      27.538   0.081  54.176  1.00  0.00     0.173 C 
HETATM   24  C16 UNL     1      28.743   0.941  54.435  1.00  0.00     0.303 C 
HETATM   25  N5  UNL     1      29.815   0.598  53.486  1.00  0.00     0.088 N 
HETATM   26  C17 UNL     1      30.114  -0.799  53.773  1.00  0.00     0.295 C 
HETATM   27  H16 UNL     1      29.410   0.687  52.529  1.00  0.00     0.316 HD
HETATM   28  C18 UNL     1      28.931  -1.621  53.365  1.00  0.00     0.198 C 
HETATM   29  O2  UNL     1      27.724  -1.021  53.460  1.00  0.00    -0.380 OA
ENDBRANCH  22  23
ENDBRANCH  21  22
ENDBRANCH  20  21
ENDBRANCH  19  20
ENDBRANCH   9  11
ENDBRANCH   7   9
TORSDOF 6
ENDMDL
MODEL 2
REMARK VINA RESULT:      -8.4      1.557      5.919
REMARK  6 active torsions:
REMARK  status: ('A' for Active; 'I' for Inactive)
REMARK    1  A    between atoms: C7_7  and  N1_8 
REMARK    2  A    between atoms: N1_8  and  C8_9 
REMARK    3  A    between atoms: C12_16  and  C13_17 
REMARK    4  A    between atoms: C13_17  and  O1_18 
REMARK    5  A    between atoms: O1_18  and  C14_19 
REMARK    6  A    between atoms: C14_19  and  C15_20 
ROOT
HETATM    1  C1  UNL     1      27.556   5.009  48.457  1.00  0.00     0.018 C 
HETATM    2  C2  UNL     1      26.792   4.448  49.202  1.00  0.00    -0.078 C 
HETATM    3  C3  UNL     1      25.881   3.780  50.094  1.00  0.00     0.019 A 
HETATM    4  C4  UNL     1      24.578   3.716  49.674  1.00  0.00     0.021 A 
HETATM    5  C5  UNL     1      23.657   3.096  50.469  1.00  0.00     0.004 A 
HETATM    6  C6  UNL     1      24.052   2.555  51.667  1.00  0.00     0.029 A 
HETATM    7  C7  UNL     1      25.361   2.583  52.162  1.00  0.00     0.035 A 
HETATM    8  C20 UNL     1      26.231   3.227  51.295  1.00  0.00     0.050 A 
ENDROOT
BRANCH   7   9
HETATM    9  N1  UNL     1      25.827   2.020  53.390  1.00  0.00    -0.339 N 
HETATM   10  H5  UNL     1      24.990   2.066  53.991  1.00  0.00     0.167 HD
BRANCH   9  11
HETATM   11  C8  UNL     1      27.142   1.541  53.619  1.00  0.00     0.159 A 
HETATM   12  N2  UNL     1      28.082   2.399  54.034  1.00  0.00    -0.220 NA
HETATM   13  C9  UNL     1      29.345   2.019  54.262  1.00  0.00     0.258 A 
HETATM   14  N3  UNL     1      29.690   0.734  54.071  1.00  0.00    -0.161 NA
HETATM   15  N4  UNL     1      28.723  -0.093  53.655  1.00  0.00    -0.240 N 
HETATM   16  C10 UNL     1      28.949  -1.399  53.426  1.00  0.00     0.119 A 
HETATM   17  C19 UNL     1      27.437   0.217  53.407  1.00  0.00     0.112 A 
HETATM   18  C11 UNL     1      27.734  -1.906  53.016  1.00  0.00     0.031 A 
HETATM   19  C12 UNL     1      26.757  -0.898  52.996  1.00  0.00    -0.001 A 
BRANCH  19  20
HETATM   20  C13 UNL     1      25.328  -0.997  52.623  1.00  0.00     0.208 C 
BRANCH  20  21
HETATM   21  O1  UNL     1      24.426  -0.685  53.577  1.00  0.00    -0.384 OA
BRANCH  21  22
HETATM   22  C14 UNL     1      23.136  -1.031  53.483  1.00  0.00     0.201 C 
BRANCH  22  23
HETATM   23  C15 UNL     1      22.120   0.026  53.138  1.00  0.00     0.173 C 
HETATM   24  C16 UNL     1      21.142   0.051  54.280  1.00  0.00     0.303 C 
HETATM   25  N5  UNL     1      19.849  -0.500  53.843  1.00  0.00     0.088 N 
HETATM   26  C17 UNL     1      19.417   0.399  52.780  1.00  0.00     0.295 C 
HETATM   27  H16 UNL     1      20.042  -1.448  53.452  1.00  0.00     0.316 HD
HETATM   28  C18 UNL     1      20.345   0.227  51.619  1.00  0.00     0.198 C 
HETATM   29  O2  UNL     1      21.619  -0.113  51.916  1.00  0.00    -0.380 OA
ENDBRANCH  22  23
ENDBRANCH  21  22
ENDBRANCH  20  21
ENDBRANCH  19  20
ENDBRANCH   9  11
ENDBRANCH   7   9
TORSDOF 6
ENDMDL
MODEL 3
REMARK VINA RESULT:      -8.4      1.927      2.889
REMARK  6 active torsions:
REMARK  status: ('A' for Active; 'I' for Inactive)
REMARK    1  A    between atoms: C7_7  and  N1_8 
REMARK    2  A    between atoms: N1_8  and  C8_9 
REMARK    3  A    between atoms: C12_16  and  C13_17 
REMARK    4  A    between atoms: C13_17  and  O1_18 
REMARK    5  A    between atoms: O1_18  and  C14_19 
REMARK    6  A    between atoms: C14_19  and  C15_20 
ROOT
HETATM    1  C1  UNL     1      29.994   5.570  48.008  1.00  0.00     0.018 C 
HETATM    2  C2  UNL     1      28.821   5.514  48.282  1.00  0.00    -0.078 C 
HETATM    3  C3  UNL     1      27.422   5.447  48.613  1.00  0.00     0.019 A 
HETATM    4  C4  UNL     1      26.692   6.574  48.338  1.00  0.00     0.021 A 
HETATM    5  C5  UNL     1      25.357   6.582  48.625  1.00  0.00     0.004 A 
HETATM    6  C6  UNL     1      24.776   5.470  49.181  1.00  0.00     0.029 A 
HETATM    7  C7  UNL     1      25.457   4.286  49.490  1.00  0.00     0.035 A 
HETATM    8  C20 UNL     1      26.803   4.360  49.167  1.00  0.00     0.050 A 
ENDROOT
BRANCH   7   9
HETATM    9  N1  UNL     1      24.899   3.096  50.051  1.00  0.00    -0.339 N 
HETATM   10  H5  UNL     1      25.651   2.767  50.674  1.00  0.00     0.167 HD
BRANCH   9  11
HETATM   11  C8  UNL     1      23.610   2.583  49.755  1.00  0.00     0.159 A 
HETATM   12  N2  UNL     1      23.185   2.591  48.486  1.00  0.00    -0.220 NA
HETATM   13  C9  UNL     1      21.978   2.129  48.135  1.00  0.00     0.258 A 
HETATM   14  N3  UNL     1      21.159   1.641  49.082  1.00  0.00    -0.161 NA
HETATM   15  N4  UNL     1      21.620   1.651  50.339  1.00  0.00    -0.240 N 
HETATM   16  C10 UNL     1      20.891   1.192  51.372  1.00  0.00     0.119 A 
HETATM   17  C19 UNL     1      22.817   2.095  50.764  1.00  0.00     0.112 A 
HETATM   18  C11 UNL     1      21.690   1.369  52.481  1.00  0.00     0.031 A 
HETATM   19  C12 UNL     1      22.920   1.942  52.121  1.00  0.00    -0.001 A 
BRANCH  19  20
HETATM   20  C13 UNL     1      24.065   2.301  52.986  1.00  0.00     0.208 C 
BRANCH  20  21
HETATM   21  O1  UNL     1      25.244   1.701  52.717  1.00  0.00    -0.384 OA
BRANCH  21  22
HETATM   22  C14 UNL     1      25.358   0.374  52.583  1.00  0.00     0.201 C 
BRANCH  22  23
HETATM   23  C15 UNL     1      26.368  -0.361  53.424  1.00  0.00     0.173 C 
HETATM   24  C16 UNL     1      26.499   0.427  54.698  1.00  0.00     0.303 C 
HETATM   25  N5  UNL     1      27.814   1.088  54.744  1.00  0.00     0.088 N 
HETATM   26  C17 UNL     1      28.769  -0.014  54.723  1.00  0.00     0.295 C 
HETATM   27  H16 UNL     1      27.899   1.650  53.870  1.00  0.00     0.316 HD
HETATM   28  C18 UNL     1      28.691  -0.672  53.381  1.00  0.00     0.198 C 
HETATM   29  O2  UNL     1      27.488  -0.640  52.768  1.00  0.00    -0.380 OA
ENDBRANCH  22  23
ENDBRANCH  21  22
ENDBRANCH  20  21
ENDBRANCH  19  20
ENDBRANCH   9  11
ENDBRANCH   7   9
TORSDOF 6
ENDMDL
MODEL 4
REMARK VINA RESULT:      -8.3      2.244      5.546
REMARK  6 active torsions:
REMARK  status: ('A' for Active; 'I' for Inactive)
REMARK    1  A    between atoms: C7_7  and  N1_8 
REMARK    2  A    between atoms: N1_8  and  C8_9 
REMARK    3  A    between atoms: C12_16  and  C13_17 
REMARK    4  A    between atoms: C13_17  and  O1_18 
REMARK    5  A    between atoms: O1_18  and  C14_19 
REMARK    6  A    between atoms: C14_19  and  C15_20 
ROOT
HETATM    1  C1  UNL     1      30.165  -1.706  53.756  1.00  0.00     0.018 C 
HETATM    2  C2  UNL     1      29.318  -0.868  53.572  1.00  0.00    -0.078 C 
HETATM    3  C3  UNL     1      28.305   0.130  53.356  1.00  0.00     0.019 A 
HETATM    4  C4  UNL     1      28.718   1.432  53.476  1.00  0.00     0.021 A 
HETATM    5  C5  UNL     1      27.809   2.433  53.283  1.00  0.00     0.004 A 
HETATM    6  C6  UNL     1      26.509   2.119  52.976  1.00  0.00     0.029 A 
HETATM    7  C7  UNL     1      26.015   0.816  52.838  1.00  0.00     0.035 A 
HETATM    8  C20 UNL     1      26.999  -0.139  53.048  1.00  0.00     0.050 A 
ENDROOT
BRANCH   7   9
HETATM    9  N1  UNL     1      24.680   0.436  52.502  1.00  0.00    -0.339 N 
HETATM   10  H5  UNL     1      24.614   0.701  51.508  1.00  0.00     0.167 HD
BRANCH   9  11
HETATM   11  C8  UNL     1      23.753  -0.159  53.395  1.00  0.00     0.159 A 
HETATM   12  N2  UNL     1      24.209  -0.737  54.513  1.00  0.00    -0.220 NA
HETATM   13  C9  UNL     1      23.392  -1.325  55.396  1.00  0.00     0.258 A 
HETATM   14  N3  UNL     1      22.070  -1.339  55.161  1.00  0.00    -0.161 NA
HETATM   15  N4  UNL     1      21.652  -0.751  54.033  1.00  0.00    -0.240 N 
HETATM   16  C10 UNL     1      20.353  -0.706  53.689  1.00  0.00     0.119 A 
HETATM   17  C19 UNL     1      22.411  -0.143  53.103  1.00  0.00     0.112 A 
HETATM   18  C11 UNL     1      20.325  -0.035  52.485  1.00  0.00     0.031 A 
HETATM   19  C12 UNL     1      21.621   0.334  52.091  1.00  0.00    -0.001 A 
BRANCH  19  20
HETATM   20  C13 UNL     1      22.051   1.063  50.878  1.00  0.00     0.208 C 
BRANCH  20  21
HETATM   21  O1  UNL     1      22.830   2.149  51.063  1.00  0.00    -0.384 OA
BRANCH  21  22
HETATM   22  C14 UNL     1      23.567   2.679  50.078  1.00  0.00     0.201 C 
BRANCH  22  23
HETATM   23  C15 UNL     1      23.573   4.174  49.895  1.00  0.00     0.173 C 
HETATM   24  C16 UNL     1      24.936   4.522  49.366  1.00  0.00     0.303 C 
HETATM   25  N5  UNL     1      25.706   5.235  50.399  1.00  0.00     0.088 N 
HETATM   26  C17 UNL     1      24.932   6.444  50.651  1.00  0.00     0.295 C 
HETATM   27  H16 UNL     1      25.707   4.628  51.246  1.00  0.00     0.316 HD
HETATM   28  C18 UNL     1      23.646   6.045  51.306  1.00  0.00     0.198 C 
HETATM   29  O2  UNL     1      23.156   4.831  50.970  1.00  0.00    -0.380 OA
ENDBRANCH  22  23
ENDBRANCH  21  22
ENDBRANCH  20  21
ENDBRANCH  19  20
ENDBRANCH   9  11
ENDBRANCH   7   9
TORSDOF 6
ENDMDL
MODEL 5
REMARK VINA RESULT:      -8.0      2.018      3.220
REMARK  6 active torsions:
REMARK  status: ('A' for Active; 'I' for Inactive)
REMARK    1  A    between atoms: C7_7  and  N1_8 
REMARK    2  A    between atoms: N1_8  and  C8_9 
REMARK    3  A    between atoms: C12_16  and  C13_17 
REMARK    4  A    between atoms: C13_17  and  O1_18 
REMARK    5  A    between atoms: O1_18  and  C14_19 
REMARK    6  A    between atoms: C14_19  and  C15_20 
ROOT
HETATM    1  C1  UNL     1      25.643   9.361  48.624  1.00  0.00     0.018 C 
HETATM    2  C2  UNL     1      25.912   8.197  48.787  1.00  0.00    -0.078 C 
HETATM    3  C3  UNL     1      26.230   6.807  48.979  1.00  0.00     0.019 A 
HETATM    4  C4  UNL     1      27.384   6.373  48.381  1.00  0.00     0.021 A 
HETATM    5  C5  UNL     1      27.750   5.064  48.521  1.00  0.00     0.004 A 
HETATM    6  C6  UNL     1      26.958   4.215  49.253  1.00  0.00     0.029 A 
HETATM    7  C7  UNL     1      25.767   4.584  49.890  1.00  0.00     0.035 A 
HETATM    8  C20 UNL     1      25.470   5.926  49.700  1.00  0.00     0.050 A 
ENDROOT
BRANCH   7   9
HETATM    9  N1  UNL     1      24.918   3.747  50.677  1.00  0.00    -0.339 N 
HETATM   10  H5  UNL     1      25.269   3.907  51.633  1.00  0.00     0.167 HD
BRANCH   9  11
HETATM   11  C8  UNL     1      23.874   2.935  50.165  1.00  0.00     0.159 A 
HETATM   12  N2  UNL     1      23.518   3.070  48.882  1.00  0.00    -0.220 NA
HETATM   13  C9  UNL     1      22.535   2.342  48.335  1.00  0.00     0.258 A 
HETATM   14  N3  UNL     1      21.881   1.446  49.091  1.00  0.00    -0.161 NA
HETATM   15  N4  UNL     1      22.266   1.340  50.369  1.00  0.00    -0.240 N 
HETATM   16  C10 UNL     1      21.683   0.481  51.223  1.00  0.00     0.119 A 
HETATM   17  C19 UNL     1      23.240   2.034  50.986  1.00  0.00     0.112 A 
HETATM   18  C11 UNL     1      22.340   0.665  52.421  1.00  0.00     0.031 A 
HETATM   19  C12 UNL     1      23.335   1.648  52.296  1.00  0.00    -0.001 A 
BRANCH  19  20
HETATM   20  C13 UNL     1      24.272   2.157  53.322  1.00  0.00     0.208 C 
BRANCH  20  21
HETATM   21  O1  UNL     1      25.403   1.448  53.521  1.00  0.00    -0.384 OA
BRANCH  21  22
HETATM   22  C14 UNL     1      26.619   1.962  53.299  1.00  0.00     0.201 C 
BRANCH  22  23
HETATM   23  C15 UNL     1      27.730   1.044  52.862  1.00  0.00     0.173 C 
HETATM   24  C16 UNL     1      27.066  -0.222  52.400  1.00  0.00     0.303 C 
HETATM   25  N5  UNL     1      27.339  -1.307  53.357  1.00  0.00     0.088 N 
HETATM   26  C17 UNL     1      28.790  -1.452  53.330  1.00  0.00     0.295 C 
HETATM   27  H16 UNL     1      27.032  -0.967  54.294  1.00  0.00     0.316 HD
HETATM   28  C18 UNL     1      29.391  -0.220  53.931  1.00  0.00     0.198 C 
HETATM   29  O2  UNL     1      28.694   0.927  53.768  1.00  0.00    -0.380 OA
ENDBRANCH  22  23
ENDBRANCH  21  22
ENDBRANCH  20  21
ENDBRANCH  19  20
ENDBRANCH   9  11
ENDBRANCH   7   9
TORSDOF 6
ENDMDL
MODEL 6
REMARK VINA RESULT:      -7.9      1.696      2.328
REMARK  6 active torsions:
REMARK  status: ('A' for Active; 'I' for Inactive)
REMARK    1  A    between atoms: C7_7  and  N1_8 
REMARK    2  A    between atoms: N1_8  and  C8_9 
REMARK    3  A    between atoms: C12_16  and  C13_17 
REMARK    4  A    between atoms: C13_17  and  O1_18 
REMARK    5  A    between atoms: O1_18  and  C14_19 
REMARK    6  A    between atoms: C14_19  and  C15_20 
ROOT
HETATM    1  C1  UNL     1      25.625   7.666  48.045  1.00  0.00     0.018 C 
HETATM    2  C2  UNL     1      25.644   6.635  48.670  1.00  0.00    -0.078 C 
HETATM    3  C3  UNL     1      25.664   5.404  49.416  1.00  0.00     0.019 A 
HETATM    4  C4  UNL     1      26.552   4.457  48.975  1.00  0.00     0.021 A 
HETATM    5  C5  UNL     1      26.626   3.264  49.635  1.00  0.00     0.004 A 
HETATM    6  C6  UNL     1      25.814   3.037  50.718  1.00  0.00     0.029 A 
HETATM    7  C7  UNL     1      24.885   3.954  51.224  1.00  0.00     0.035 A 
HETATM    8  C20 UNL     1      24.874   5.137  50.500  1.00  0.00     0.050 A 
ENDROOT
BRANCH   7   9
HETATM    9  N1  UNL     1      24.032   3.776  52.356  1.00  0.00    -0.339 N 
HETATM   10  H5  UNL     1      24.578   4.205  53.119  1.00  0.00     0.167 HD
BRANCH   9  11
HETATM   11  C8  UNL     1      22.760   3.150  52.328  1.00  0.00     0.159 A 
HETATM   12  N2  UNL     1      21.692   3.868  51.960  1.00  0.00    -0.220 NA
HETATM   13  C9  UNL     1      20.460   3.344  51.918  1.00  0.00     0.258 A 
HETATM   14  N3  UNL     1      20.281   2.056  52.255  1.00  0.00    -0.161 NA
HETATM   15  N4  UNL     1      21.373   1.371  52.618  1.00  0.00    -0.240 N 
HETATM   16  C10 UNL     1      21.318   0.077  52.980  1.00  0.00     0.119 A 
HETATM   17  C19 UNL     1      22.637   1.829  52.683  1.00  0.00     0.112 A 
HETATM   18  C11 UNL     1      22.620  -0.266  53.280  1.00  0.00     0.031 A 
HETATM   19  C12 UNL     1      23.477   0.831  53.099  1.00  0.00    -0.001 A 
BRANCH  19  20
HETATM   20  C13 UNL     1      24.940   0.910  53.303  1.00  0.00     0.208 C 
BRANCH  20  21
HETATM   21  O1  UNL     1      25.578  -0.243  53.599  1.00  0.00    -0.384 OA
BRANCH  21  22
HETATM   22  C14 UNL     1      26.623  -0.686  52.888  1.00  0.00     0.201 C 
BRANCH  22  23
HETATM   23  C15 UNL     1      27.925   0.068  52.959  1.00  0.00     0.173 C 
HETATM   24  C16 UNL     1      28.571  -0.339  54.254  1.00  0.00     0.303 C 
HETATM   25  N5  UNL     1      28.545   0.787  55.201  1.00  0.00     0.088 N 
HETATM   26  C17 UNL     1      29.328   1.826  54.544  1.00  0.00     0.295 C 
HETATM   27  H16 UNL     1      27.550   1.088  55.284  1.00  0.00     0.316 HD
HETATM   28  C18 UNL     1      28.568   2.290  53.341  1.00  0.00     0.198 C 
HETATM   29  O2  UNL     1      27.786   1.370  52.736  1.00  0.00    -0.380 OA
ENDBRANCH  22  23
ENDBRANCH  21  22
ENDBRANCH  20  21
ENDBRANCH  19  20
ENDBRANCH   9  11
ENDBRANCH   7   9
TORSDOF 6
ENDMDL
MODEL 7
REMARK VINA RESULT:      -7.9      1.868      5.551
REMARK  6 active torsions:
REMARK  status: ('A' for Active; 'I' for Inactive)
REMARK    1  A    between atoms: C7_7  and  N1_8 
REMARK    2  A    between atoms: N1_8  and  C8_9 
REMARK    3  A    between atoms: C12_16  and  C13_17 
REMARK    4  A    between atoms: C13_17  and  O1_18 
REMARK    5  A    between atoms: O1_18  and  C14_19 
REMARK    6  A    between atoms: C14_19  and  C15_20 
ROOT
HETATM    1  C1  UNL     1      18.193  -0.900  53.051  1.00  0.00     0.018 C 
HETATM    2  C2  UNL     1      19.375  -0.680  53.144  1.00  0.00    -0.078 C 
HETATM    3  C3  UNL     1      20.785  -0.413  53.256  1.00  0.00     0.019 A 
HETATM    4  C4  UNL     1      21.445  -1.110  54.235  1.00  0.00     0.021 A 
HETATM    5  C5  UNL     1      22.786  -0.909  54.399  1.00  0.00     0.004 A 
HETATM    6  C6  UNL     1      23.441  -0.017  53.587  1.00  0.00     0.029 A 
HETATM    7  C7  UNL     1      22.835   0.730  52.570  1.00  0.00     0.035 A 
HETATM    8  C20 UNL     1      21.477   0.466  52.469  1.00  0.00     0.050 A 
ENDROOT
BRANCH   7   9
HETATM    9  N1  UNL     1      23.472   1.655  51.687  1.00  0.00    -0.339 N 
HETATM   10  H5  UNL     1      24.129   1.053  51.167  1.00  0.00     0.167 HD
BRANCH   9  11
HETATM   11  C8  UNL     1      23.193   3.043  51.621  1.00  0.00     0.159 A 
HETATM   12  N2  UNL     1      22.063   3.504  52.172  1.00  0.00    -0.220 NA
HETATM   13  C9  UNL     1      21.731   4.801  52.140  1.00  0.00     0.258 A 
HETATM   14  N3  UNL     1      22.553   5.676  51.536  1.00  0.00    -0.161 NA
HETATM   15  N4  UNL     1      23.672   5.177  50.996  1.00  0.00    -0.240 N 
HETATM   16  C10 UNL     1      24.568   5.954  50.363  1.00  0.00     0.119 A 
HETATM   17  C19 UNL     1      24.070   3.891  50.991  1.00  0.00     0.112 A 
HETATM   18  C11 UNL     1      25.562   5.091  49.952  1.00  0.00     0.031 A 
HETATM   19  C12 UNL     1      25.269   3.774  50.339  1.00  0.00    -0.001 A 
BRANCH  19  20
HETATM   20  C13 UNL     1      26.053   2.541  50.108  1.00  0.00     0.208 C 
BRANCH  20  21
HETATM   21  O1  UNL     1      26.822   2.107  51.129  1.00  0.00    -0.384 OA
BRANCH  21  22
HETATM   22  C14 UNL     1      26.634   0.914  51.709  1.00  0.00     0.201 C 
BRANCH  22  23
HETATM   23  C15 UNL     1      27.257   0.652  53.055  1.00  0.00     0.173 C 
HETATM   24  C16 UNL     1      27.274   1.975  53.769  1.00  0.00     0.303 C 
HETATM   25  N5  UNL     1      28.658   2.465  53.880  1.00  0.00     0.088 N 
HETATM   26  C17 UNL     1      29.336   1.446  54.673  1.00  0.00     0.295 C 
HETATM   27  H16 UNL     1      29.049   2.483  52.914  1.00  0.00     0.316 HD
HETATM   28  C18 UNL     1      29.412   0.195  53.856  1.00  0.00     0.198 C 
HETATM   29  O2  UNL     1      28.406  -0.008  52.977  1.00  0.00    -0.380 OA
ENDBRANCH  22  23
ENDBRANCH  21  22
ENDBRANCH  20  21
ENDBRANCH  19  20
ENDBRANCH   9  11
ENDBRANCH   7   9
TORSDOF 6
ENDMDL
MODEL 8
REMARK VINA RESULT:      -7.8      1.730      2.136
REMARK  6 active torsions:
REMARK  status: ('A' for Active; 'I' for Inactive)
REMARK    1  A    between atoms: C7_7  and  N1_8 
REMARK    2  A    between atoms: N1_8  and  C8_9 
REMARK    3  A    between atoms: C12_16  and  C13_17 
REMARK    4  A    between atoms: C13_17  and  O1_18 
REMARK    5  A    between atoms: O1_18  and  C14_19 
REMARK    6  A    between atoms: C14_19  and  C15_20 
ROOT
HETATM    1  C1  UNL     1      21.852   4.474  46.558  1.00  0.00     0.018 C 
HETATM    2  C2  UNL     1      22.445   4.222  47.577  1.00  0.00    -0.078 C 
HETATM    3  C3  UNL     1      23.155   3.919  48.792  1.00  0.00     0.019 A 
HETATM    4  C4  UNL     1      24.015   4.890  49.235  1.00  0.00     0.021 A 
HETATM    5  C5  UNL     1      24.722   4.671  50.383  1.00  0.00     0.004 A 
HETATM    6  C6  UNL     1      24.560   3.491  51.065  1.00  0.00     0.029 A 
HETATM    7  C7  UNL     1      23.702   2.456  50.673  1.00  0.00     0.035 A 
HETATM    8  C20 UNL     1      23.023   2.758  49.503  1.00  0.00     0.050 A 
ENDROOT
BRANCH   7   9
HETATM    9  N1  UNL     1      23.482   1.219  51.354  1.00  0.00    -0.339 N 
HETATM   10  H5  UNL     1      24.437   0.840  51.445  1.00  0.00     0.167 HD
BRANCH   9  11
HETATM   11  C8  UNL     1      22.216   0.729  51.764  1.00  0.00     0.159 A 
HETATM   12  N2  UNL     1      21.137   1.032  51.033  1.00  0.00    -0.220 NA
HETATM   13  C9  UNL     1      19.910   0.610  51.365  1.00  0.00     0.258 A 
HETATM   14  N3  UNL     1      19.748  -0.143  52.466  1.00  0.00    -0.161 NA
HETATM   15  N4  UNL     1      20.851  -0.424  53.171  1.00  0.00    -0.240 N 
HETATM   16  C10 UNL     1      20.814  -1.165  54.293  1.00  0.00     0.119 A 
HETATM   17  C19 UNL     1      22.111  -0.037  52.899  1.00  0.00     0.112 A 
HETATM   18  C11 UNL     1      22.123  -1.228  54.723  1.00  0.00     0.031 A 
HETATM   19  C12 UNL     1      22.967  -0.519  53.854  1.00  0.00    -0.001 A 
BRANCH  19  20
HETATM   20  C13 UNL     1      24.432  -0.328  53.932  1.00  0.00     0.208 C 
BRANCH  20  21
HETATM   21  O1  UNL     1      25.164  -0.790  52.897  1.00  0.00    -0.384 OA
BRANCH  21  22
HETATM   22  C14 UNL     1      26.431  -1.199  53.042  1.00  0.00     0.201 C 
BRANCH  22  23
HETATM   23  C15 UNL     1      27.545  -0.208  52.831  1.00  0.00     0.173 C 
HETATM   24  C16 UNL     1      28.423  -0.306  54.048  1.00  0.00     0.303 C 
HETATM   25  N5  UNL     1      28.285   0.913  54.862  1.00  0.00     0.088 N 
HETATM   26  C17 UNL     1      28.744   1.983  53.985  1.00  0.00     0.295 C 
HETATM   27  H16 UNL     1      27.269   1.027  55.063  1.00  0.00     0.316 HD
HETATM   28  C18 UNL     1      27.756   2.127  52.870  1.00  0.00     0.198 C 
HETATM   29  O2  UNL     1      27.111   1.000  52.494  1.00  0.00    -0.380 OA
ENDBRANCH  22  23
ENDBRANCH  21  22
ENDBRANCH  20  21
ENDBRANCH  19  20
ENDBRANCH   9  11
ENDBRANCH   7   9
TORSDOF 6
ENDMDL
MODEL 9
REMARK VINA RESULT:      -7.8      2.405      6.024
REMARK  6 active torsions:
REMARK  status: ('A' for Active; 'I' for Inactive)
REMARK    1  A    between atoms: C7_7  and  N1_8 
REMARK    2  A    between atoms: N1_8  and  C8_9 
REMARK    3  A    between atoms: C12_16  and  C13_17 
REMARK    4  A    between atoms: C13_17  and  O1_18 
REMARK    5  A    between atoms: O1_18  and  C14_19 
REMARK    6  A    between atoms: C14_19  and  C15_20 
ROOT
HETATM    1  C1  UNL     1      27.050   5.342  48.607  1.00  0.00     0.018 C 
HETATM    2  C2  UNL     1      26.225   4.903  49.369  1.00  0.00    -0.078 C 
HETATM    3  C3  UNL     1      25.244   4.377  50.281  1.00  0.00     0.019 A 
HETATM    4  C4  UNL     1      24.348   5.288  50.779  1.00  0.00     0.021 A 
HETATM    5  C5  UNL     1      23.387   4.861  51.650  1.00  0.00     0.004 A 
HETATM    6  C6  UNL     1      23.338   3.537  52.008  1.00  0.00     0.029 A 
HETATM    7  C7  UNL     1      24.217   2.551  51.543  1.00  0.00     0.035 A 
HETATM    8  C20 UNL     1      25.159   3.067  50.664  1.00  0.00     0.050 A 
ENDROOT
BRANCH   7   9
HETATM    9  N1  UNL     1      24.199   1.160  51.869  1.00  0.00    -0.339 N 
HETATM   10  H5  UNL     1      23.609   0.763  51.122  1.00  0.00     0.167 HD
BRANCH   9  11
HETATM   11  C8  UNL     1      24.867   0.573  52.973  1.00  0.00     0.159 A 
HETATM   12  N2  UNL     1      26.181   0.780  53.120  1.00  0.00    -0.220 NA
HETATM   13  C9  UNL     1      26.877   0.250  54.133  1.00  0.00     0.258 A 
HETATM   14  N3  UNL     1      26.244  -0.516  55.037  1.00  0.00    -0.161 NA
HETATM   15  N4  UNL     1      24.930  -0.700  54.856  1.00  0.00    -0.240 N 
HETATM   16  C10 UNL     1      24.190  -1.449  55.693  1.00  0.00     0.119 A 
HETATM   17  C19 UNL     1      24.167  -0.201  53.866  1.00  0.00     0.112 A 
HETATM   18  C11 UNL     1      22.911  -1.401  55.180  1.00  0.00     0.031 A 
HETATM   19  C12 UNL     1      22.871  -0.613  54.019  1.00  0.00    -0.001 A 
BRANCH  19  20
HETATM   20  C13 UNL     1      21.714  -0.293  53.154  1.00  0.00     0.208 C 
BRANCH  20  21
HETATM   21  O1  UNL     1      21.258   0.977  53.190  1.00  0.00    -0.384 OA
BRANCH  21  22
HETATM   22  C14 UNL     1      20.230   1.390  52.438  1.00  0.00     0.201 C 
BRANCH  22  23
HETATM   23  C15 UNL     1      19.504   0.387  51.580  1.00  0.00     0.173 C 
HETATM   24  C16 UNL     1      19.386   1.013  50.219  1.00  0.00     0.303 C 
HETATM   25  N5  UNL     1      17.983   1.374  49.955  1.00  0.00     0.088 N 
HETATM   26  C17 UNL     1      17.272   0.102  49.996  1.00  0.00     0.295 C 
HETATM   27  H16 UNL     1      17.675   1.981  50.745  1.00  0.00     0.316 HD
HETATM   28  C18 UNL     1      17.304  -0.403  51.405  1.00  0.00     0.198 C 
HETATM   29  O2  UNL     1      18.386  -0.063  52.138  1.00  0.00    -0.380 OA
ENDBRANCH  22  23
ENDBRANCH  21  22
ENDBRANCH  20  21
ENDBRANCH  19  20
ENDBRANCH   9  11
ENDBRANCH   7   9
TORSDOF 6
ENDMDL
