MODEL 1
REMARK VINA RESULT:      -7.4      0.000      0.000
REMARK  9 active torsions:
REMARK  status: ('A' for Active; 'I' for Inactive)
REMARK    1  A    between atoms: O1_2  and  C2_3 
REMARK    2  A    between atoms: C3_4  and  O2_5 
REMARK    3  A    between atoms: C6_8  and  C8_10 
REMARK    4  A    between atoms: C8_10  and  N1_11 
REMARK    5  A    between atoms: N1_11  and  C9_12 
REMARK    6  A    between atoms: C12_15  and  O3_16 
REMARK    7  A    between atoms: C14_18  and  C15_19 
REMARK    8  A    between atoms: C15_19  and  O4_20 
REMARK    9  A    between atoms: C16_21  and  O5_22 
ROOT
HETATM    1  C8  UNL     1      25.398  -0.560  54.236  1.00  0.00     0.136 C 
ENDROOT
BRANCH   1   2
HETATM    2  C6  UNL     1      26.694  -0.512  53.503  1.00  0.00     0.022 A 
HETATM    3  C5  UNL     1      27.800  -0.191  54.423  1.00  0.00    -0.010 A 
HETATM    4  C4  UNL     1      28.669   0.805  54.488  1.00  0.00     0.036 A 
HETATM    5  C3  UNL     1      28.523   1.814  53.428  1.00  0.00     0.097 A 
HETATM    6  C2  UNL     1      27.555   1.597  52.555  1.00  0.00     0.108 A 
HETATM    7  C16 UNL     1      26.561   0.531  52.400  1.00  0.00     0.191 A 
HETATM    8  C7  UNL     1      27.031  -1.828  52.831  1.00  0.00     0.024 C 
BRANCH   5   9
HETATM    9  O2  UNL     1      29.363   2.893  53.395  1.00  0.00    -0.358 OA
HETATM   10  H4  UNL     1      29.155   3.657  52.747  1.00  0.00     0.217 HD
ENDBRANCH   5   9
BRANCH   6  11
HETATM   11  O1  UNL     1      27.499   2.622  51.589  1.00  0.00    -0.355 OA
HETATM   12  C1  UNL     1      26.295   3.068  51.017  1.00  0.00     0.209 C 
ENDBRANCH   6  11
BRANCH   7  13
HETATM   13  O5  UNL     1      26.590  -0.072  51.166  1.00  0.00    -0.388 OA
HETATM   14  H21 UNL     1      26.903   0.592  50.501  1.00  0.00     0.210 HD
ENDBRANCH   7  13
ENDBRANCH   1   2
BRANCH   1  15
HETATM   15  N1  UNL     1      24.199  -0.560  53.489  1.00  0.00    -0.388 N 
HETATM   16  H12 UNL     1      24.185  -1.463  52.950  1.00  0.00     0.159 HD
BRANCH  15  17
HETATM   17  C9  UNL     1      23.067   0.256  53.273  1.00  0.00     0.036 A 
HETATM   18  C10 UNL     1      23.099   1.522  52.693  1.00  0.00     0.032 A 
HETATM   19  C11 UNL     1      22.034   2.351  52.430  1.00  0.00     0.039 A 
HETATM   20  C12 UNL     1      20.812   1.834  52.794  1.00  0.00     0.066 A 
HETATM   21  C13 UNL     1      20.697   0.610  53.362  1.00  0.00     0.048 A 
HETATM   22  C14 UNL     1      21.784  -0.190  53.610  1.00  0.00    -0.006 A 
BRANCH  20  23
HETATM   23  O3  UNL     1      19.660   2.574  52.580  1.00  0.00    -0.361 OA
HETATM   24  H15 UNL     1      19.608   3.554  52.888  1.00  0.00     0.217 HD
ENDBRANCH  20  23
BRANCH  22  25
HETATM   25  C15 UNL     1      21.623  -1.526  54.234  1.00  0.00     0.205 C 
BRANCH  25  26
HETATM   26  O4  UNL     1      22.286  -1.556  55.482  1.00  0.00    -0.396 OA
HETATM   27  H19 UNL     1      22.686  -0.670  55.650  1.00  0.00     0.209 HD
ENDBRANCH  25  26
ENDBRANCH  22  25
ENDBRANCH  15  17
ENDBRANCH   1  15
TORSDOF 9
ENDMDL
MODEL 2
REMARK VINA RESULT:      -7.4      2.921      6.051
REMARK  9 active torsions:
REMARK  status: ('A' for Active; 'I' for Inactive)
REMARK    1  A    between atoms: O1_2  and  C2_3 
REMARK    2  A    between atoms: C3_4  and  O2_5 
REMARK    3  A    between atoms: C6_8  and  C8_10 
REMARK    4  A    between atoms: C8_10  and  N1_11 
REMARK    5  A    between atoms: N1_11  and  C9_12 
REMARK    6  A    between atoms: C12_15  and  O3_16 
REMARK    7  A    between atoms: C14_18  and  C15_19 
REMARK    8  A    between atoms: C15_19  and  O4_20 
REMARK    9  A    between atoms: C16_21  and  O5_22 
ROOT
HETATM    1  C8  UNL     1      25.195   2.553  52.916  1.00  0.00     0.136 C 
ENDROOT
BRANCH   1   2
HETATM    2  C6  UNL     1      24.767   2.725  51.500  1.00  0.00     0.022 A 
HETATM    3  C5  UNL     1      25.912   2.559  50.587  1.00  0.00    -0.010 A 
HETATM    4  C4  UNL     1      26.500   3.357  49.711  1.00  0.00     0.036 A 
HETATM    5  C3  UNL     1      25.900   4.696  49.605  1.00  0.00     0.097 A 
HETATM    6  C2  UNL     1      24.860   4.925  50.388  1.00  0.00     0.108 A 
HETATM    7  C16 UNL     1      24.143   4.109  51.371  1.00  0.00     0.191 A 
HETATM    8  C7  UNL     1      23.709   1.721  51.087  1.00  0.00     0.024 C 
BRANCH   5   9
HETATM    9  O2  UNL     1      26.426   5.611  48.735  1.00  0.00    -0.358 OA
HETATM   10  H4  UNL     1      26.661   5.307  47.787  1.00  0.00     0.217 HD
ENDBRANCH   5   9
BRANCH   6  11
HETATM   11  O1  UNL     1      24.367   6.234  50.212  1.00  0.00    -0.355 OA
HETATM   12  C1  UNL     1      24.339   7.186  51.246  1.00  0.00     0.209 C 
ENDBRANCH   6  11
BRANCH   7  13
HETATM   13  O5  UNL     1      22.796   4.005  51.120  1.00  0.00    -0.388 OA
HETATM   14  H21 UNL     1      22.312   4.571  51.773  1.00  0.00     0.210 HD
ENDBRANCH   7  13
ENDBRANCH   1   2
BRANCH   1  15
HETATM   15  N1  UNL     1      26.403   1.870  53.179  1.00  0.00    -0.388 N 
HETATM   16  H12 UNL     1      27.087   2.594  53.515  1.00  0.00     0.159 HD
BRANCH  15  17
HETATM   17  C9  UNL     1      26.929   0.560  53.132  1.00  0.00     0.036 A 
HETATM   18  C10 UNL     1      26.253  -0.550  52.631  1.00  0.00     0.032 A 
HETATM   19  C11 UNL     1      26.719  -1.840  52.530  1.00  0.00     0.039 A 
HETATM   20  C12 UNL     1      28.006  -2.013  52.986  1.00  0.00     0.066 A 
HETATM   21  C13 UNL     1      28.729  -0.984  53.486  1.00  0.00     0.048 A 
HETATM   22  C14 UNL     1      28.230   0.292  53.571  1.00  0.00    -0.006 A 
BRANCH  20  23
HETATM   23  O3  UNL     1      28.590  -3.270  52.937  1.00  0.00    -0.361 OA
HETATM   24  H15 UNL     1      28.366  -3.917  52.170  1.00  0.00     0.217 HD
ENDBRANCH  20  23
BRANCH  22  25
HETATM   25  C15 UNL     1      29.050   1.398  54.125  1.00  0.00     0.205 C 
BRANCH  25  26
HETATM   26  O4  UNL     1      29.243   2.391  53.137  1.00  0.00    -0.396 OA
HETATM   27  H19 UNL     1      30.167   2.730  53.204  1.00  0.00     0.209 HD
ENDBRANCH  25  26
ENDBRANCH  22  25
ENDBRANCH  15  17
ENDBRANCH   1  15
TORSDOF 9
ENDMDL
MODEL 3
REMARK VINA RESULT:      -7.4      1.291      2.141
REMARK  9 active torsions:
REMARK  status: ('A' for Active; 'I' for Inactive)
REMARK    1  A    between atoms: O1_2  and  C2_3 
REMARK    2  A    between atoms: C3_4  and  O2_5 
REMARK    3  A    between atoms: C6_8  and  C8_10 
REMARK    4  A    between atoms: C8_10  and  N1_11 
REMARK    5  A    between atoms: N1_11  and  C9_12 
REMARK    6  A    between atoms: C12_15  and  O3_16 
REMARK    7  A    between atoms: C14_18  and  C15_19 
REMARK    8  A    between atoms: C15_19  and  O4_20 
REMARK    9  A    between atoms: C16_21  and  O5_22 
ROOT
HETATM    1  C8  UNL     1      25.468  -0.528  54.301  1.00  0.00     0.136 C 
ENDROOT
BRANCH   1   2
HETATM    2  C6  UNL     1      26.736  -0.433  53.526  1.00  0.00     0.022 A 
HETATM    3  C5  UNL     1      27.847  -0.007  54.397  1.00  0.00    -0.010 A 
HETATM    4  C4  UNL     1      28.655   1.041  54.394  1.00  0.00     0.036 A 
HETATM    5  C3  UNL     1      28.416   1.994  53.299  1.00  0.00     0.097 A 
HETATM    6  C2  UNL     1      27.438   1.682  52.467  1.00  0.00     0.108 A 
HETATM    7  C16 UNL     1      26.507   0.553  52.387  1.00  0.00     0.191 A 
HETATM    8  C7  UNL     1      27.134  -1.754  52.897  1.00  0.00     0.024 C 
BRANCH   5   9
HETATM    9  O2  UNL     1      29.187   3.120  53.196  1.00  0.00    -0.358 OA
HETATM   10  H4  UNL     1      29.477   3.595  54.054  1.00  0.00     0.217 HD
ENDBRANCH   5   9
BRANCH   6  11
HETATM   11  O1  UNL     1      27.291   2.660  51.462  1.00  0.00    -0.355 OA
HETATM   12  C1  UNL     1      26.042   3.173  51.072  1.00  0.00     0.209 C 
ENDBRANCH   6  11
BRANCH   7  13
HETATM   13  O5  UNL     1      26.538  -0.099  51.177  1.00  0.00    -0.388 OA
HETATM   14  H21 UNL     1      26.187  -1.016  51.308  1.00  0.00     0.210 HD
ENDBRANCH   7  13
ENDBRANCH   1   2
BRANCH   1  15
HETATM   15  N1  UNL     1      24.285  -0.010  53.727  1.00  0.00    -0.388 N 
HETATM   16  H12 UNL     1      24.575   0.814  53.142  1.00  0.00     0.159 HD
BRANCH  15  17
HETATM   17  C9  UNL     1      22.897  -0.270  53.706  1.00  0.00     0.036 A 
HETATM   18  C10 UNL     1      22.281  -1.344  54.342  1.00  0.00     0.032 A 
HETATM   19  C11 UNL     1      20.937  -1.635  54.384  1.00  0.00     0.039 A 
HETATM   20  C12 UNL     1      20.143  -0.737  53.710  1.00  0.00     0.066 A 
HETATM   21  C13 UNL     1      20.667   0.334  53.067  1.00  0.00     0.048 A 
HETATM   22  C14 UNL     1      22.015   0.592  53.046  1.00  0.00    -0.006 A 
BRANCH  20  23
HETATM   23  O3  UNL     1      18.770  -0.920  53.678  1.00  0.00    -0.361 OA
HETATM   24  H15 UNL     1      18.200  -0.722  54.512  1.00  0.00     0.217 HD
ENDBRANCH  20  23
BRANCH  22  25
HETATM   25  C15 UNL     1      22.555   1.775  52.333  1.00  0.00     0.205 C 
BRANCH  25  26
HETATM   26  O4  UNL     1      23.155   1.370  51.118  1.00  0.00    -0.396 OA
HETATM   27  H19 UNL     1      24.134   1.360  51.235  1.00  0.00     0.209 HD
ENDBRANCH  25  26
ENDBRANCH  22  25
ENDBRANCH  15  17
ENDBRANCH   1  15
TORSDOF 9
ENDMDL
MODEL 4
REMARK VINA RESULT:      -7.3      2.401      6.508
REMARK  9 active torsions:
REMARK  status: ('A' for Active; 'I' for Inactive)
REMARK    1  A    between atoms: O1_2  and  C2_3 
REMARK    2  A    between atoms: C3_4  and  O2_5 
REMARK    3  A    between atoms: C6_8  and  C8_10 
REMARK    4  A    between atoms: C8_10  and  N1_11 
REMARK    5  A    between atoms: N1_11  and  C9_12 
REMARK    6  A    between atoms: C12_15  and  O3_16 
REMARK    7  A    between atoms: C14_18  and  C15_19 
REMARK    8  A    between atoms: C15_19  and  O4_20 
REMARK    9  A    between atoms: C16_21  and  O5_22 
ROOT
HETATM    1  C8  UNL     1      25.746   2.390  51.783  1.00  0.00     0.136 C 
ENDROOT
BRANCH   1   2
HETATM    2  C6  UNL     1      24.317   2.619  52.133  1.00  0.00     0.022 A 
HETATM    3  C5  UNL     1      23.749   1.436  52.804  1.00  0.00    -0.010 A 
HETATM    4  C4  UNL     1      22.756   0.612  52.510  1.00  0.00     0.036 A 
HETATM    5  C3  UNL     1      22.054   0.925  51.256  1.00  0.00     0.097 A 
HETATM    6  C2  UNL     1      22.498   1.979  50.594  1.00  0.00     0.108 A 
HETATM    7  C16 UNL     1      23.572   2.944  50.844  1.00  0.00     0.191 A 
HETATM    8  C7  UNL     1      24.129   3.801  53.064  1.00  0.00     0.024 C 
BRANCH   5   9
HETATM    9  O2  UNL     1      21.012   0.139  50.845  1.00  0.00    -0.358 OA
HETATM   10  H4  UNL     1      20.234   0.578  50.346  1.00  0.00     0.217 HD
ENDBRANCH   5   9
BRANCH   6  11
HETATM   11  O1  UNL     1      21.761   2.186  49.410  1.00  0.00    -0.355 OA
HETATM   12  C1  UNL     1      22.280   1.921  48.131  1.00  0.00     0.209 C 
ENDBRANCH   6  11
BRANCH   7  13
HETATM   13  O5  UNL     1      23.145   4.250  50.855  1.00  0.00    -0.388 OA
HETATM   14  H21 UNL     1      23.198   4.604  49.931  1.00  0.00     0.210 HD
ENDBRANCH   7  13
ENDBRANCH   1   2
BRANCH   1  15
HETATM   15  N1  UNL     1      26.559   1.680  52.694  1.00  0.00    -0.388 N 
HETATM   16  H12 UNL     1      26.801   2.353  53.464  1.00  0.00     0.159 HD
BRANCH  15  17
HETATM   17  C9  UNL     1      27.109   0.390  52.865  1.00  0.00     0.036 A 
HETATM   18  C10 UNL     1      26.539  -0.787  52.386  1.00  0.00     0.032 A 
HETATM   19  C11 UNL     1      27.036  -2.064  52.494  1.00  0.00     0.039 A 
HETATM   20  C12 UNL     1      28.239  -2.148  53.157  1.00  0.00     0.066 A 
HETATM   21  C13 UNL     1      28.857  -1.050  53.652  1.00  0.00     0.048 A 
HETATM   22  C14 UNL     1      28.330   0.211  53.525  1.00  0.00    -0.006 A 
BRANCH  20  23
HETATM   23  O3  UNL     1      28.844  -3.382  53.331  1.00  0.00    -0.361 OA
HETATM   24  H15 UNL     1      29.308  -3.612  54.221  1.00  0.00     0.217 HD
ENDBRANCH  20  23
BRANCH  22  25
HETATM   25  C15 UNL     1      29.034   1.394  54.079  1.00  0.00     0.205 C 
BRANCH  25  26
HETATM   26  O4  UNL     1      29.261   2.340  53.052  1.00  0.00    -0.396 OA
HETATM   27  H19 UNL     1      29.223   1.879  52.182  1.00  0.00     0.209 HD
ENDBRANCH  25  26
ENDBRANCH  22  25
ENDBRANCH  15  17
ENDBRANCH   1  15
TORSDOF 9
ENDMDL
MODEL 5
REMARK VINA RESULT:      -7.2      1.835      6.565
REMARK  9 active torsions:
REMARK  status: ('A' for Active; 'I' for Inactive)
REMARK    1  A    between atoms: O1_2  and  C2_3 
REMARK    2  A    between atoms: C3_4  and  O2_5 
REMARK    3  A    between atoms: C6_8  and  C8_10 
REMARK    4  A    between atoms: C8_10  and  N1_11 
REMARK    5  A    between atoms: N1_11  and  C9_12 
REMARK    6  A    between atoms: C12_15  and  O3_16 
REMARK    7  A    between atoms: C14_18  and  C15_19 
REMARK    8  A    between atoms: C15_19  and  O4_20 
REMARK    9  A    between atoms: C16_21  and  O5_22 
ROOT
HETATM    1  C8  UNL     1      25.067   2.579  53.438  1.00  0.00     0.136 C 
ENDROOT
BRANCH   1   2
HETATM    2  C6  UNL     1      24.199   2.813  52.251  1.00  0.00     0.022 A 
HETATM    3  C5  UNL     1      23.587   4.152  52.310  1.00  0.00    -0.010 A 
HETATM    4  C4  UNL     1      22.335   4.579  52.359  1.00  0.00     0.036 A 
HETATM    5  C3  UNL     1      21.325   3.510  52.351  1.00  0.00     0.097 A 
HETATM    6  C2  UNL     1      21.792   2.275  52.292  1.00  0.00     0.108 A 
HETATM    7  C16 UNL     1      23.144   1.714  52.227  1.00  0.00     0.191 A 
HETATM    8  C7  UNL     1      24.965   2.721  50.945  1.00  0.00     0.024 C 
BRANCH   5   9
HETATM    9  O2  UNL     1      19.995   3.829  52.404  1.00  0.00    -0.358 OA
HETATM   10  H4  UNL     1      19.444   3.503  53.202  1.00  0.00     0.217 HD
ENDBRANCH   5   9
BRANCH   6  11
HETATM   11  O1  UNL     1      20.744   1.332  52.294  1.00  0.00    -0.355 OA
HETATM   12  C1  UNL     1      20.546   0.413  53.340  1.00  0.00     0.209 C 
ENDBRANCH   6  11
BRANCH   7  13
HETATM   13  O5  UNL     1      23.343   0.884  51.149  1.00  0.00    -0.388 OA
HETATM   14  H21 UNL     1      23.994   0.185  51.409  1.00  0.00     0.210 HD
ENDBRANCH   7  13
ENDBRANCH   1   2
BRANCH   1  15
HETATM   15  N1  UNL     1      26.312   1.939  53.250  1.00  0.00    -0.388 N 
HETATM   16  H12 UNL     1      27.026   2.703  53.143  1.00  0.00     0.159 HD
BRANCH  15  17
HETATM   17  C9  UNL     1      26.851   0.635  53.175  1.00  0.00     0.036 A 
HETATM   18  C10 UNL     1      26.172  -0.478  52.686  1.00  0.00     0.032 A 
HETATM   19  C11 UNL     1      26.648  -1.762  52.561  1.00  0.00     0.039 A 
HETATM   20  C12 UNL     1      27.949  -1.925  52.975  1.00  0.00     0.066 A 
HETATM   21  C13 UNL     1      28.676  -0.892  53.462  1.00  0.00     0.048 A 
HETATM   22  C14 UNL     1      28.167   0.378  53.573  1.00  0.00    -0.006 A 
BRANCH  20  23
HETATM   23  O3  UNL     1      28.545  -3.175  52.899  1.00  0.00    -0.361 OA
HETATM   24  H15 UNL     1      28.428  -3.754  52.056  1.00  0.00     0.217 HD
ENDBRANCH  20  23
BRANCH  22  25
HETATM   25  C15 UNL     1      28.992   1.488  54.110  1.00  0.00     0.205 C 
BRANCH  25  26
HETATM   26  O4  UNL     1      29.114   2.507  53.138  1.00  0.00    -0.396 OA
HETATM   27  H19 UNL     1      28.216   2.858  52.931  1.00  0.00     0.209 HD
ENDBRANCH  25  26
ENDBRANCH  22  25
ENDBRANCH  15  17
ENDBRANCH   1  15
TORSDOF 9
ENDMDL
MODEL 6
REMARK VINA RESULT:      -7.1      1.575      3.393
REMARK  9 active torsions:
REMARK  status: ('A' for Active; 'I' for Inactive)
REMARK    1  A    between atoms: O1_2  and  C2_3 
REMARK    2  A    between atoms: C3_4  and  O2_5 
REMARK    3  A    between atoms: C6_8  and  C8_10 
REMARK    4  A    between atoms: C8_10  and  N1_11 
REMARK    5  A    between atoms: N1_11  and  C9_12 
REMARK    6  A    between atoms: C12_15  and  O3_16 
REMARK    7  A    between atoms: C14_18  and  C15_19 
REMARK    8  A    between atoms: C15_19  and  O4_20 
REMARK    9  A    between atoms: C16_21  and  O5_22 
ROOT
HETATM    1  C8  UNL     1      25.089   2.104  53.199  1.00  0.00     0.136 C 
ENDROOT
BRANCH   1   2
HETATM    2  C6  UNL     1      26.212   1.580  52.374  1.00  0.00     0.022 A 
HETATM    3  C5  UNL     1      26.068   0.128  52.161  1.00  0.00    -0.010 A 
HETATM    4  C4  UNL     1      26.815  -0.917  52.477  1.00  0.00     0.036 A 
HETATM    5  C3  UNL     1      28.059  -0.585  53.189  1.00  0.00     0.097 A 
HETATM    6  C2  UNL     1      28.269   0.700  53.415  1.00  0.00     0.108 A 
HETATM    7  C16 UNL     1      27.511   1.914  53.098  1.00  0.00     0.191 A 
HETATM    8  C7  UNL     1      26.284   2.233  51.008  1.00  0.00     0.024 C 
BRANCH   5   9
HETATM    9  O2  UNL     1      28.911  -1.584  53.573  1.00  0.00    -0.358 OA
HETATM   10  H4  UNL     1      28.517  -2.490  53.838  1.00  0.00     0.217 HD
ENDBRANCH   5   9
BRANCH   6  11
HETATM   11  O1  UNL     1      29.481   0.906  54.104  1.00  0.00    -0.355 OA
HETATM   12  C1  UNL     1      29.685   1.981  54.987  1.00  0.00     0.209 C 
ENDBRANCH   6  11
BRANCH   7  13
HETATM   13  O5  UNL     1      28.232   2.840  52.383  1.00  0.00    -0.388 OA
HETATM   14  H21 UNL     1      27.765   3.004  51.525  1.00  0.00     0.210 HD
ENDBRANCH   7  13
ENDBRANCH   1   2
BRANCH   1  15
HETATM   15  N1  UNL     1      23.764   1.837  52.786  1.00  0.00    -0.388 N 
HETATM   16  H12 UNL     1      23.560   2.500  51.996  1.00  0.00     0.159 HD
BRANCH  15  17
HETATM   17  C9  UNL     1      22.691   0.976  53.104  1.00  0.00     0.036 A 
HETATM   18  C10 UNL     1      22.831  -0.301  53.644  1.00  0.00     0.032 A 
HETATM   19  C11 UNL     1      21.830  -1.173  54.002  1.00  0.00     0.039 A 
HETATM   20  C12 UNL     1      20.558  -0.693  53.789  1.00  0.00     0.066 A 
HETATM   21  C13 UNL     1      20.340   0.538  53.269  1.00  0.00     0.048 A 
HETATM   22  C14 UNL     1      21.365   1.383  52.923  1.00  0.00    -0.006 A 
BRANCH  20  23
HETATM   23  O3  UNL     1      19.463  -1.479  54.110  1.00  0.00    -0.361 OA
HETATM   24  H15 UNL     1      18.665  -1.074  54.618  1.00  0.00     0.217 HD
ENDBRANCH  20  23
BRANCH  22  25
HETATM   25  C15 UNL     1      21.091   2.726  52.356  1.00  0.00     0.205 C 
BRANCH  25  26
HETATM   26  O4  UNL     1      19.736   3.069  52.570  1.00  0.00    -0.396 OA
HETATM   27  H19 UNL     1      19.682   3.689  53.335  1.00  0.00     0.209 HD
ENDBRANCH  25  26
ENDBRANCH  22  25
ENDBRANCH  15  17
ENDBRANCH   1  15
TORSDOF 9
ENDMDL
MODEL 7
REMARK VINA RESULT:      -6.8      3.211      6.026
REMARK  9 active torsions:
REMARK  status: ('A' for Active; 'I' for Inactive)
REMARK    1  A    between atoms: O1_2  and  C2_3 
REMARK    2  A    between atoms: C3_4  and  O2_5 
REMARK    3  A    between atoms: C6_8  and  C8_10 
REMARK    4  A    between atoms: C8_10  and  N1_11 
REMARK    5  A    between atoms: N1_11  and  C9_12 
REMARK    6  A    between atoms: C12_15  and  O3_16 
REMARK    7  A    between atoms: C14_18  and  C15_19 
REMARK    8  A    between atoms: C15_19  and  O4_20 
REMARK    9  A    between atoms: C16_21  and  O5_22 
ROOT
HETATM    1  C8  UNL     1      26.149   2.153  50.942  1.00  0.00     0.136 C 
ENDROOT
BRANCH   1   2
HETATM    2  C6  UNL     1      26.184   1.897  52.409  1.00  0.00     0.022 A 
HETATM    3  C5  UNL     1      27.431   2.417  52.998  1.00  0.00    -0.010 A 
HETATM    4  C4  UNL     1      28.438   1.851  53.643  1.00  0.00     0.036 A 
HETATM    5  C3  UNL     1      28.305   0.397  53.827  1.00  0.00     0.097 A 
HETATM    6  C2  UNL     1      27.208  -0.149  53.332  1.00  0.00     0.108 A 
HETATM    7  C16 UNL     1      26.049   0.394  52.618  1.00  0.00     0.191 A 
HETATM    8  C7  UNL     1      25.029   2.553  53.140  1.00  0.00     0.024 C 
BRANCH   5   9
HETATM    9  O2  UNL     1      29.287  -0.299  54.476  1.00  0.00    -0.358 OA
HETATM   10  H4  UNL     1      29.193  -1.314  54.563  1.00  0.00     0.217 HD
ENDBRANCH   5   9
BRANCH   6  11
HETATM   11  O1  UNL     1      27.183  -1.540  53.558  1.00  0.00    -0.355 OA
HETATM   12  C1  UNL     1      27.228  -2.483  52.517  1.00  0.00     0.209 C 
ENDBRANCH   6  11
BRANCH   7  13
HETATM   13  O5  UNL     1      24.847   0.101  53.219  1.00  0.00    -0.388 OA
HETATM   14  H21 UNL     1      24.140   0.119  52.526  1.00  0.00     0.210 HD
ENDBRANCH   7  13
ENDBRANCH   1   2
BRANCH   1  15
HETATM   15  N1  UNL     1      25.641   3.389  50.483  1.00  0.00    -0.388 N 
HETATM   16  H12 UNL     1      24.610   3.381  50.690  1.00  0.00     0.159 HD
BRANCH  15  17
HETATM   17  C9  UNL     1      26.094   4.575  49.865  1.00  0.00     0.036 A 
HETATM   18  C10 UNL     1      27.185   4.655  49.003  1.00  0.00     0.032 A 
HETATM   19  C11 UNL     1      27.657   5.768  48.349  1.00  0.00     0.039 A 
HETATM   20  C12 UNL     1      26.943   6.917  48.601  1.00  0.00     0.066 A 
HETATM   21  C13 UNL     1      25.870   6.921  49.427  1.00  0.00     0.048 A 
HETATM   22  C14 UNL     1      25.427   5.789  50.063  1.00  0.00    -0.006 A 
BRANCH  20  23
HETATM   23  O3  UNL     1      27.320   8.108  48.001  1.00  0.00    -0.361 OA
HETATM   24  H15 UNL     1      26.647   8.882  47.917  1.00  0.00     0.217 HD
ENDBRANCH  20  23
BRANCH  22  25
HETATM   25  C15 UNL     1      24.247   5.828  50.962  1.00  0.00     0.205 C 
BRANCH  25  26
HETATM   26  O4  UNL     1      24.476   6.745  52.013  1.00  0.00    -0.396 OA
HETATM   27  H19 UNL     1      23.830   7.486  51.935  1.00  0.00     0.209 HD
ENDBRANCH  25  26
ENDBRANCH  22  25
ENDBRANCH  15  17
ENDBRANCH   1  15
TORSDOF 9
ENDMDL
MODEL 8
REMARK VINA RESULT:      -6.7      2.243      6.000
REMARK  9 active torsions:
REMARK  status: ('A' for Active; 'I' for Inactive)
REMARK    1  A    between atoms: O1_2  and  C2_3 
REMARK    2  A    between atoms: C3_4  and  O2_5 
REMARK    3  A    between atoms: C6_8  and  C8_10 
REMARK    4  A    between atoms: C8_10  and  N1_11 
REMARK    5  A    between atoms: N1_11  and  C9_12 
REMARK    6  A    between atoms: C12_15  and  O3_16 
REMARK    7  A    between atoms: C14_18  and  C15_19 
REMARK    8  A    between atoms: C15_19  and  O4_20 
REMARK    9  A    between atoms: C16_21  and  O5_22 
ROOT
HETATM    1  C8  UNL     1      25.449   2.936  50.774  1.00  0.00     0.136 C 
ENDROOT
BRANCH   1   2
HETATM    2  C6  UNL     1      24.180   3.633  50.427  1.00  0.00     0.022 A 
HETATM    3  C5  UNL     1      23.739   4.495  51.538  1.00  0.00    -0.010 A 
HETATM    4  C4  UNL     1      22.656   4.517  52.298  1.00  0.00     0.036 A 
HETATM    5  C3  UNL     1      21.667   3.474  51.984  1.00  0.00     0.097 A 
HETATM    6  C2  UNL     1      21.984   2.660  50.991  1.00  0.00     0.108 A 
HETATM    7  C16 UNL     1      23.142   2.567  50.099  1.00  0.00     0.191 A 
HETATM    8  C7  UNL     1      24.316   4.512  49.199  1.00  0.00     0.024 C 
BRANCH   5   9
HETATM    9  O2  UNL     1      20.509   3.394  52.707  1.00  0.00    -0.358 OA
HETATM   10  H4  UNL     1      20.339   2.558  53.271  1.00  0.00     0.217 HD
ENDBRANCH   5   9
BRANCH   6  11
HETATM   11  O1  UNL     1      20.974   1.700  50.777  1.00  0.00    -0.355 OA
HETATM   12  C1  UNL     1      21.170   0.325  50.994  1.00  0.00     0.209 C 
ENDBRANCH   6  11
BRANCH   7  13
HETATM   13  O5  UNL     1      22.813   2.614  48.765  1.00  0.00    -0.388 OA
HETATM   14  H21 UNL     1      22.451   1.731  48.501  1.00  0.00     0.210 HD
ENDBRANCH   7  13
ENDBRANCH   1   2
BRANCH   1  15
HETATM   15  N1  UNL     1      25.685   2.595  52.124  1.00  0.00    -0.388 N 
HETATM   16  H12 UNL     1      26.150   3.429  52.564  1.00  0.00     0.159 HD
BRANCH  15  17
HETATM   17  C9  UNL     1      25.481   1.517  53.013  1.00  0.00     0.036 A 
HETATM   18  C10 UNL     1      24.267   0.863  53.203  1.00  0.00     0.032 A 
HETATM   19  C11 UNL     1      24.011  -0.208  54.027  1.00  0.00     0.039 A 
HETATM   20  C12 UNL     1      25.107  -0.657  54.727  1.00  0.00     0.066 A 
HETATM   21  C13 UNL     1      26.322  -0.075  54.596  1.00  0.00     0.048 A 
HETATM   22  C14 UNL     1      26.540   0.994  53.763  1.00  0.00    -0.006 A 
BRANCH  20  23
HETATM   23  O3  UNL     1      24.978  -1.732  55.593  1.00  0.00    -0.361 OA
HETATM   24  H15 UNL     1      25.582  -2.558  55.487  1.00  0.00     0.217 HD
ENDBRANCH  20  23
BRANCH  22  25
HETATM   25  C15 UNL     1      27.886   1.607  53.643  1.00  0.00     0.205 C 
BRANCH  25  26
HETATM   26  O4  UNL     1      27.868   2.910  54.191  1.00  0.00    -0.396 OA
HETATM   27  H19 UNL     1      28.375   2.906  55.037  1.00  0.00     0.209 HD
ENDBRANCH  25  26
ENDBRANCH  22  25
ENDBRANCH  15  17
ENDBRANCH   1  15
TORSDOF 9
ENDMDL
MODEL 9
REMARK VINA RESULT:      -6.6      2.146      3.315
REMARK  9 active torsions:
REMARK  status: ('A' for Active; 'I' for Inactive)
REMARK    1  A    between atoms: O1_2  and  C2_3 
REMARK    2  A    between atoms: C3_4  and  O2_5 
REMARK    3  A    between atoms: C6_8  and  C8_10 
REMARK    4  A    between atoms: C8_10  and  N1_11 
REMARK    5  A    between atoms: N1_11  and  C9_12 
REMARK    6  A    between atoms: C12_15  and  O3_16 
REMARK    7  A    between atoms: C14_18  and  C15_19 
REMARK    8  A    between atoms: C15_19  and  O4_20 
REMARK    9  A    between atoms: C16_21  and  O5_22 
ROOT
HETATM    1  C8  UNL     1      25.354   2.123  53.437  1.00  0.00     0.136 C 
ENDROOT
BRANCH   1   2
HETATM    2  C6  UNL     1      26.400   1.491  52.587  1.00  0.00     0.022 A 
HETATM    3  C5  UNL     1      25.941   0.185  52.082  1.00  0.00    -0.010 A 
HETATM    4  C4  UNL     1      26.386  -1.053  52.224  1.00  0.00     0.036 A 
HETATM    5  C3  UNL     1      27.594  -1.176  53.055  1.00  0.00     0.097 A 
HETATM    6  C2  UNL     1      28.076  -0.047  53.543  1.00  0.00     0.108 A 
HETATM    7  C16 UNL     1      27.661   1.354  53.432  1.00  0.00     0.191 A 
HETATM    8  C7  UNL     1      26.763   2.340  51.384  1.00  0.00     0.024 C 
BRANCH   5   9
HETATM    9  O2  UNL     1      28.144  -2.409  53.278  1.00  0.00    -0.358 OA
HETATM   10  H4  UNL     1      27.653  -3.060  53.895  1.00  0.00     0.217 HD
ENDBRANCH   5   9
BRANCH   6  11
HETATM   11  O1  UNL     1      29.226  -0.277  54.324  1.00  0.00    -0.355 OA
HETATM   12  C1  UNL     1      30.496  -0.507  53.766  1.00  0.00     0.209 C 
ENDBRANCH   6  11
BRANCH   7  13
HETATM   13  O5  UNL     1      28.648   2.184  52.957  1.00  0.00    -0.388 OA
HETATM   14  H21 UNL     1      28.401   2.470  52.041  1.00  0.00     0.210 HD
ENDBRANCH   7  13
ENDBRANCH   1   2
BRANCH   1  15
HETATM   15  N1  UNL     1      23.996   1.886  53.126  1.00  0.00    -0.388 N 
HETATM   16  H12 UNL     1      23.487   1.827  54.044  1.00  0.00     0.159 HD
BRANCH  15  17
HETATM   17  C9  UNL     1      23.165   1.721  51.996  1.00  0.00     0.036 A 
HETATM   18  C10 UNL     1      23.185   2.539  50.870  1.00  0.00     0.032 A 
HETATM   19  C11 UNL     1      22.425   2.415  49.730  1.00  0.00     0.039 A 
HETATM   20  C12 UNL     1      21.559   1.346  49.742  1.00  0.00     0.066 A 
HETATM   21  C13 UNL     1      21.481   0.505  50.800  1.00  0.00     0.048 A 
HETATM   22  C14 UNL     1      22.256   0.660  51.922  1.00  0.00    -0.006 A 
BRANCH  20  23
HETATM   23  O3  UNL     1      20.738   1.113  48.650  1.00  0.00    -0.361 OA
HETATM   24  H15 UNL     1      19.858   0.591  48.764  1.00  0.00     0.217 HD
ENDBRANCH  20  23
BRANCH  22  25
HETATM   25  C15 UNL     1      22.146  -0.281  53.063  1.00  0.00     0.205 C 
BRANCH  25  26
HETATM   26  O4  UNL     1      21.543   0.369  54.164  1.00  0.00    -0.396 OA
HETATM   27  H19 UNL     1      22.086   0.199  54.970  1.00  0.00     0.209 HD
ENDBRANCH  25  26
ENDBRANCH  22  25
ENDBRANCH  15  17
ENDBRANCH   1  15
TORSDOF 9
ENDMDL
