MODEL 1
REMARK VINA RESULT:      -8.2      0.000      0.000
REMARK  8 active torsions:
REMARK  status: ('A' for Active; 'I' for Inactive)
REMARK    1  A    between atoms: C2_2  and  C3_3 
REMARK    2  A    between atoms: C3_3  and  N1_10 
REMARK    3  A    between atoms: C4_4  and  C5_5 
REMARK    4  A    between atoms: C5_5  and  C6_6 
REMARK    5  A    between atoms: C6_6  and  C7_7 
REMARK    6  A    between atoms: C7_7  and  O2_9 
REMARK    7  A    between atoms: N1_10  and  C8_11 
REMARK    8  A    between atoms: C8_11  and  C9_12 
ROOT
HETATM    1  C8  UNL     1      24.556   0.081  53.808  1.00  0.00     0.148 C 
ENDROOT
BRANCH   1   2
HETATM    2  N1  UNL     1      25.525  -0.210  52.741  1.00  0.00    -0.390 N 
HETATM    3  H12 UNL     1      25.585  -1.135  52.236  1.00  0.00     0.159 HD
BRANCH   2   4
HETATM    4  C3  UNL     1      26.402   0.881  52.430  1.00  0.00     0.001 C 
HETATM    5  C4  UNL     1      27.576   0.813  53.036  1.00  0.00    -0.002 C 
BRANCH   4   6
HETATM    6  C2  UNL     1      25.720   1.787  51.502  1.00  0.00     0.052 C 
HETATM    7  C1  UNL     1      26.655   2.785  50.860  1.00  0.00     0.011 C 
ENDBRANCH   4   6
BRANCH   5   8
HETATM    8  C5  UNL     1      28.040  -0.248  53.965  1.00  0.00     0.039 C 
BRANCH   8   9
HETATM    9  C6  UNL     1      28.968  -1.212  53.242  1.00  0.00     0.113 C 
BRANCH   9  10
HETATM   10  C7  UNL     1      28.171  -2.428  52.889  1.00  0.00     0.139 C 
HETATM   11  O1  UNL     1      27.122  -2.627  52.191  1.00  0.00    -0.650 OA
BRANCH  10  12
HETATM   12  O2  UNL     1      28.733  -3.579  53.472  1.00  0.00    -0.776 OA
HETATM   13  H11 UNL     1      28.551  -3.762  54.469  1.00  0.00     0.167 HD
ENDBRANCH  10  12
ENDBRANCH   9  10
ENDBRANCH   8   9
ENDBRANCH   5   8
ENDBRANCH   2   4
ENDBRANCH   1   2
BRANCH   1  14
HETATM   14  C9  UNL     1      23.261   0.245  53.140  1.00  0.00     0.010 C 
HETATM   15  C10 UNL     1      22.120  -0.318  53.496  1.00  0.00     0.042 A 
HETATM   16  C11 UNL     1      21.827  -1.221  54.601  1.00  0.00     0.256 A 
HETATM   17  C17 UNL     1      20.836  -0.150  52.828  1.00  0.00     0.007 A 
HETATM   18  O3  UNL     1      22.654  -1.641  55.450  1.00  0.00    -0.267 OA
HETATM   19  N2  UNL     1      20.447  -1.582  54.605  1.00  0.00    -0.322 N 
HETATM   20  C12 UNL     1      19.886  -0.892  53.490  1.00  0.00     0.046 A 
HETATM   21  H16 UNL     1      19.981  -2.217  55.292  1.00  0.00     0.169 HD
HETATM   22  C13 UNL     1      18.554  -0.948  53.101  1.00  0.00     0.032 A 
HETATM   23  C14 UNL     1      18.173  -0.217  51.993  1.00  0.00     0.021 A 
HETATM   24  C15 UNL     1      19.102   0.538  51.307  1.00  0.00     0.011 A 
HETATM   25 BR1  UNL     1      18.650   1.582  49.755  1.00  0.00    -0.051 Br
HETATM   26  C16 UNL     1      20.421   0.577  51.712  1.00  0.00     0.033 A 
ENDBRANCH   1  14
TORSDOF 8
ENDMDL
MODEL 2
REMARK VINA RESULT:      -8.1      2.032      3.436
REMARK  8 active torsions:
REMARK  status: ('A' for Active; 'I' for Inactive)
REMARK    1  A    between atoms: C2_2  and  C3_3 
REMARK    2  A    between atoms: C3_3  and  N1_10 
REMARK    3  A    between atoms: C4_4  and  C5_5 
REMARK    4  A    between atoms: C5_5  and  C6_6 
REMARK    5  A    between atoms: C6_6  and  C7_7 
REMARK    6  A    between atoms: C7_7  and  O2_9 
REMARK    7  A    between atoms: N1_10  and  C8_11 
REMARK    8  A    between atoms: C8_11  and  C9_12 
ROOT
HETATM    1  C8  UNL     1      25.075  -0.532  54.236  1.00  0.00     0.148 C 
ENDROOT
BRANCH   1   2
HETATM    2  N1  UNL     1      26.140   0.402  53.842  1.00  0.00    -0.390 N 
HETATM    3  H12 UNL     1      26.378   1.282  54.374  1.00  0.00     0.159 HD
BRANCH   2   4
HETATM    4  C3  UNL     1      26.846   0.020  52.653  1.00  0.00     0.001 C 
HETATM    5  C4  UNL     1      26.937   0.984  51.752  1.00  0.00    -0.002 C 
BRANCH   4   6
HETATM    6  C2  UNL     1      27.275  -1.374  52.786  1.00  0.00     0.052 C 
HETATM    7  C1  UNL     1      28.717  -1.507  53.218  1.00  0.00     0.011 C 
ENDBRANCH   4   6
BRANCH   5   8
HETATM    8  C5  UNL     1      26.395   2.363  51.863  1.00  0.00     0.039 C 
BRANCH   8   9
HETATM    9  C6  UNL     1      24.994   2.426  51.274  1.00  0.00     0.113 C 
BRANCH   9  10
HETATM   10  C7  UNL     1      24.136   3.190  52.233  1.00  0.00     0.139 C 
HETATM   11  O1  UNL     1      22.999   3.762  52.140  1.00  0.00    -0.650 OA
BRANCH  10  12
HETATM   12  O2  UNL     1      24.749   3.271  53.496  1.00  0.00    -0.776 OA
HETATM   13  H11 UNL     1      25.051   4.196  53.834  1.00  0.00     0.167 HD
ENDBRANCH  10  12
ENDBRANCH   9  10
ENDBRANCH   8   9
ENDBRANCH   5   8
ENDBRANCH   2   4
ENDBRANCH   1   2
BRANCH   1  14
HETATM   14  C9  UNL     1      23.917  -0.196  53.400  1.00  0.00     0.010 C 
HETATM   15  C10 UNL     1      22.658  -0.512  53.645  1.00  0.00     0.042 A 
HETATM   16  C11 UNL     1      22.077  -1.249  54.759  1.00  0.00     0.256 A 
HETATM   17  C17 UNL     1      21.512  -0.174  52.811  1.00  0.00     0.007 A 
HETATM   18  O3  UNL     1      22.709  -1.736  55.731  1.00  0.00    -0.267 OA
HETATM   19  N2  UNL     1      20.662  -1.353  54.612  1.00  0.00    -0.322 N 
HETATM   20  C12 UNL     1      20.370  -0.673  53.393  1.00  0.00     0.046 A 
HETATM   21  H16 UNL     1      20.010  -1.833  55.274  1.00  0.00     0.169 HD
HETATM   22  C13 UNL     1      19.104  -0.521  52.844  1.00  0.00     0.032 A 
HETATM   23  C14 UNL     1      18.995   0.168  51.653  1.00  0.00     0.021 A 
HETATM   24  C15 UNL     1      20.121   0.682  51.042  1.00  0.00     0.011 A 
HETATM   25 BR1  UNL     1      20.051   1.652  49.382  1.00  0.00    -0.051 Br
HETATM   26  C16 UNL     1      21.370   0.517  51.607  1.00  0.00     0.033 A 
ENDBRANCH   1  14
TORSDOF 8
ENDMDL
MODEL 3
REMARK VINA RESULT:      -7.8      2.159      2.924
REMARK  8 active torsions:
REMARK  status: ('A' for Active; 'I' for Inactive)
REMARK    1  A    between atoms: C2_2  and  C3_3 
REMARK    2  A    between atoms: C3_3  and  N1_10 
REMARK    3  A    between atoms: C4_4  and  C5_5 
REMARK    4  A    between atoms: C5_5  and  C6_6 
REMARK    5  A    between atoms: C6_6  and  C7_7 
REMARK    6  A    between atoms: C7_7  and  O2_9 
REMARK    7  A    between atoms: N1_10  and  C8_11 
REMARK    8  A    between atoms: C8_11  and  C9_12 
ROOT
HETATM    1  C8  UNL     1      25.307  -0.700  54.203  1.00  0.00     0.148 C 
ENDROOT
BRANCH   1   2
HETATM    2  N1  UNL     1      26.466  -0.024  53.600  1.00  0.00    -0.390 N 
HETATM    3  H12 UNL     1      26.451   0.973  53.253  1.00  0.00     0.159 HD
BRANCH   2   4
HETATM    4  C3  UNL     1      27.643  -0.838  53.517  1.00  0.00     0.001 C 
HETATM    5  C4  UNL     1      28.691  -0.327  54.143  1.00  0.00    -0.002 C 
BRANCH   4   6
HETATM    6  C2  UNL     1      27.334  -2.039  52.738  1.00  0.00     0.052 C 
HETATM    7  C1  UNL     1      28.389  -3.113  52.868  1.00  0.00     0.011 C 
ENDBRANCH   4   6
BRANCH   5   8
HETATM    8  C5  UNL     1      28.748   0.957  54.887  1.00  0.00     0.039 C 
BRANCH   8   9
HETATM    9  C6  UNL     1      29.160   2.086  53.955  1.00  0.00     0.113 C 
BRANCH   9  10
HETATM   10  C7  UNL     1      27.951   2.492  53.174  1.00  0.00     0.139 C 
HETATM   11  O1  UNL     1      27.689   2.573  51.927  1.00  0.00    -0.650 OA
BRANCH  10  12
HETATM   12  O2  UNL     1      26.899   2.854  54.035  1.00  0.00    -0.776 OA
HETATM   13  H11 UNL     1      26.597   2.176  54.750  1.00  0.00     0.167 HD
ENDBRANCH  10  12
ENDBRANCH   9  10
ENDBRANCH   8   9
ENDBRANCH   5   8
ENDBRANCH   2   4
ENDBRANCH   1   2
BRANCH   1  14
HETATM   14  C9  UNL     1      24.156  -0.342  53.369  1.00  0.00     0.010 C 
HETATM   15  C10 UNL     1      22.885  -0.568  53.651  1.00  0.00     0.042 A 
HETATM   16  C11 UNL     1      22.284  -1.208  54.814  1.00  0.00     0.256 A 
HETATM   17  C17 UNL     1      21.745  -0.209  52.818  1.00  0.00     0.007 A 
HETATM   18  O3  UNL     1      22.905  -1.678  55.801  1.00  0.00    -0.267 OA
HETATM   19  N2  UNL     1      20.863  -1.236  54.696  1.00  0.00    -0.322 N 
HETATM   20  C12 UNL     1      20.587  -0.607  53.446  1.00  0.00     0.046 A 
HETATM   21  H16 UNL     1      20.197  -1.639  55.395  1.00  0.00     0.169 HD
HETATM   22  C13 UNL     1      19.322  -0.410  52.910  1.00  0.00     0.032 A 
HETATM   23  C14 UNL     1      19.230   0.218  51.684  1.00  0.00     0.021 A 
HETATM   24  C15 UNL     1      20.372   0.630  51.028  1.00  0.00     0.011 A 
HETATM   25 BR1  UNL     1      20.326   1.511  49.318  1.00  0.00    -0.051 Br
HETATM   26  C16 UNL     1      21.619   0.423  51.580  1.00  0.00     0.033 A 
ENDBRANCH   1  14
TORSDOF 8
ENDMDL
MODEL 4
REMARK VINA RESULT:      -7.7      5.209      8.523
REMARK  8 active torsions:
REMARK  status: ('A' for Active; 'I' for Inactive)
REMARK    1  A    between atoms: C2_2  and  C3_3 
REMARK    2  A    between atoms: C3_3  and  N1_10 
REMARK    3  A    between atoms: C4_4  and  C5_5 
REMARK    4  A    between atoms: C5_5  and  C6_6 
REMARK    5  A    between atoms: C6_6  and  C7_7 
REMARK    6  A    between atoms: C7_7  and  O2_9 
REMARK    7  A    between atoms: N1_10  and  C8_11 
REMARK    8  A    between atoms: C8_11  and  C9_12 
ROOT
HETATM    1  C8  UNL     1      25.122   3.100  50.388  1.00  0.00     0.148 C 
ENDROOT
BRANCH   1   2
HETATM    2  N1  UNL     1      25.464   2.950  51.810  1.00  0.00    -0.390 N 
HETATM    3  H12 UNL     1      26.102   3.607  52.335  1.00  0.00     0.159 HD
BRANCH   2   4
HETATM    4  C3  UNL     1      24.852   1.820  52.445  1.00  0.00     0.001 C 
HETATM    5  C4  UNL     1      25.682   0.810  52.654  1.00  0.00    -0.002 C 
BRANCH   4   6
HETATM    6  C2  UNL     1      23.439   2.120  52.686  1.00  0.00     0.052 C 
HETATM    7  C1  UNL     1      22.562   0.889  52.652  1.00  0.00     0.011 C 
ENDBRANCH   4   6
BRANCH   5   8
HETATM    8  C5  UNL     1      27.124   0.753  52.303  1.00  0.00     0.039 C 
BRANCH   8   9
HETATM    9  C6  UNL     1      27.967   0.634  53.563  1.00  0.00     0.113 C 
BRANCH   9  10
HETATM   10  C7  UNL     1      28.659   1.944  53.769  1.00  0.00     0.139 C 
HETATM   11  O1  UNL     1      29.417   2.411  54.683  1.00  0.00    -0.650 OA
BRANCH  10  12
HETATM   12  O2  UNL     1      28.393   2.822  52.702  1.00  0.00    -0.776 OA
HETATM   13  H11 UNL     1      27.489   2.739  52.214  1.00  0.00     0.167 HD
ENDBRANCH  10  12
ENDBRANCH   9  10
ENDBRANCH   8   9
ENDBRANCH   5   8
ENDBRANCH   2   4
ENDBRANCH   1   2
BRANCH   1  14
HETATM   14  C9  UNL     1      26.271   3.767  49.767  1.00  0.00     0.010 C 
HETATM   15  C10 UNL     1      26.264   4.948  49.174  1.00  0.00     0.042 A 
HETATM   16  C11 UNL     1      25.169   5.887  48.973  1.00  0.00     0.256 A 
HETATM   17  C17 UNL     1      27.410   5.605  48.560  1.00  0.00     0.007 A 
HETATM   18  O3  UNL     1      23.980   5.726  49.349  1.00  0.00    -0.267 OA
HETATM   19  N2  UNL     1      25.621   7.047  48.277  1.00  0.00    -0.322 N 
HETATM   20  C12 UNL     1      27.010   6.818  48.048  1.00  0.00     0.046 A 
HETATM   21  H16 UNL     1      25.034   7.869  48.008  1.00  0.00     0.169 HD
HETATM   22  C13 UNL     1      27.870   7.691  47.395  1.00  0.00     0.032 A 
HETATM   23  C14 UNL     1      29.191   7.315  47.257  1.00  0.00     0.021 A 
HETATM   24  C15 UNL     1      29.624   6.105  47.759  1.00  0.00     0.011 A 
HETATM   25 BR1  UNL     1      31.448   5.510  47.606  1.00  0.00    -0.051 Br
HETATM   26  C16 UNL     1      28.751   5.253  48.404  1.00  0.00     0.033 A 
ENDBRANCH   1  14
TORSDOF 8
ENDMDL
MODEL 5
REMARK VINA RESULT:      -7.7      1.628      1.774
REMARK  8 active torsions:
REMARK  status: ('A' for Active; 'I' for Inactive)
REMARK    1  A    between atoms: C2_2  and  C3_3 
REMARK    2  A    between atoms: C3_3  and  N1_10 
REMARK    3  A    between atoms: C4_4  and  C5_5 
REMARK    4  A    between atoms: C5_5  and  C6_6 
REMARK    5  A    between atoms: C6_6  and  C7_7 
REMARK    6  A    between atoms: C7_7  and  O2_9 
REMARK    7  A    between atoms: N1_10  and  C8_11 
REMARK    8  A    between atoms: C8_11  and  C9_12 
ROOT
HETATM    1  C8  UNL     1      24.743  -0.458  53.869  1.00  0.00     0.148 C 
ENDROOT
BRANCH   1   2
HETATM    2  N1  UNL     1      25.591   0.734  53.715  1.00  0.00    -0.390 N 
HETATM    3  H12 UNL     1      25.788   1.421  54.491  1.00  0.00     0.159 HD
BRANCH   2   4
HETATM    4  C3  UNL     1      26.141   0.896  52.401  1.00  0.00     0.001 C 
HETATM    5  C4  UNL     1      27.183   0.118  52.158  1.00  0.00    -0.002 C 
BRANCH   4   6
HETATM    6  C2  UNL     1      25.365   1.911  51.685  1.00  0.00     0.052 C 
HETATM    7  C1  UNL     1      26.198   2.708  50.708  1.00  0.00     0.011 C 
ENDBRANCH   4   6
BRANCH   5   8
HETATM    8  C5  UNL     1      27.800  -0.863  53.087  1.00  0.00     0.039 C 
BRANCH   8   9
HETATM    9  C6  UNL     1      29.165  -0.369  53.542  1.00  0.00     0.113 C 
BRANCH   9  10
HETATM   10  C7  UNL     1      28.942   0.712  54.551  1.00  0.00     0.139 C 
HETATM   11  O1  UNL     1      29.419   1.885  54.712  1.00  0.00    -0.650 OA
BRANCH  10  12
HETATM   12  O2  UNL     1      27.994   0.311  55.510  1.00  0.00    -0.776 OA
HETATM   13  H11 UNL     1      26.995   0.437  55.295  1.00  0.00     0.167 HD
ENDBRANCH  10  12
ENDBRANCH   9  10
ENDBRANCH   8   9
ENDBRANCH   5   8
ENDBRANCH   2   4
ENDBRANCH   1   2
BRANCH   1  14
HETATM   14  C9  UNL     1      23.497  -0.159  53.155  1.00  0.00     0.010 C 
HETATM   15  C10 UNL     1      22.285  -0.556  53.498  1.00  0.00     0.042 A 
HETATM   16  C11 UNL     1      21.850  -1.367  54.627  1.00  0.00     0.256 A 
HETATM   17  C17 UNL     1      21.050  -0.254  52.785  1.00  0.00     0.007 A 
HETATM   18  O3  UNL     1      22.593  -1.853  55.517  1.00  0.00    -0.267 OA
HETATM   19  N2  UNL     1      20.435  -1.548  54.603  1.00  0.00    -0.322 N 
HETATM   20  C12 UNL     1      19.996  -0.840  53.445  1.00  0.00     0.046 A 
HETATM   21  H16 UNL     1      19.873  -2.089  55.299  1.00  0.00     0.169 HD
HETATM   22  C13 UNL     1      18.679  -0.742  53.018  1.00  0.00     0.032 A 
HETATM   23  C14 UNL     1      18.423  -0.016  51.872  1.00  0.00     0.021 A 
HETATM   24  C15 UNL     1      19.459   0.585  51.185  1.00  0.00     0.011 A 
HETATM   25 BR1  UNL     1      19.185   1.611  49.581  1.00  0.00    -0.051 Br
HETATM   26  C16 UNL     1      20.761   0.472  51.629  1.00  0.00     0.033 A 
ENDBRANCH   1  14
TORSDOF 8
ENDMDL
MODEL 6
REMARK VINA RESULT:      -7.6      4.069      6.439
REMARK  8 active torsions:
REMARK  status: ('A' for Active; 'I' for Inactive)
REMARK    1  A    between atoms: C2_2  and  C3_3 
REMARK    2  A    between atoms: C3_3  and  N1_10 
REMARK    3  A    between atoms: C4_4  and  C5_5 
REMARK    4  A    between atoms: C5_5  and  C6_6 
REMARK    5  A    between atoms: C6_6  and  C7_7 
REMARK    6  A    between atoms: C7_7  and  O2_9 
REMARK    7  A    between atoms: N1_10  and  C8_11 
REMARK    8  A    between atoms: C8_11  and  C9_12 
ROOT
HETATM    1  C8  UNL     1      22.650   1.270  51.536  1.00  0.00     0.148 C 
ENDROOT
BRANCH   1   2
HETATM    2  N1  UNL     1      22.967   1.138  52.966  1.00  0.00    -0.390 N 
HETATM    3  H12 UNL     1      22.778   1.890  53.683  1.00  0.00     0.159 HD
BRANCH   2   4
HETATM    4  C3  UNL     1      23.564  -0.116  53.322  1.00  0.00     0.001 C 
HETATM    5  C4  UNL     1      24.850  -0.030  53.621  1.00  0.00    -0.002 C 
BRANCH   4   6
HETATM    6  C2  UNL     1      22.543  -1.164  53.248  1.00  0.00     0.052 C 
HETATM    7  C1  UNL     1      21.448  -0.992  54.274  1.00  0.00     0.011 C 
ENDBRANCH   4   6
BRANCH   5   8
HETATM    8  C5  UNL     1      25.686   1.198  53.619  1.00  0.00     0.039 C 
BRANCH   8   9
HETATM    9  C6  UNL     1      27.091   0.876  53.132  1.00  0.00     0.113 C 
BRANCH   9  10
HETATM   10  C7  UNL     1      27.891   2.138  53.197  1.00  0.00     0.139 C 
HETATM   11  O1  UNL     1      28.637   2.669  54.086  1.00  0.00    -0.650 OA
BRANCH  10  12
HETATM   12  O2  UNL     1      27.770   2.868  52.001  1.00  0.00    -0.776 OA
HETATM   13  H11 UNL     1      26.831   2.986  51.592  1.00  0.00     0.167 HD
ENDBRANCH  10  12
ENDBRANCH   9  10
ENDBRANCH   8   9
ENDBRANCH   5   8
ENDBRANCH   2   4
ENDBRANCH   1   2
BRANCH   1  14
HETATM   14  C9  UNL     1      23.558   2.298  51.017  1.00  0.00     0.010 C 
HETATM   15  C10 UNL     1      23.459   3.601  51.216  1.00  0.00     0.042 A 
HETATM   16  C11 UNL     1      22.471   4.360  51.969  1.00  0.00     0.256 A 
HETATM   17  C17 UNL     1      24.365   4.617  50.698  1.00  0.00     0.007 A 
HETATM   18  O3  UNL     1      21.490   3.881  52.592  1.00  0.00    -0.267 OA
HETATM   19  N2  UNL     1      22.758   5.756  51.913  1.00  0.00    -0.322 N 
HETATM   20  C12 UNL     1      23.937   5.855  51.116  1.00  0.00     0.046 A 
HETATM   21  H16 UNL     1      22.203   6.516  52.369  1.00  0.00     0.169 HD
HETATM   22  C13 UNL     1      24.586   7.038  50.790  1.00  0.00     0.032 A 
HETATM   23  C14 UNL     1      25.720   6.958  50.006  1.00  0.00     0.021 A 
HETATM   24  C15 UNL     1      26.177   5.731  49.570  1.00  0.00     0.011 A 
HETATM   25 BR1  UNL     1      27.747   5.537  48.475  1.00  0.00    -0.051 Br
HETATM   26  C16 UNL     1      25.514   4.569  49.907  1.00  0.00     0.033 A 
ENDBRANCH   1  14
TORSDOF 8
ENDMDL
MODEL 7
REMARK VINA RESULT:      -7.5      4.003      7.045
REMARK  8 active torsions:
REMARK  status: ('A' for Active; 'I' for Inactive)
REMARK    1  A    between atoms: C2_2  and  C3_3 
REMARK    2  A    between atoms: C3_3  and  N1_10 
REMARK    3  A    between atoms: C4_4  and  C5_5 
REMARK    4  A    between atoms: C5_5  and  C6_6 
REMARK    5  A    between atoms: C6_6  and  C7_7 
REMARK    6  A    between atoms: C7_7  and  O2_9 
REMARK    7  A    between atoms: N1_10  and  C8_11 
REMARK    8  A    between atoms: C8_11  and  C9_12 
ROOT
HETATM    1  C8  UNL     1      23.816   1.848  50.787  1.00  0.00     0.148 C 
ENDROOT
BRANCH   1   2
HETATM    2  N1  UNL     1      24.047   2.128  52.212  1.00  0.00    -0.390 N 
HETATM    3  H12 UNL     1      24.152   3.098  52.613  1.00  0.00     0.159 HD
BRANCH   2   4
HETATM    4  C3  UNL     1      24.119   0.956  53.036  1.00  0.00     0.001 C 
HETATM    5  C4  UNL     1      25.222   0.881  53.763  1.00  0.00    -0.002 C 
BRANCH   4   6
HETATM    6  C2  UNL     1      22.911   0.155  52.825  1.00  0.00     0.052 C 
HETATM    7  C1  UNL     1      21.715   0.684  53.582  1.00  0.00     0.011 C 
ENDBRANCH   4   6
BRANCH   5   8
HETATM    8  C5  UNL     1      26.337   1.861  53.796  1.00  0.00     0.039 C 
BRANCH   8   9
HETATM    9  C6  UNL     1      27.674   1.140  53.718  1.00  0.00     0.113 C 
BRANCH   9  10
HETATM   10  C7  UNL     1      28.750   2.158  53.924  1.00  0.00     0.139 C 
HETATM   11  O1  UNL     1      29.585   2.387  54.862  1.00  0.00    -0.650 OA
BRANCH  10  12
HETATM   12  O2  UNL     1      28.825   3.033  52.825  1.00  0.00    -0.776 OA
HETATM   13  H11 UNL     1      29.722   3.503  52.634  1.00  0.00     0.167 HD
ENDBRANCH  10  12
ENDBRANCH   9  10
ENDBRANCH   8   9
ENDBRANCH   5   8
ENDBRANCH   2   4
ENDBRANCH   1   2
BRANCH   1  14
HETATM   14  C9  UNL     1      23.917   3.141  50.103  1.00  0.00     0.010 C 
HETATM   15  C10 UNL     1      25.033   3.773  49.785  1.00  0.00     0.042 A 
HETATM   16  C11 UNL     1      26.421   3.391  50.008  1.00  0.00     0.256 A 
HETATM   17  C17 UNL     1      25.126   5.059  49.105  1.00  0.00     0.007 A 
HETATM   18  O3  UNL     1      26.815   2.338  50.571  1.00  0.00    -0.267 OA
HETATM   19  N2  UNL     1      27.306   4.385  49.494  1.00  0.00    -0.322 N 
HETATM   20  C12 UNL     1      26.452   5.389  48.950  1.00  0.00     0.046 A 
HETATM   21  H16 UNL     1      28.351   4.352  49.527  1.00  0.00     0.169 HD
HETATM   22  C13 UNL     1      26.881   6.559  48.337  1.00  0.00     0.032 A 
HETATM   23  C14 UNL     1      25.920   7.429  47.862  1.00  0.00     0.021 A 
HETATM   24  C15 UNL     1      24.581   7.127  48.002  1.00  0.00     0.011 A 
HETATM   25 BR1  UNL     1      23.183   8.288  47.367  1.00  0.00    -0.051 Br
HETATM   26  C16 UNL     1      24.179   5.958  48.616  1.00  0.00     0.033 A 
ENDBRANCH   1  14
TORSDOF 8
ENDMDL
MODEL 8
REMARK VINA RESULT:      -7.4      3.346      5.535
REMARK  8 active torsions:
REMARK  status: ('A' for Active; 'I' for Inactive)
REMARK    1  A    between atoms: C2_2  and  C3_3 
REMARK    2  A    between atoms: C3_3  and  N1_10 
REMARK    3  A    between atoms: C4_4  and  C5_5 
REMARK    4  A    between atoms: C5_5  and  C6_6 
REMARK    5  A    between atoms: C6_6  and  C7_7 
REMARK    6  A    between atoms: C7_7  and  O2_9 
REMARK    7  A    between atoms: N1_10  and  C8_11 
REMARK    8  A    between atoms: C8_11  and  C9_12 
ROOT
HETATM    1  C8  UNL     1      25.951   2.359  51.144  1.00  0.00     0.148 C 
ENDROOT
BRANCH   1   2
HETATM    2  N1  UNL     1      25.660   3.788  50.953  1.00  0.00    -0.390 N 
HETATM    3  H12 UNL     1      25.412   4.449  51.737  1.00  0.00     0.159 HD
BRANCH   2   4
HETATM    4  C3  UNL     1      25.740   4.226  49.590  1.00  0.00     0.001 C 
HETATM    5  C4  UNL     1      24.567   4.523  49.054  1.00  0.00    -0.002 C 
BRANCH   4   6
HETATM    6  C2  UNL     1      27.143   4.217  49.171  1.00  0.00     0.052 C 
HETATM    7  C1  UNL     1      27.567   5.504  48.503  1.00  0.00     0.011 C 
ENDBRANCH   4   6
BRANCH   5   8
HETATM    8  C5  UNL     1      23.239   4.445  49.714  1.00  0.00     0.039 C 
BRANCH   8   9
HETATM    9  C6  UNL     1      22.986   5.700  50.536  1.00  0.00     0.113 C 
BRANCH   9  10
HETATM   10  C7  UNL     1      22.808   5.278  51.960  1.00  0.00     0.139 C 
HETATM   11  O1  UNL     1      21.894   4.649  52.590  1.00  0.00    -0.650 OA
BRANCH  10  12
HETATM   12  O2  UNL     1      23.907   5.682  52.740  1.00  0.00    -0.776 OA
HETATM   13  H11 UNL     1      24.855   5.464  52.400  1.00  0.00     0.167 HD
ENDBRANCH  10  12
ENDBRANCH   9  10
ENDBRANCH   8   9
ENDBRANCH   5   8
ENDBRANCH   2   4
ENDBRANCH   1   2
BRANCH   1  14
HETATM   14  C9  UNL     1      24.689   1.747  51.571  1.00  0.00     0.010 C 
HETATM   15  C10 UNL     1      24.533   0.886  52.561  1.00  0.00     0.042 A 
HETATM   16  C11 UNL     1      25.518   0.321  53.474  1.00  0.00     0.256 A 
HETATM   17  C17 UNL     1      23.276   0.281  52.981  1.00  0.00     0.007 A 
HETATM   18  O3  UNL     1      26.750   0.569  53.475  1.00  0.00    -0.267 OA
HETATM   19  N2  UNL     1      24.897  -0.575  54.394  1.00  0.00    -0.322 N 
HETATM   20  C12 UNL     1      23.515  -0.559  54.043  1.00  0.00     0.046 A 
HETATM   21  H16 UNL     1      25.381  -1.110  55.151  1.00  0.00     0.169 HD
HETATM   22  C13 UNL     1      22.519  -1.291  54.676  1.00  0.00     0.032 A 
HETATM   23  C14 UNL     1      21.226  -1.162  54.210  1.00  0.00     0.021 A 
HETATM   24  C15 UNL     1      20.952  -0.326  53.146  1.00  0.00     0.011 A 
HETATM   25 BR1  UNL     1      19.178  -0.092  52.439  1.00  0.00    -0.051 Br
HETATM   26  C16 UNL     1      21.959   0.391  52.532  1.00  0.00     0.033 A 
ENDBRANCH   1  14
TORSDOF 8
ENDMDL
MODEL 9
REMARK VINA RESULT:      -7.2      4.136      6.723
REMARK  8 active torsions:
REMARK  status: ('A' for Active; 'I' for Inactive)
REMARK    1  A    between atoms: C2_2  and  C3_3 
REMARK    2  A    between atoms: C3_3  and  N1_10 
REMARK    3  A    between atoms: C4_4  and  C5_5 
REMARK    4  A    between atoms: C5_5  and  C6_6 
REMARK    5  A    between atoms: C6_6  and  C7_7 
REMARK    6  A    between atoms: C7_7  and  O2_9 
REMARK    7  A    between atoms: N1_10  and  C8_11 
REMARK    8  A    between atoms: C8_11  and  C9_12 
ROOT
HETATM    1  C8  UNL     1      26.755   3.121  50.374  1.00  0.00     0.148 C 
ENDROOT
BRANCH   1   2
HETATM    2  N1  UNL     1      26.069   4.421  50.422  1.00  0.00    -0.390 N 
HETATM    3  H12 UNL     1      25.561   4.788  51.271  1.00  0.00     0.159 HD
BRANCH   2   4
HETATM    4  C3  UNL     1      26.144   5.169  49.201  1.00  0.00     0.001 C 
HETATM    5  C4  UNL     1      25.029   5.813  48.899  1.00  0.00    -0.002 C 
BRANCH   4   6
HETATM    6  C2  UNL     1      27.478   4.997  48.622  1.00  0.00     0.052 C 
HETATM    7  C1  UNL     1      28.135   6.308  48.257  1.00  0.00     0.011 C 
ENDBRANCH   4   6
BRANCH   5   8
HETATM    8  C5  UNL     1      23.766   5.826  49.682  1.00  0.00     0.039 C 
BRANCH   8   9
HETATM    9  C6  UNL     1      22.662   5.120  48.909  1.00  0.00     0.113 C 
BRANCH   9  10
HETATM   10  C7  UNL     1      22.771   3.657  49.199  1.00  0.00     0.139 C 
HETATM   11  O1  UNL     1      23.233   2.658  48.553  1.00  0.00    -0.650 OA
BRANCH  10  12
HETATM   12  O2  UNL     1      22.240   3.359  50.467  1.00  0.00    -0.776 OA
HETATM   13  H11 UNL     1      22.829   2.843  51.136  1.00  0.00     0.167 HD
ENDBRANCH  10  12
ENDBRANCH   9  10
ENDBRANCH   8   9
ENDBRANCH   5   8
ENDBRANCH   2   4
ENDBRANCH   1   2
BRANCH   1  14
HETATM   14  C9  UNL     1      25.963   2.218  51.215  1.00  0.00     0.010 C 
HETATM   15  C10 UNL     1      26.339   1.690  52.367  1.00  0.00     0.042 A 
HETATM   16  C11 UNL     1      27.587   1.841  53.102  1.00  0.00     0.256 A 
HETATM   17  C17 UNL     1      25.546   0.794  53.198  1.00  0.00     0.007 A 
HETATM   18  O3  UNL     1      28.573   2.537  52.748  1.00  0.00    -0.267 OA
HETATM   19  N2  UNL     1      27.556   1.082  54.310  1.00  0.00    -0.322 N 
HETATM   20  C12 UNL     1      26.274   0.457  54.316  1.00  0.00     0.046 A 
HETATM   21  H16 UNL     1      28.325   1.020  55.015  1.00  0.00     0.169 HD
HETATM   22  C13 UNL     1      25.799  -0.387  55.310  1.00  0.00     0.032 A 
HETATM   23  C14 UNL     1      24.530  -0.910  55.163  1.00  0.00     0.021 A 
HETATM   24  C15 UNL     1      23.773  -0.592  54.053  1.00  0.00     0.011 A 
HETATM   25 BR1  UNL     1      21.998  -1.280  53.775  1.00  0.00    -0.051 Br
HETATM   26  C16 UNL     1      24.267   0.249  53.076  1.00  0.00     0.033 A 
ENDBRANCH   1  14
TORSDOF 8
ENDMDL
