MODEL 1
REMARK VINA RESULT:      -7.7      0.000      0.000
REMARK  4 active torsions:
REMARK  status: ('A' for Active; 'I' for Inactive)
REMARK    1  A    between atoms: C1_2  and  N1_3 
REMARK    2  A    between atoms: N1_3  and  C2_4 
REMARK    3  A    between atoms: C7_11  and  N4_12 
REMARK    4  A    between atoms: N4_12  and  C8_13 
ROOT
HETATM    1  C2  UNL     1      26.559   0.379  54.398  1.00  0.00     0.143 A 
HETATM    2  C3  UNL     1      25.661  -0.565  54.207  1.00  0.00     0.058 A 
HETATM    3  C4  UNL     1      24.361  -0.404  53.549  1.00  0.00     0.037 A 
HETATM    4  C5  UNL     1      23.833   0.731  53.050  1.00  0.00     0.074 A 
HETATM    5  N2  UNL     1      22.633   0.477  52.528  1.00  0.00    -0.241 NA
HETATM    6  C6  UNL     1      21.903   1.444  51.983  1.00  0.00     0.236 A 
HETATM    7  N3  UNL     1      22.423   2.693  51.979  1.00  0.00    -0.223 NA
HETATM    8  C7  UNL     1      23.635   2.950  52.507  1.00  0.00     0.143 A 
HETATM    9  C14 UNL     1      24.409   1.985  53.071  1.00  0.00     0.061 A 
HETATM   10  C15 UNL     1      25.578   2.468  53.493  1.00  0.00     0.162 A 
HETATM   11  O1  UNL     1      26.632   1.734  54.087  1.00  0.00    -0.305 OA
ENDROOT
BRANCH   8  12
HETATM   12  N4  UNL     1      24.041   4.336  52.451  1.00  0.00    -0.340 N 
HETATM   13  H7  UNL     1      24.167   4.931  53.326  1.00  0.00     0.167 HD
BRANCH  12  14
HETATM   14  C8  UNL     1      24.299   5.008  51.192  1.00  0.00     0.035 A 
HETATM   15  C9  UNL     1      25.176   4.579  50.244  1.00  0.00     0.029 A 
HETATM   16  C10 UNL     1      25.389   5.235  49.050  1.00  0.00     0.004 A 
HETATM   17  C11 UNL     1      24.645   6.392  48.850  1.00  0.00     0.019 A 
HETATM   18  C12 UNL     1      23.771   6.805  49.814  1.00  0.00     0.013 A 
HETATM   19 BR1  UNL     1      22.798   8.422  49.414  1.00  0.00    -0.051 Br
HETATM   20  C13 UNL     1      23.521   6.172  51.040  1.00  0.00     0.048 A 
ENDBRANCH  12  14
ENDBRANCH   8  12
BRANCH   1  21
HETATM   21  N1  UNL     1      27.645  -0.280  55.080  1.00  0.00    -0.358 N 
HETATM   22  H3  UNL     1      27.102  -0.968  55.637  1.00  0.00     0.162 HD
BRANCH  21  23
HETATM   23  C1  UNL     1      28.876   0.352  54.639  1.00  0.00     0.237 C 
HETATM   24 CL1  UNL     1      29.807  -0.767  53.587  1.00  0.00    -0.109 Cl
ENDBRANCH  21  23
ENDBRANCH   1  21
TORSDOF 4
ENDMDL
MODEL 2
REMARK VINA RESULT:      -7.5      2.896      4.119
REMARK  4 active torsions:
REMARK  status: ('A' for Active; 'I' for Inactive)
REMARK    1  A    between atoms: C1_2  and  N1_3 
REMARK    2  A    between atoms: N1_3  and  C2_4 
REMARK    3  A    between atoms: C7_11  and  N4_12 
REMARK    4  A    between atoms: N4_12  and  C8_13 
ROOT
HETATM    1  C2  UNL     1      23.646  -0.474  53.494  1.00  0.00     0.143 A 
HETATM    2  C3  UNL     1      24.486  -0.507  54.507  1.00  0.00     0.058 A 
HETATM    3  C4  UNL     1      25.766   0.203  54.595  1.00  0.00     0.037 A 
HETATM    4  C5  UNL     1      26.332   0.986  53.656  1.00  0.00     0.074 A 
HETATM    5  N2  UNL     1      27.496   1.456  54.106  1.00  0.00    -0.241 NA
HETATM    6  C6  UNL     1      28.253   2.246  53.352  1.00  0.00     0.236 A 
HETATM    7  N3  UNL     1      27.799   2.555  52.116  1.00  0.00    -0.223 NA
HETATM    8  C7  UNL     1      26.623   2.079  51.662  1.00  0.00     0.143 A 
HETATM    9  C14 UNL     1      25.823   1.270  52.405  1.00  0.00     0.061 A 
HETATM   10  C15 UNL     1      24.697   0.955  51.763  1.00  0.00     0.162 A 
HETATM   11  O1  UNL     1      23.631   0.169  52.259  1.00  0.00    -0.305 OA
ENDROOT
BRANCH   8  12
HETATM   12  N4  UNL     1      26.287   2.476  50.313  1.00  0.00    -0.340 N 
HETATM   13  H7  UNL     1      26.006   1.773  49.564  1.00  0.00     0.167 HD
BRANCH  12  14
HETATM   14  C8  UNL     1      26.315   3.864  49.894  1.00  0.00     0.035 A 
HETATM   15  C9  UNL     1      27.220   4.399  49.030  1.00  0.00     0.029 A 
HETATM   16  C10 UNL     1      27.210   5.722  48.640  1.00  0.00     0.004 A 
HETATM   17  C11 UNL     1      26.205   6.511  49.186  1.00  0.00     0.019 A 
HETATM   18  C12 UNL     1      25.308   5.954  50.052  1.00  0.00     0.013 A 
HETATM   19 BR1  UNL     1      23.962   7.153  50.737  1.00  0.00    -0.051 Br
HETATM   20  C13 UNL     1      25.277   4.617  50.476  1.00  0.00     0.048 A 
ENDBRANCH  12  14
ENDBRANCH   8  12
BRANCH   1  21
HETATM   21  N1  UNL     1      22.555  -1.328  53.894  1.00  0.00    -0.358 N 
HETATM   22  H3  UNL     1      23.095  -2.089  54.351  1.00  0.00     0.162 HD
BRANCH  21  23
HETATM   23  C1  UNL     1      21.327  -0.689  53.454  1.00  0.00     0.237 C 
HETATM   24 CL1  UNL     1      20.748   0.466  54.702  1.00  0.00    -0.109 Cl
ENDBRANCH  21  23
ENDBRANCH   1  21
TORSDOF 4
ENDMDL
MODEL 3
REMARK VINA RESULT:      -7.4      2.215      2.595
REMARK  4 active torsions:
REMARK  status: ('A' for Active; 'I' for Inactive)
REMARK    1  A    between atoms: C1_2  and  N1_3 
REMARK    2  A    between atoms: N1_3  and  C2_4 
REMARK    3  A    between atoms: C7_11  and  N4_12 
REMARK    4  A    between atoms: N4_12  and  C8_13 
ROOT
HETATM    1  C2  UNL     1      27.564   1.645  53.619  1.00  0.00     0.143 A 
HETATM    2  C3  UNL     1      26.459   1.176  54.159  1.00  0.00     0.058 A 
HETATM    3  C4  UNL     1      25.121   1.208  53.559  1.00  0.00     0.037 A 
HETATM    4  C5  UNL     1      24.769   1.744  52.375  1.00  0.00     0.074 A 
HETATM    5  N2  UNL     1      23.462   1.575  52.175  1.00  0.00    -0.241 NA
HETATM    6  C6  UNL     1      22.871   2.033  51.076  1.00  0.00     0.236 A 
HETATM    7  N3  UNL     1      23.644   2.674  50.170  1.00  0.00    -0.223 NA
HETATM    8  C7  UNL     1      24.965   2.845  50.373  1.00  0.00     0.143 A 
HETATM    9  C14 UNL     1      25.603   2.390  51.484  1.00  0.00     0.061 A 
HETATM   10  C15 UNL     1      26.911   2.644  51.447  1.00  0.00     0.162 A 
HETATM   11  O1  UNL     1      27.873   2.273  52.416  1.00  0.00    -0.305 OA
ENDROOT
BRANCH   8  12
HETATM   12  N4  UNL     1      25.650   3.573  49.328  1.00  0.00    -0.340 N 
HETATM   13  H7  UNL     1      26.002   3.101  48.439  1.00  0.00     0.167 HD
BRANCH  12  14
HETATM   14  C8  UNL     1      25.906   4.996  49.427  1.00  0.00     0.035 A 
HETATM   15  C9  UNL     1      25.199   5.864  50.200  1.00  0.00     0.029 A 
HETATM   16  C10 UNL     1      25.478   7.212  50.282  1.00  0.00     0.004 A 
HETATM   17  C11 UNL     1      26.547   7.661  49.517  1.00  0.00     0.019 A 
HETATM   18  C12 UNL     1      27.243   6.773  48.748  1.00  0.00     0.013 A 
HETATM   19 BR1  UNL     1      28.705   7.521  47.735  1.00  0.00    -0.051 Br
HETATM   20  C13 UNL     1      26.998   5.397  48.633  1.00  0.00     0.048 A 
ENDBRANCH  12  14
ENDBRANCH   8  12
BRANCH   1  21
HETATM   21  N1  UNL     1      28.591   1.374  54.594  1.00  0.00    -0.358 N 
HETATM   22  H3  UNL     1      28.809   2.348  54.885  1.00  0.00     0.162 HD
BRANCH  21  23
HETATM   23  C1  UNL     1      28.769  -0.066  54.642  1.00  0.00     0.237 C 
HETATM   24 CL1  UNL     1      30.066  -0.570  53.506  1.00  0.00    -0.109 Cl
ENDBRANCH  21  23
ENDBRANCH   1  21
TORSDOF 4
ENDMDL
MODEL 4
REMARK VINA RESULT:      -7.3      5.225      6.954
REMARK  4 active torsions:
REMARK  status: ('A' for Active; 'I' for Inactive)
REMARK    1  A    between atoms: C1_2  and  N1_3 
REMARK    2  A    between atoms: N1_3  and  C2_4 
REMARK    3  A    between atoms: C7_11  and  N4_12 
REMARK    4  A    between atoms: N4_12  and  C8_13 
ROOT
HETATM    1  C2  UNL     1      19.951   0.311  52.181  1.00  0.00     0.143 A 
HETATM    2  C3  UNL     1      19.661  -0.371  53.270  1.00  0.00     0.058 A 
HETATM    3  C4  UNL     1      20.620  -0.868  54.261  1.00  0.00     0.037 A 
HETATM    4  C5  UNL     1      21.962  -0.752  54.229  1.00  0.00     0.074 A 
HETATM    5  N2  UNL     1      22.489  -1.330  55.309  1.00  0.00    -0.241 NA
HETATM    6  C6  UNL     1      23.804  -1.358  55.500  1.00  0.00     0.236 A 
HETATM    7  N3  UNL     1      24.585  -0.778  54.560  1.00  0.00    -0.223 NA
HETATM    8  C7  UNL     1      24.052  -0.195  53.468  1.00  0.00     0.143 A 
HETATM    9  C14 UNL     1      22.713  -0.147  53.241  1.00  0.00     0.061 A 
HETATM   10  C15 UNL     1      22.421   0.510  52.119  1.00  0.00     0.162 A 
HETATM   11  O1  UNL     1      21.129   0.780  51.608  1.00  0.00    -0.305 OA
ENDROOT
BRANCH   8  12
HETATM   12  N4  UNL     1      25.016   0.357  52.543  1.00  0.00    -0.340 N 
HETATM   13  H7  UNL     1      24.797   0.506  51.511  1.00  0.00     0.167 HD
BRANCH  12  14
HETATM   14  C8  UNL     1      26.350   0.739  52.964  1.00  0.00     0.035 A 
HETATM   15  C9  UNL     1      26.728   1.999  53.309  1.00  0.00     0.029 A 
HETATM   16  C10 UNL     1      28.004   2.327  53.719  1.00  0.00     0.004 A 
HETATM   17  C11 UNL     1      28.917   1.280  53.764  1.00  0.00     0.019 A 
HETATM   18  C12 UNL     1      28.517   0.023  53.413  1.00  0.00     0.013 A 
HETATM   19 BR1  UNL     1      29.877  -1.341  53.521  1.00  0.00    -0.051 Br
HETATM   20  C13 UNL     1      27.234  -0.357  52.992  1.00  0.00     0.048 A 
ENDBRANCH  12  14
ENDBRANCH   8  12
BRANCH   1  21
HETATM   21  N1  UNL     1      18.677   0.558  51.554  1.00  0.00    -0.358 N 
HETATM   22  H3  UNL     1      18.256  -0.387  51.648  1.00  0.00     0.162 HD
BRANCH  21  23
HETATM   23  C1  UNL     1      18.666   1.949  51.136  1.00  0.00     0.237 C 
HETATM   24 CL1  UNL     1      18.949   2.067  49.366  1.00  0.00    -0.109 Cl
ENDBRANCH  21  23
ENDBRANCH   1  21
TORSDOF 4
ENDMDL
MODEL 5
REMARK VINA RESULT:      -7.3      3.505      5.494
REMARK  4 active torsions:
REMARK  status: ('A' for Active; 'I' for Inactive)
REMARK    1  A    between atoms: C1_2  and  N1_3 
REMARK    2  A    between atoms: N1_3  and  C2_4 
REMARK    3  A    between atoms: C7_11  and  N4_12 
REMARK    4  A    between atoms: N4_12  and  C8_13 
ROOT
HETATM    1  C2  UNL     1      26.388  -0.476  53.107  1.00  0.00     0.143 A 
HETATM    2  C3  UNL     1      26.830   0.400  52.229  1.00  0.00     0.058 A 
HETATM    3  C4  UNL     1      26.050   1.478  51.612  1.00  0.00     0.037 A 
HETATM    4  C5  UNL     1      24.745   1.752  51.801  1.00  0.00     0.074 A 
HETATM    5  N2  UNL     1      24.397   2.811  51.068  1.00  0.00    -0.241 NA
HETATM    6  C6  UNL     1      23.151   3.270  51.074  1.00  0.00     0.236 A 
HETATM    7  N3  UNL     1      22.250   2.626  51.851  1.00  0.00    -0.223 NA
HETATM    8  C7  UNL     1      22.601   1.556  52.591  1.00  0.00     0.143 A 
HETATM    9  C14 UNL     1      23.866   1.060  52.610  1.00  0.00     0.061 A 
HETATM   10  C15 UNL     1      23.983   0.023  53.440  1.00  0.00     0.162 A 
HETATM   11  O1  UNL     1      25.163  -0.700  53.731  1.00  0.00    -0.305 OA
ENDROOT
BRANCH   8  12
HETATM   12  N4  UNL     1      21.522   0.961  53.347  1.00  0.00    -0.340 N 
HETATM   13  H7  UNL     1      21.567   0.835  54.404  1.00  0.00     0.167 HD
BRANCH  12  14
HETATM   14  C8  UNL     1      20.308   0.491  52.709  1.00  0.00     0.035 A 
HETATM   15  C9  UNL     1      19.785   0.997  51.559  1.00  0.00     0.029 A 
HETATM   16  C10 UNL     1      18.633   0.518  50.971  1.00  0.00     0.004 A 
HETATM   17  C11 UNL     1      18.009  -0.538  51.624  1.00  0.00     0.019 A 
HETATM   18  C12 UNL     1      18.551  -1.030  52.776  1.00  0.00     0.013 A 
HETATM   19 BR1  UNL     1      17.590  -2.496  53.584  1.00  0.00    -0.051 Br
HETATM   20  C13 UNL     1      19.717  -0.577  53.410  1.00  0.00     0.048 A 
ENDBRANCH  12  14
ENDBRANCH   8  12
BRANCH   1  21
HETATM   21  N1  UNL     1      27.526  -1.312  53.396  1.00  0.00    -0.358 N 
HETATM   22  H3  UNL     1      27.181  -2.210  53.004  1.00  0.00     0.162 HD
BRANCH  21  23
HETATM   23  C1  UNL     1      28.512  -0.479  54.063  1.00  0.00     0.237 C 
HETATM   24 CL1  UNL     1      30.169  -1.080  53.716  1.00  0.00    -0.109 Cl
ENDBRANCH  21  23
ENDBRANCH   1  21
TORSDOF 4
ENDMDL
MODEL 6
REMARK VINA RESULT:      -7.1      1.989      2.408
REMARK  4 active torsions:
REMARK  status: ('A' for Active; 'I' for Inactive)
REMARK    1  A    between atoms: C1_2  and  N1_3 
REMARK    2  A    between atoms: N1_3  and  C2_4 
REMARK    3  A    between atoms: C7_11  and  N4_12 
REMARK    4  A    between atoms: N4_12  and  C8_13 
ROOT
HETATM    1  C2  UNL     1      26.834   1.089  54.147  1.00  0.00     0.143 A 
HETATM    2  C3  UNL     1      26.382  -0.060  54.604  1.00  0.00     0.058 A 
HETATM    3  C4  UNL     1      25.054  -0.630  54.353  1.00  0.00     0.037 A 
HETATM    4  C5  UNL     1      24.049  -0.079  53.646  1.00  0.00     0.074 A 
HETATM    5  N2  UNL     1      22.999  -0.902  53.641  1.00  0.00    -0.241 NA
HETATM    6  C6  UNL     1      21.873  -0.573  53.016  1.00  0.00     0.236 A 
HETATM    7  N3  UNL     1      21.833   0.624  52.386  1.00  0.00    -0.223 NA
HETATM    8  C7  UNL     1      22.894   1.454  52.392  1.00  0.00     0.143 A 
HETATM    9  C14 UNL     1      24.061   1.151  53.019  1.00  0.00     0.061 A 
HETATM   10  C15 UNL     1      24.976   2.106  52.859  1.00  0.00     0.162 A 
HETATM   11  O1  UNL     1      26.306   2.095  53.342  1.00  0.00    -0.305 OA
ENDROOT
BRANCH   8  12
HETATM   12  N4  UNL     1      22.688   2.706  51.699  1.00  0.00    -0.340 N 
HETATM   13  H7  UNL     1      22.630   3.639  52.209  1.00  0.00     0.167 HD
BRANCH  12  14
HETATM   14  C8  UNL     1      22.543   2.769  50.257  1.00  0.00     0.035 A 
HETATM   15  C9  UNL     1      22.277   1.704  49.453  1.00  0.00     0.029 A 
HETATM   16  C10 UNL     1      22.132   1.801  48.085  1.00  0.00     0.004 A 
HETATM   17  C11 UNL     1      22.274   3.073  47.545  1.00  0.00     0.019 A 
HETATM   18  C12 UNL     1      22.542   4.127  48.370  1.00  0.00     0.013 A 
HETATM   19 BR1  UNL     1      22.714   5.840  47.499  1.00  0.00    -0.051 Br
HETATM   20  C13 UNL     1      22.697   4.079  49.763  1.00  0.00     0.048 A 
ENDBRANCH  12  14
ENDBRANCH   8  12
BRANCH   1  21
HETATM   21  N1  UNL     1      28.173   1.190  54.670  1.00  0.00    -0.358 N 
HETATM   22  H3  UNL     1      27.952   1.330  55.675  1.00  0.00     0.162 HD
BRANCH  21  23
HETATM   23  C1  UNL     1      29.084   1.050  53.547  1.00  0.00     0.237 C 
HETATM   24 CL1  UNL     1      29.946  -0.523  53.640  1.00  0.00    -0.109 Cl
ENDBRANCH  21  23
ENDBRANCH   1  21
TORSDOF 4
ENDMDL
MODEL 7
REMARK VINA RESULT:      -7.1      3.617      4.882
REMARK  4 active torsions:
REMARK  status: ('A' for Active; 'I' for Inactive)
REMARK    1  A    between atoms: C1_2  and  N1_3 
REMARK    2  A    between atoms: N1_3  and  C2_4 
REMARK    3  A    between atoms: C7_11  and  N4_12 
REMARK    4  A    between atoms: N4_12  and  C8_13 
ROOT
HETATM    1  C2  UNL     1      21.206  -0.749  53.775  1.00  0.00     0.143 A 
HETATM    2  C3  UNL     1      22.137  -1.232  54.571  1.00  0.00     0.058 A 
HETATM    3  C4  UNL     1      23.563  -0.893  54.542  1.00  0.00     0.037 A 
HETATM    4  C5  UNL     1      24.187  -0.060  53.687  1.00  0.00     0.074 A 
HETATM    5  N2  UNL     1      25.487  -0.007  53.980  1.00  0.00    -0.241 NA
HETATM    6  C6  UNL     1      26.321   0.741  53.265  1.00  0.00     0.236 A 
HETATM    7  N3  UNL     1      25.802   1.446  52.233  1.00  0.00    -0.223 NA
HETATM    8  C7  UNL     1      24.489   1.392  51.938  1.00  0.00     0.143 A 
HETATM    9  C14 UNL     1      23.607   0.638  52.647  1.00  0.00     0.061 A 
HETATM   10  C15 UNL     1      22.361   0.771  52.194  1.00  0.00     0.162 A 
HETATM   11  O1  UNL     1      21.198   0.164  52.724  1.00  0.00    -0.305 OA
ENDROOT
BRANCH   8  12
HETATM   12  N4  UNL     1      24.092   2.178  50.792  1.00  0.00    -0.340 N 
HETATM   13  H7  UNL     1      23.617   1.748  49.940  1.00  0.00     0.167 HD
BRANCH  12  14
HETATM   14  C8  UNL     1      24.319   3.609  50.729  1.00  0.00     0.035 A 
HETATM   15  C9  UNL     1      23.637   4.540  51.450  1.00  0.00     0.029 A 
HETATM   16  C10 UNL     1      23.889   5.894  51.376  1.00  0.00     0.004 A 
HETATM   17  C11 UNL     1      24.900   6.280  50.505  1.00  0.00     0.019 A 
HETATM   18  C12 UNL     1      25.571   5.329  49.791  1.00  0.00     0.013 A 
HETATM   19 BR1  UNL     1      26.953   5.993  48.620  1.00  0.00    -0.051 Br
HETATM   20  C13 UNL     1      25.353   3.944  49.833  1.00  0.00     0.048 A 
ENDBRANCH  12  14
ENDBRANCH   8  12
BRANCH   1  21
HETATM   21  N1  UNL     1      19.988  -1.389  54.204  1.00  0.00    -0.358 N 
HETATM   22  H3  UNL     1      20.359  -1.942  55.002  1.00  0.00     0.162 HD
BRANCH  21  23
HETATM   23  C1  UNL     1      18.929  -0.937  53.319  1.00  0.00     0.237 C 
HETATM   24 CL1  UNL     1      17.565  -2.105  53.335  1.00  0.00    -0.109 Cl
ENDBRANCH  21  23
ENDBRANCH   1  21
TORSDOF 4
ENDMDL
MODEL 8
REMARK VINA RESULT:      -7.1      3.245      4.545
REMARK  4 active torsions:
REMARK  status: ('A' for Active; 'I' for Inactive)
REMARK    1  A    between atoms: C1_2  and  N1_3 
REMARK    2  A    between atoms: N1_3  and  C2_4 
REMARK    3  A    between atoms: C7_11  and  N4_12 
REMARK    4  A    between atoms: N4_12  and  C8_13 
ROOT
HETATM    1  C2  UNL     1      22.322   0.679  52.288  1.00  0.00     0.143 A 
HETATM    2  C3  UNL     1      23.070   0.249  53.283  1.00  0.00     0.058 A 
HETATM    3  C4  UNL     1      24.487   0.556  53.497  1.00  0.00     0.037 A 
HETATM    4  C5  UNL     1      25.290   1.299  52.711  1.00  0.00     0.074 A 
HETATM    5  N2  UNL     1      26.514   1.351  53.239  1.00  0.00    -0.241 NA
HETATM    6  C6  UNL     1      27.493   2.017  52.636  1.00  0.00     0.236 A 
HETATM    7  N3  UNL     1      27.202   2.640  51.471  1.00  0.00    -0.223 NA
HETATM    8  C7  UNL     1      25.966   2.587  50.938  1.00  0.00     0.143 A 
HETATM    9  C14 UNL     1      24.941   1.915  51.526  1.00  0.00     0.061 A 
HETATM   10  C15 UNL     1      23.806   2.033  50.836  1.00  0.00     0.162 A 
HETATM   11  O1  UNL     1      22.544   1.498  51.184  1.00  0.00    -0.305 OA
ENDROOT
BRANCH   8  12
HETATM   12  N4  UNL     1      25.818   3.279  49.677  1.00  0.00    -0.340 N 
HETATM   13  H7  UNL     1      25.544   2.777  48.778  1.00  0.00     0.167 HD
BRANCH  12  14
HETATM   14  C8  UNL     1      26.039   4.707  49.557  1.00  0.00     0.035 A 
HETATM   15  C9  UNL     1      25.300   5.665  50.178  1.00  0.00     0.029 A 
HETATM   16  C10 UNL     1      25.545   7.017  50.053  1.00  0.00     0.004 A 
HETATM   17  C11 UNL     1      26.614   7.369  49.238  1.00  0.00     0.019 A 
HETATM   18  C12 UNL     1      27.342   6.391  48.623  1.00  0.00     0.013 A 
HETATM   19 BR1  UNL     1      28.800   7.010  47.522  1.00  0.00    -0.051 Br
HETATM   20  C13 UNL     1      27.132   5.008  48.721  1.00  0.00     0.048 A 
ENDBRANCH  12  14
ENDBRANCH   8  12
BRANCH   1  21
HETATM   21  N1  UNL     1      21.023   0.103  52.530  1.00  0.00    -0.358 N 
HETATM   22  H3  UNL     1      20.684   0.034  51.550  1.00  0.00     0.162 HD
BRANCH  21  23
HETATM   23  C1  UNL     1      20.887  -0.063  53.966  1.00  0.00     0.237 C 
HETATM   24 CL1  UNL     1      20.756  -1.806  54.380  1.00  0.00    -0.109 Cl
ENDBRANCH  21  23
ENDBRANCH   1  21
TORSDOF 4
ENDMDL
MODEL 9
REMARK VINA RESULT:      -7.1      3.979      6.824
REMARK  4 active torsions:
REMARK  status: ('A' for Active; 'I' for Inactive)
REMARK    1  A    between atoms: C1_2  and  N1_3 
REMARK    2  A    between atoms: N1_3  and  C2_4 
REMARK    3  A    between atoms: C7_11  and  N4_12 
REMARK    4  A    between atoms: N4_12  and  C8_13 
ROOT
HETATM    1  C2  UNL     1      27.725   5.768  48.482  1.00  0.00     0.143 A 
HETATM    2  C3  UNL     1      26.991   6.797  48.853  1.00  0.00     0.058 A 
HETATM    3  C4  UNL     1      25.819   6.752  49.733  1.00  0.00     0.037 A 
HETATM    4  C5  UNL     1      25.258   5.662  50.293  1.00  0.00     0.074 A 
HETATM    5  N2  UNL     1      24.208   6.025  51.030  1.00  0.00    -0.241 NA
HETATM    6  C6  UNL     1      23.478   5.122  51.675  1.00  0.00     0.236 A 
HETATM    7  N3  UNL     1      23.841   3.824  51.557  1.00  0.00    -0.223 NA
HETATM    8  C7  UNL     1      24.901   3.458  50.812  1.00  0.00     0.143 A 
HETATM    9  C14 UNL     1      25.671   4.354  50.139  1.00  0.00     0.061 A 
HETATM   10  C15 UNL     1      26.682   3.764  49.501  1.00  0.00     0.162 A 
HETATM   11  O1  UNL     1      27.692   4.401  48.744  1.00  0.00    -0.305 OA
ENDROOT
BRANCH   8  12
HETATM   12  N4  UNL     1      25.146   2.034  50.762  1.00  0.00    -0.340 N 
HETATM   13  H7  UNL     1      25.093   1.476  49.856  1.00  0.00     0.167 HD
BRANCH  12  14
HETATM   14  C8  UNL     1      25.476   1.271  51.951  1.00  0.00     0.035 A 
HETATM   15  C9  UNL     1      24.574   0.623  52.737  1.00  0.00     0.029 A 
HETATM   16  C10 UNL     1      24.923  -0.105  53.854  1.00  0.00     0.004 A 
HETATM   17  C11 UNL     1      26.279  -0.150  54.154  1.00  0.00     0.019 A 
HETATM   18  C12 UNL     1      27.167   0.508  53.352  1.00  0.00     0.013 A 
HETATM   19 BR1  UNL     1      29.019   0.366  53.874  1.00  0.00    -0.051 Br
HETATM   20  C13 UNL     1      26.860   1.259  52.208  1.00  0.00     0.048 A 
ENDBRANCH  12  14
ENDBRANCH   8  12
BRANCH   1  21
HETATM   21  N1  UNL     1      28.742   6.331  47.630  1.00  0.00    -0.358 N 
HETATM   22  H3  UNL     1      28.151   6.606  46.821  1.00  0.00     0.162 HD
BRANCH  21  23
HETATM   23  C1  UNL     1      30.006   6.213  48.334  1.00  0.00     0.237 C 
HETATM   24 CL1  UNL     1      30.990   4.888  47.625  1.00  0.00    -0.109 Cl
ENDBRANCH  21  23
ENDBRANCH   1  21
TORSDOF 4
ENDMDL
