MODEL 1
REMARK VINA RESULT:      -7.5      0.000      0.000
REMARK  4 active torsions:
REMARK  status: ('A' for Active; 'I' for Inactive)
REMARK    1  A    between atoms: C3_3  and  C4_5 
REMARK    2  A    between atoms: C4_5  and  C5_6 
REMARK    3  A    between atoms: C8_9  and  C9_10 
REMARK    4  A    between atoms: C9_10  and  N1_11 
ROOT
HETATM    1  C5  UNL     1      26.407   0.788  53.928  1.00  0.00    -0.057 C 
HETATM    2  C6  UNL     1      25.984   2.046  53.917  1.00  0.00    -0.016 C 
HETATM    3  C7  UNL     1      24.923   2.908  53.374  1.00  0.00     0.083 C 
HETATM    4  C8  UNL     1      24.077   2.283  52.333  1.00  0.00     0.035 C 
HETATM    5  N2  UNL     1      23.556   1.106  52.252  1.00  0.00    -0.249 NA
HETATM    6  C15 UNL     1      23.489  -0.102  52.992  1.00  0.00     0.226 C 
HETATM    7  N3  UNL     1      24.550  -0.740  53.431  1.00  0.00    -0.279 NA
HETATM    8  C16 UNL     1      25.948  -0.466  53.325  1.00  0.00     0.184 C 
ENDROOT
BRANCH   4   9
HETATM    9  C9  UNL     1      23.755   3.117  51.171  1.00  0.00     0.177 C 
BRANCH   9  10
HETATM   10  N1  UNL     1      24.855   3.615  50.418  1.00  0.00    -0.379 N 
HETATM   11  C10 UNL     1      24.571   4.959  49.975  1.00  0.00     0.128 A 
HETATM   12  C11 UNL     1      25.418   5.707  49.279  1.00  0.00     0.131 A 
HETATM   13  F2  UNL     1      25.186   6.989  48.841  1.00  0.00    -0.205 F 
HETATM   14  C12 UNL     1      26.728   5.205  48.887  1.00  0.00     0.041 A 
HETATM   15  C13 UNL     1      26.978   3.954  49.287  1.00  0.00    -0.004 A 
HETATM   16  C14 UNL     1      26.115   3.026  50.061  1.00  0.00     0.150 A 
ENDBRANCH   9  10
ENDBRANCH   4   9
BRANCH   1  17
HETATM   17  C4  UNL     1      27.642   0.642  54.752  1.00  0.00     0.105 C 
BRANCH  17  18
HETATM   18  C3  UNL     1      28.873   1.045  54.068  1.00  0.00     0.093 C 
HETATM   19  C2  UNL     1      29.670   0.101  53.536  1.00  0.00     0.007 C 
HETATM   20  C1  UNL     1      29.679  -1.385  53.418  1.00  0.00     0.038 C 
HETATM   21  F1  UNL     1      29.062   2.389  54.060  1.00  0.00    -0.211 F 
ENDBRANCH  17  18
ENDBRANCH   1  17
TORSDOF 4
ENDMDL
MODEL 2
REMARK VINA RESULT:      -7.3      1.586      2.261
REMARK  4 active torsions:
REMARK  status: ('A' for Active; 'I' for Inactive)
REMARK    1  A    between atoms: C3_3  and  C4_5 
REMARK    2  A    between atoms: C4_5  and  C5_6 
REMARK    3  A    between atoms: C8_9  and  C9_10 
REMARK    4  A    between atoms: C9_10  and  N1_11 
ROOT
HETATM    1  C5  UNL     1      26.027   0.624  52.539  1.00  0.00    -0.057 C 
HETATM    2  C6  UNL     1      26.816   1.527  51.970  1.00  0.00    -0.016 C 
HETATM    3  C7  UNL     1      26.779   2.807  51.246  1.00  0.00     0.083 C 
HETATM    4  C8  UNL     1      25.435   3.240  50.804  1.00  0.00     0.035 C 
HETATM    5  N2  UNL     1      24.294   3.221  51.404  1.00  0.00    -0.249 NA
HETATM    6  C15 UNL     1      23.730   2.836  52.648  1.00  0.00     0.226 C 
HETATM    7  N3  UNL     1      23.883   1.643  53.172  1.00  0.00    -0.279 NA
HETATM    8  C16 UNL     1      24.581   0.478  52.723  1.00  0.00     0.184 C 
ENDROOT
BRANCH   4   9
HETATM    9  C9  UNL     1      25.345   3.792  49.449  1.00  0.00     0.177 C 
BRANCH   9  10
HETATM   10  N1  UNL     1      26.158   4.924  49.164  1.00  0.00    -0.379 N 
HETATM   11  C10 UNL     1      25.503   6.123  49.629  1.00  0.00     0.128 A 
HETATM   12  C11 UNL     1      26.026   7.339  49.539  1.00  0.00     0.131 A 
HETATM   13  F2  UNL     1      25.435   8.503  49.970  1.00  0.00    -0.205 F 
HETATM   14  C12 UNL     1      27.333   7.560  48.935  1.00  0.00     0.041 A 
HETATM   15  C13 UNL     1      27.928   6.448  48.493  1.00  0.00    -0.004 A 
HETATM   16  C14 UNL     1      27.443   5.044  48.535  1.00  0.00     0.150 A 
ENDBRANCH   9  10
ENDBRANCH   4   9
BRANCH   1  17
HETATM   17  C4  UNL     1      26.821  -0.498  53.119  1.00  0.00     0.105 C 
BRANCH  17  18
HETATM   18  C3  UNL     1      27.534  -0.156  54.352  1.00  0.00     0.093 C 
HETATM   19  C2  UNL     1      28.873  -0.276  54.393  1.00  0.00     0.007 C 
HETATM   20  C1  UNL     1      29.964  -0.693  53.467  1.00  0.00     0.038 C 
HETATM   21  F1  UNL     1      26.708   0.258  55.347  1.00  0.00    -0.211 F 
ENDBRANCH  17  18
ENDBRANCH   1  17
TORSDOF 4
ENDMDL
MODEL 3
REMARK VINA RESULT:      -7.1      1.570      1.909
REMARK  4 active torsions:
REMARK  status: ('A' for Active; 'I' for Inactive)
REMARK    1  A    between atoms: C3_3  and  C4_5 
REMARK    2  A    between atoms: C4_5  and  C5_6 
REMARK    3  A    between atoms: C8_9  and  C9_10 
REMARK    4  A    between atoms: C9_10  and  N1_11 
ROOT
HETATM    1  C5  UNL     1      24.731   0.341  53.376  1.00  0.00    -0.057 C 
HETATM    2  C6  UNL     1      25.108   1.601  53.550  1.00  0.00    -0.016 C 
HETATM    3  C7  UNL     1      24.676   2.986  53.304  1.00  0.00     0.083 C 
HETATM    4  C8  UNL     1      23.505   3.128  52.409  1.00  0.00     0.035 C 
HETATM    5  N2  UNL     1      22.399   2.469  52.342  1.00  0.00    -0.249 NA
HETATM    6  C15 UNL     1      21.742   1.386  52.982  1.00  0.00     0.226 C 
HETATM    7  N3  UNL     1      22.290   0.205  53.146  1.00  0.00    -0.279 NA
HETATM    8  C16 UNL     1      23.568  -0.322  52.781  1.00  0.00     0.184 C 
ENDROOT
BRANCH   4   9
HETATM    9  C9  UNL     1      23.582   4.195  51.407  1.00  0.00     0.177 C 
BRANCH   9  10
HETATM   10  N1  UNL     1      24.737   4.211  50.577  1.00  0.00    -0.379 N 
HETATM   11  C10 UNL     1      25.011   5.564  50.153  1.00  0.00     0.128 A 
HETATM   12  C11 UNL     1      26.046   5.910  49.398  1.00  0.00     0.131 A 
HETATM   13  F2  UNL     1      26.341   7.185  48.975  1.00  0.00    -0.205 F 
HETATM   14  C12 UNL     1      27.000   4.922  48.917  1.00  0.00     0.041 A 
HETATM   15  C13 UNL     1      26.732   3.669  49.301  1.00  0.00    -0.004 A 
HETATM   16  C14 UNL     1      25.613   3.162  50.135  1.00  0.00     0.150 A 
ENDBRANCH   9  10
ENDBRANCH   4   9
BRANCH   1  17
HETATM   17  C4  UNL     1      25.749  -0.606  53.918  1.00  0.00     0.105 C 
BRANCH  17  18
HETATM   18  C3  UNL     1      26.938  -0.759  53.077  1.00  0.00     0.093 C 
HETATM   19  C2  UNL     1      28.139  -0.402  53.565  1.00  0.00     0.007 C 
HETATM   20  C1  UNL     1      28.683   0.158  54.836  1.00  0.00     0.038 C 
HETATM   21  F1  UNL     1      26.660  -1.266  51.849  1.00  0.00    -0.211 F 
ENDBRANCH  17  18
ENDBRANCH   1  17
TORSDOF 4
ENDMDL
MODEL 4
REMARK VINA RESULT:      -6.9      4.280      6.266
REMARK  4 active torsions:
REMARK  status: ('A' for Active; 'I' for Inactive)
REMARK    1  A    between atoms: C3_3  and  C4_5 
REMARK    2  A    between atoms: C4_5  and  C5_6 
REMARK    3  A    between atoms: C8_9  and  C9_10 
REMARK    4  A    between atoms: C9_10  and  N1_11 
ROOT
HETATM    1  C5  UNL     1      25.111   0.285  53.529  1.00  0.00    -0.057 C 
HETATM    2  C6  UNL     1      24.064  -0.516  53.678  1.00  0.00    -0.016 C 
HETATM    3  C7  UNL     1      22.632  -0.624  53.359  1.00  0.00     0.083 C 
HETATM    4  C8  UNL     1      22.010   0.612  52.834  1.00  0.00     0.035 C 
HETATM    5  N2  UNL     1      22.429   1.477  51.973  1.00  0.00    -0.249 NA
HETATM    6  C15 UNL     1      23.553   1.724  51.145  1.00  0.00     0.226 C 
HETATM    7  N3  UNL     1      24.786   1.761  51.593  1.00  0.00    -0.279 NA
HETATM    8  C16 UNL     1      25.340   1.588  52.900  1.00  0.00     0.184 C 
ENDROOT
BRANCH   4   9
HETATM    9  C9  UNL     1      20.686   0.949  53.364  1.00  0.00     0.177 C 
BRANCH   9  10
HETATM   10  N1  UNL     1      19.564   0.460  52.639  1.00  0.00    -0.379 N 
HETATM   11  C10 UNL     1      18.996  -0.674  53.330  1.00  0.00     0.128 A 
HETATM   12  C11 UNL     1      17.917  -1.329  52.921  1.00  0.00     0.131 A 
HETATM   13  F2  UNL     1      17.345  -2.410  53.550  1.00  0.00    -0.205 F 
HETATM   14  C12 UNL     1      17.215  -0.950  51.703  1.00  0.00     0.041 A 
HETATM   15  C13 UNL     1      17.755   0.091  51.060  1.00  0.00    -0.004 A 
HETATM   16  C14 UNL     1      18.952   0.895  51.415  1.00  0.00     0.150 A 
ENDBRANCH   9  10
ENDBRANCH   4   9
BRANCH   1  17
HETATM   17  C4  UNL     1      26.331  -0.299  54.160  1.00  0.00     0.105 C 
BRANCH  17  18
HETATM   18  C3  UNL     1      27.337  -0.768  53.204  1.00  0.00     0.093 C 
HETATM   19  C2  UNL     1      28.578  -0.251  53.248  1.00  0.00     0.007 C 
HETATM   20  C1  UNL     1      29.316   0.758  54.061  1.00  0.00     0.038 C 
HETATM   21  F1  UNL     1      26.863  -1.712  52.351  1.00  0.00    -0.211 F 
ENDBRANCH  17  18
ENDBRANCH   1  17
TORSDOF 4
ENDMDL
MODEL 5
REMARK VINA RESULT:      -6.9      2.791      5.923
REMARK  4 active torsions:
REMARK  status: ('A' for Active; 'I' for Inactive)
REMARK    1  A    between atoms: C3_3  and  C4_5 
REMARK    2  A    between atoms: C4_5  and  C5_6 
REMARK    3  A    between atoms: C8_9  and  C9_10 
REMARK    4  A    between atoms: C9_10  and  N1_11 
ROOT
HETATM    1  C5  UNL     1      22.474   1.128  51.492  1.00  0.00    -0.057 C 
HETATM    2  C6  UNL     1      23.341   1.475  52.435  1.00  0.00    -0.016 C 
HETATM    3  C7  UNL     1      24.566   2.261  52.651  1.00  0.00     0.083 C 
HETATM    4  C8  UNL     1      25.235   2.733  51.418  1.00  0.00     0.035 C 
HETATM    5  N2  UNL     1      24.760   3.240  50.332  1.00  0.00    -0.249 NA
HETATM    6  C15 UNL     1      23.513   3.596  49.757  1.00  0.00     0.226 C 
HETATM    7  N3  UNL     1      22.499   2.768  49.664  1.00  0.00    -0.279 NA
HETATM    8  C16 UNL     1      22.331   1.405  50.061  1.00  0.00     0.184 C 
ENDROOT
BRANCH   4   9
HETATM    9  C9  UNL     1      26.696   2.616  51.388  1.00  0.00     0.177 C 
BRANCH   9  10
HETATM   10  N1  UNL     1      27.277   1.641  52.246  1.00  0.00    -0.379 N 
HETATM   11  C10 UNL     1      28.223   2.277  53.132  1.00  0.00     0.128 A 
HETATM   12  C11 UNL     1      28.904   1.638  54.075  1.00  0.00     0.131 A 
HETATM   13  F2  UNL     1      29.811   2.206  54.938  1.00  0.00    -0.205 F 
HETATM   14  C12 UNL     1      28.753   0.204  54.280  1.00  0.00     0.041 A 
HETATM   15  C13 UNL     1      27.887  -0.381  53.447  1.00  0.00    -0.004 A 
HETATM   16  C14 UNL     1      27.076   0.224  52.360  1.00  0.00     0.150 A 
ENDBRANCH   9  10
ENDBRANCH   4   9
BRANCH   1  17
HETATM   17  C4  UNL     1      21.404   0.246  52.042  1.00  0.00     0.105 C 
BRANCH  17  18
HETATM   18  C3  UNL     1      21.861  -0.679  53.082  1.00  0.00     0.093 C 
HETATM   19  C2  UNL     1      21.468  -0.486  54.354  1.00  0.00     0.007 C 
HETATM   20  C1  UNL     1      20.618   0.484  55.102  1.00  0.00     0.038 C 
HETATM   21  F1  UNL     1      22.666  -1.662  52.604  1.00  0.00    -0.211 F 
ENDBRANCH  17  18
ENDBRANCH   1  17
TORSDOF 4
ENDMDL
MODEL 6
REMARK VINA RESULT:      -6.9      1.333      2.065
REMARK  4 active torsions:
REMARK  status: ('A' for Active; 'I' for Inactive)
REMARK    1  A    between atoms: C3_3  and  C4_5 
REMARK    2  A    between atoms: C4_5  and  C5_6 
REMARK    3  A    between atoms: C8_9  and  C9_10 
REMARK    4  A    between atoms: C9_10  and  N1_11 
ROOT
HETATM    1  C5  UNL     1      26.485   0.456  54.164  1.00  0.00    -0.057 C 
HETATM    2  C6  UNL     1      26.232   1.733  53.909  1.00  0.00    -0.016 C 
HETATM    3  C7  UNL     1      25.275   2.610  53.216  1.00  0.00     0.083 C 
HETATM    4  C8  UNL     1      24.319   1.916  52.324  1.00  0.00     0.035 C 
HETATM    5  N2  UNL     1      23.646   0.827  52.480  1.00  0.00    -0.249 NA
HETATM    6  C15 UNL     1      23.446  -0.195  53.443  1.00  0.00     0.226 C 
HETATM    7  N3  UNL     1      24.427  -0.873  53.991  1.00  0.00    -0.279 NA
HETATM    8  C16 UNL     1      25.845  -0.817  53.822  1.00  0.00     0.184 C 
ENDROOT
BRANCH   4   9
HETATM    9  C9  UNL     1      24.071   2.546  51.024  1.00  0.00     0.177 C 
BRANCH   9  10
HETATM   10  N1  UNL     1      23.363   3.779  51.036  1.00  0.00    -0.379 N 
HETATM   11  C10 UNL     1      23.929   4.674  50.055  1.00  0.00     0.128 A 
HETATM   12  C11 UNL     1      23.464   5.891  49.803  1.00  0.00     0.131 A 
HETATM   13  F2  UNL     1      23.974   6.771  48.878  1.00  0.00    -0.205 F 
HETATM   14  C12 UNL     1      22.323   6.432  50.527  1.00  0.00     0.041 A 
HETATM   15  C13 UNL     1      21.812   5.605  51.444  1.00  0.00    -0.004 A 
HETATM   16  C14 UNL     1      22.246   4.233  51.816  1.00  0.00     0.150 A 
ENDBRANCH   9  10
ENDBRANCH   4   9
BRANCH   1  17
HETATM   17  C4  UNL     1      27.718   0.305  54.991  1.00  0.00     0.105 C 
BRANCH  17  18
HETATM   18  C3  UNL     1      28.960   0.627  54.285  1.00  0.00     0.093 C 
HETATM   19  C2  UNL     1      29.600  -0.340  53.605  1.00  0.00     0.007 C 
HETATM   20  C1  UNL     1      29.408  -1.791  53.322  1.00  0.00     0.038 C 
HETATM   21  F1  UNL     1      29.324   1.929  54.415  1.00  0.00    -0.211 F 
ENDBRANCH  17  18
ENDBRANCH   1  17
TORSDOF 4
ENDMDL
MODEL 7
REMARK VINA RESULT:      -6.8      3.194      3.977
REMARK  4 active torsions:
REMARK  status: ('A' for Active; 'I' for Inactive)
REMARK    1  A    between atoms: C3_3  and  C4_5 
REMARK    2  A    between atoms: C4_5  and  C5_6 
REMARK    3  A    between atoms: C8_9  and  C9_10 
REMARK    4  A    between atoms: C9_10  and  N1_11 
ROOT
HETATM    1  C5  UNL     1      23.033   0.926  52.536  1.00  0.00    -0.057 C 
HETATM    2  C6  UNL     1      23.893   1.836  52.976  1.00  0.00    -0.016 C 
HETATM    3  C7  UNL     1      24.119   3.288  53.031  1.00  0.00     0.083 C 
HETATM    4  C8  UNL     1      23.211   4.097  52.187  1.00  0.00     0.035 C 
HETATM    5  N2  UNL     1      21.941   4.015  51.980  1.00  0.00    -0.249 NA
HETATM    6  C15 UNL     1      20.828   3.228  52.374  1.00  0.00     0.226 C 
HETATM    7  N3  UNL     1      20.800   1.919  52.281  1.00  0.00    -0.279 NA
HETATM    8  C16 UNL     1      21.759   0.968  51.813  1.00  0.00     0.184 C 
ENDROOT
BRANCH   4   9
HETATM    9  C9  UNL     1      23.829   5.193  51.436  1.00  0.00     0.177 C 
BRANCH   9  10
HETATM   10  N1  UNL     1      24.923   4.853  50.592  1.00  0.00    -0.379 N 
HETATM   11  C10 UNL     1      25.443   6.046  49.966  1.00  0.00     0.128 A 
HETATM   12  C11 UNL     1      26.488   6.061  49.148  1.00  0.00     0.131 A 
HETATM   13  F2  UNL     1      27.013   7.174  48.535  1.00  0.00    -0.205 F 
HETATM   14  C12 UNL     1      27.199   4.838  48.802  1.00  0.00     0.041 A 
HETATM   15  C13 UNL     1      26.703   3.735  49.373  1.00  0.00    -0.004 A 
HETATM   16  C14 UNL     1      25.547   3.594  50.294  1.00  0.00     0.150 A 
ENDBRANCH   9  10
ENDBRANCH   4   9
BRANCH   1  17
HETATM   17  C4  UNL     1      23.492  -0.455  52.864  1.00  0.00     0.105 C 
BRANCH  17  18
HETATM   18  C3  UNL     1      23.430  -0.787  54.289  1.00  0.00     0.093 C 
HETATM   19  C2  UNL     1      22.273  -1.230  54.812  1.00  0.00     0.007 C 
HETATM   20  C1  UNL     1      20.892  -1.517  54.329  1.00  0.00     0.038 C 
HETATM   21  F1  UNL     1      24.609  -0.593  54.933  1.00  0.00    -0.211 F 
ENDBRANCH  17  18
ENDBRANCH   1  17
TORSDOF 4
ENDMDL
MODEL 8
REMARK VINA RESULT:      -6.8      2.563      3.720
REMARK  4 active torsions:
REMARK  status: ('A' for Active; 'I' for Inactive)
REMARK    1  A    between atoms: C3_3  and  C4_5 
REMARK    2  A    between atoms: C4_5  and  C5_6 
REMARK    3  A    between atoms: C8_9  and  C9_10 
REMARK    4  A    between atoms: C9_10  and  N1_11 
ROOT
HETATM    1  C5  UNL     1      26.125   1.136  52.500  1.00  0.00    -0.057 C 
HETATM    2  C6  UNL     1      24.802   1.040  52.464  1.00  0.00    -0.016 C 
HETATM    3  C7  UNL     1      23.594   1.789  52.082  1.00  0.00     0.083 C 
HETATM    4  C8  UNL     1      23.815   3.220  51.776  1.00  0.00     0.035 C 
HETATM    5  N2  UNL     1      24.741   3.815  51.105  1.00  0.00    -0.249 NA
HETATM    6  C15 UNL     1      25.917   3.506  50.374  1.00  0.00     0.226 C 
HETATM    7  N3  UNL     1      26.904   2.792  50.862  1.00  0.00    -0.279 NA
HETATM    8  C16 UNL     1      27.101   2.165  52.131  1.00  0.00     0.184 C 
ENDROOT
BRANCH   4   9
HETATM    9  C9  UNL     1      22.826   4.158  52.315  1.00  0.00     0.177 C 
BRANCH   9  10
HETATM   10  N1  UNL     1      21.844   4.645  51.408  1.00  0.00    -0.379 N 
HETATM   11  C10 UNL     1      21.977   6.076  51.270  1.00  0.00     0.128 A 
HETATM   12  C11 UNL     1      21.226   6.817  50.466  1.00  0.00     0.131 A 
HETATM   13  F2  UNL     1      21.321   8.180  50.307  1.00  0.00    -0.205 F 
HETATM   14  C12 UNL     1      20.174   6.227  49.651  1.00  0.00     0.041 A 
HETATM   15  C13 UNL     1      20.047   4.904  49.794  1.00  0.00    -0.004 A 
HETATM   16  C14 UNL     1      20.819   3.975  50.658  1.00  0.00     0.150 A 
ENDBRANCH   9  10
ENDBRANCH   4   9
BRANCH   1  17
HETATM   17  C4  UNL     1      26.741  -0.106  53.051  1.00  0.00     0.105 C 
BRANCH  17  18
HETATM   18  C3  UNL     1      27.382   0.069  54.357  1.00  0.00     0.093 C 
HETATM   19  C2  UNL     1      28.701  -0.161  54.479  1.00  0.00     0.007 C 
HETATM   20  C1  UNL     1      29.826  -0.582  53.595  1.00  0.00     0.038 C 
HETATM   21  F1  UNL     1      26.516   0.460  55.327  1.00  0.00    -0.211 F 
ENDBRANCH  17  18
ENDBRANCH   1  17
TORSDOF 4
ENDMDL
MODEL 9
REMARK VINA RESULT:      -6.7      3.097      5.970
REMARK  4 active torsions:
REMARK  status: ('A' for Active; 'I' for Inactive)
REMARK    1  A    between atoms: C3_3  and  C4_5 
REMARK    2  A    between atoms: C4_5  and  C5_6 
REMARK    3  A    between atoms: C8_9  and  C9_10 
REMARK    4  A    between atoms: C9_10  and  N1_11 
ROOT
HETATM    1  C5  UNL     1      22.407   1.131  51.465  1.00  0.00    -0.057 C 
HETATM    2  C6  UNL     1      23.269   1.531  52.391  1.00  0.00    -0.016 C 
HETATM    3  C7  UNL     1      24.474   2.355  52.575  1.00  0.00     0.083 C 
HETATM    4  C8  UNL     1      25.126   2.801  51.323  1.00  0.00     0.035 C 
HETATM    5  N2  UNL     1      24.634   3.260  50.223  1.00  0.00    -0.249 NA
HETATM    6  C15 UNL     1      23.376   3.565  49.643  1.00  0.00     0.226 C 
HETATM    7  N3  UNL     1      22.382   2.710  49.583  1.00  0.00    -0.279 NA
HETATM    8  C16 UNL     1      22.250   1.357  50.026  1.00  0.00     0.184 C 
ENDROOT
BRANCH   4   9
HETATM    9  C9  UNL     1      26.589   2.720  51.289  1.00  0.00     0.177 C 
BRANCH   9  10
HETATM   10  N1  UNL     1      27.200   1.806  52.192  1.00  0.00    -0.379 N 
HETATM   11  C10 UNL     1      26.784   0.460  51.876  1.00  0.00     0.128 A 
HETATM   12  C11 UNL     1      27.211  -0.619  52.518  1.00  0.00     0.131 A 
HETATM   13  F2  UNL     1      26.840  -1.916  52.247  1.00  0.00    -0.205 F 
HETATM   14  C12 UNL     1      28.146  -0.522  53.630  1.00  0.00     0.041 A 
HETATM   15  C13 UNL     1      28.516   0.728  53.928  1.00  0.00    -0.004 A 
HETATM   16  C14 UNL     1      28.106   2.005  53.288  1.00  0.00     0.150 A 
ENDBRANCH   9  10
ENDBRANCH   4   9
BRANCH   1  17
HETATM   17  C4  UNL     1      21.361   0.241  52.050  1.00  0.00     0.105 C 
BRANCH  17  18
HETATM   18  C3  UNL     1      21.854  -0.658  53.096  1.00  0.00     0.093 C 
HETATM   19  C2  UNL     1      21.480  -0.451  54.371  1.00  0.00     0.007 C 
HETATM   20  C1  UNL     1      20.628   0.517  55.119  1.00  0.00     0.038 C 
HETATM   21  F1  UNL     1      22.666  -1.635  52.619  1.00  0.00    -0.211 F 
ENDBRANCH  17  18
ENDBRANCH   1  17
TORSDOF 4
ENDMDL
