MODEL 1
REMARK VINA RESULT:      -8.5      0.000      0.000
REMARK  3 active torsions:
REMARK  status: ('A' for Active; 'I' for Inactive)
REMARK    1  A    between atoms: O1_1  and  C1_2 
REMARK    2  A    between atoms: C3_5  and  N1_6 
REMARK    3  A    between atoms: C4_8  and  C5_9 
ROOT
HETATM    1  N1  UNL     1      25.062   0.796  52.664  1.00  0.00    -0.228 N 
HETATM    2  N2  UNL     1      24.703   2.010  52.069  1.00  0.00    -0.173 NA
HETATM    3  C4  UNL     1      25.649   2.326  51.221  1.00  0.00     0.068 C 
HETATM    4  C11 UNL     1      26.734   1.302  51.203  1.00  0.00     0.103 C 
HETATM    5  C12 UNL     1      26.432   0.494  52.444  1.00  0.00     0.099 A 
HETATM    6  C13 UNL     1      27.321   0.923  53.552  1.00  0.00     0.011 A 
HETATM    7  C14 UNL     1      28.053  -0.101  53.976  1.00  0.00    -0.001 A 
HETATM    8  C15 UNL     1      27.705  -1.285  53.184  1.00  0.00    -0.001 A 
HETATM    9  C16 UNL     1      26.766  -0.936  52.300  1.00  0.00     0.011 A 
ENDROOT
BRANCH   1  10
HETATM   10  C3  UNL     1      24.040   0.075  53.371  1.00  0.00     0.193 A 
HETATM   11  S1  UNL     1      22.310   0.215  52.685  1.00  0.00    -0.058 SA
HETATM   12  C2  UNL     1      21.591  -0.839  53.943  1.00  0.00     0.111 A 
HETATM   13  C1  UNL     1      22.786  -1.166  54.738  1.00  0.00     0.171 A 
HETATM   14  N3  UNL     1      23.925  -0.640  54.331  1.00  0.00    -0.198 NA
BRANCH  13  15
HETATM   15  O1  UNL     1      22.910  -1.973  55.892  1.00  0.00    -0.344 OA
HETATM   16  H1  UNL     1      22.051  -2.112  56.439  1.00  0.00     0.219 HD
ENDBRANCH  13  15
ENDBRANCH   1  10
BRANCH   3  17
HETATM   17  C5  UNL     1      25.603   3.557  50.406  1.00  0.00    -0.010 A 
HETATM   18  C6  UNL     1      26.727   3.877  49.667  1.00  0.00     0.015 A 
HETATM   19  C7  UNL     1      26.702   5.038  48.892  1.00  0.00     0.024 A 
HETATM   20  C8  UNL     1      25.556   5.833  48.883  1.00  0.00     0.034 A 
HETATM   21 CL1  UNL     1      25.466   7.309  47.924  1.00  0.00    -0.084 Cl
HETATM   22  C9  UNL     1      24.452   5.461  49.649  1.00  0.00     0.024 A 
HETATM   23  C10 UNL     1      24.454   4.322  50.421  1.00  0.00     0.015 A 
ENDBRANCH   3  17
TORSDOF 3
ENDMDL
MODEL 2
REMARK VINA RESULT:      -8.3      3.928      6.502
REMARK  3 active torsions:
REMARK  status: ('A' for Active; 'I' for Inactive)
REMARK    1  A    between atoms: O1_1  and  C1_2 
REMARK    2  A    between atoms: C3_5  and  N1_6 
REMARK    3  A    between atoms: C4_8  and  C5_9 
ROOT
HETATM    1  N1  UNL     1      25.123   1.746  51.825  1.00  0.00    -0.228 N 
HETATM    2  N2  UNL     1      23.786   1.359  51.693  1.00  0.00    -0.173 NA
HETATM    3  C4  UNL     1      23.470   0.670  52.762  1.00  0.00     0.068 C 
HETATM    4  C11 UNL     1      24.623   0.555  53.700  1.00  0.00     0.103 C 
HETATM    5  C12 UNL     1      25.782   1.004  52.839  1.00  0.00     0.099 A 
HETATM    6  C13 UNL     1      26.517  -0.180  52.330  1.00  0.00     0.011 A 
HETATM    7  C14 UNL     1      27.782  -0.146  52.734  1.00  0.00    -0.001 A 
HETATM    8  C15 UNL     1      27.981   1.062  53.542  1.00  0.00    -0.001 A 
HETATM    9  C16 UNL     1      26.822   1.724  53.599  1.00  0.00     0.011 A 
ENDROOT
BRANCH   1  10
HETATM   10  C3  UNL     1      25.602   2.785  50.956  1.00  0.00     0.193 A 
HETATM   11  S1  UNL     1      24.298   3.831  50.126  1.00  0.00    -0.058 SA
HETATM   12  C2  UNL     1      25.488   4.849  49.255  1.00  0.00     0.111 A 
HETATM   13  C1  UNL     1      26.749   4.247  49.719  1.00  0.00     0.171 A 
HETATM   14  N3  UNL     1      26.644   3.235  50.558  1.00  0.00    -0.198 NA
BRANCH  13  15
HETATM   15  O1  UNL     1      28.083   4.591  49.403  1.00  0.00    -0.344 OA
HETATM   16  H1  UNL     1      28.744   4.604  50.190  1.00  0.00     0.219 HD
ENDBRANCH  13  15
ENDBRANCH   1  10
BRANCH   3  17
HETATM   17  C5  UNL     1      22.123   0.098  52.965  1.00  0.00    -0.010 A 
HETATM   18  C6  UNL     1      21.101   0.572  52.163  1.00  0.00     0.015 A 
HETATM   19  C7  UNL     1      19.821   0.042  52.341  1.00  0.00     0.024 A 
HETATM   20  C8  UNL     1      19.612  -0.938  53.311  1.00  0.00     0.034 A 
HETATM   21 CL1  UNL     1      18.019  -1.642  53.581  1.00  0.00    -0.084 Cl
HETATM   22  C9  UNL     1      20.681  -1.377  54.090  1.00  0.00     0.024 A 
HETATM   23  C10 UNL     1      21.950  -0.870  53.933  1.00  0.00     0.015 A 
ENDBRANCH   3  17
TORSDOF 3
ENDMDL
MODEL 3
REMARK VINA RESULT:      -8.1      2.285      3.919
REMARK  3 active torsions:
REMARK  status: ('A' for Active; 'I' for Inactive)
REMARK    1  A    between atoms: O1_1  and  C1_2 
REMARK    2  A    between atoms: C3_5  and  N1_6 
REMARK    3  A    between atoms: C4_8  and  C5_9 
ROOT
HETATM    1  N1  UNL     1      25.827   1.814  51.571  1.00  0.00    -0.228 N 
HETATM    2  N2  UNL     1      26.508   2.625  50.658  1.00  0.00    -0.173 NA
HETATM    3  C4  UNL     1      25.795   3.712  50.492  1.00  0.00     0.068 C 
HETATM    4  C11 UNL     1      24.553   3.683  51.317  1.00  0.00     0.103 C 
HETATM    5  C12 UNL     1      24.482   2.233  51.738  1.00  0.00     0.099 A 
HETATM    6  C13 UNL     1      23.519   1.505  50.875  1.00  0.00     0.011 A 
HETATM    7  C14 UNL     1      22.543   0.985  51.611  1.00  0.00    -0.001 A 
HETATM    8  C15 UNL     1      22.785   1.328  53.016  1.00  0.00    -0.001 A 
HETATM    9  C16 UNL     1      23.907   2.049  53.085  1.00  0.00     0.011 A 
ENDROOT
BRANCH   1  10
HETATM   10  C3  UNL     1      26.559   0.732  52.171  1.00  0.00     0.193 A 
HETATM   11  S1  UNL     1      27.970   1.216  53.292  1.00  0.00    -0.058 SA
HETATM   12  C2  UNL     1      28.416  -0.479  53.671  1.00  0.00     0.111 A 
HETATM   13  C1  UNL     1      27.411  -1.206  52.878  1.00  0.00     0.171 A 
HETATM   14  N3  UNL     1      26.561  -0.470  52.189  1.00  0.00    -0.198 NA
BRANCH  13  15
HETATM   15  O1  UNL     1      27.209  -2.597  52.736  1.00  0.00    -0.344 OA
HETATM   16  H1  UNL     1      26.718  -3.063  53.509  1.00  0.00     0.219 HD
ENDBRANCH  13  15
ENDBRANCH   1  10
BRANCH   3  17
HETATM   17  C5  UNL     1      26.213   4.803  49.588  1.00  0.00    -0.010 A 
HETATM   18  C6  UNL     1      25.308   5.821  49.355  1.00  0.00     0.015 A 
HETATM   19  C7  UNL     1      25.686   6.861  48.502  1.00  0.00     0.024 A 
HETATM   20  C8  UNL     1      26.951   6.842  47.916  1.00  0.00     0.034 A 
HETATM   21 CL1  UNL     1      27.483   8.126  46.831  1.00  0.00    -0.084 Cl
HETATM   22  C9  UNL     1      27.823   5.788  48.187  1.00  0.00     0.024 A 
HETATM   23  C10 UNL     1      27.472   4.754  49.024  1.00  0.00     0.015 A 
ENDBRANCH   3  17
TORSDOF 3
ENDMDL
MODEL 4
REMARK VINA RESULT:      -8.0      2.384      3.704
REMARK  3 active torsions:
REMARK  status: ('A' for Active; 'I' for Inactive)
REMARK    1  A    between atoms: O1_1  and  C1_2 
REMARK    2  A    between atoms: C3_5  and  N1_6 
REMARK    3  A    between atoms: C4_8  and  C5_9 
ROOT
HETATM    1  N1  UNL     1      26.360   0.534  52.560  1.00  0.00    -0.228 N 
HETATM    2  N2  UNL     1      26.629   1.468  51.555  1.00  0.00    -0.173 NA
HETATM    3  C4  UNL     1      25.708   2.397  51.626  1.00  0.00     0.068 C 
HETATM    4  C11 UNL     1      24.737   2.123  52.724  1.00  0.00     0.103 C 
HETATM    5  C12 UNL     1      25.044   0.684  53.072  1.00  0.00     0.099 A 
HETATM    6  C13 UNL     1      24.050  -0.211  52.431  1.00  0.00     0.011 A 
HETATM    7  C14 UNL     1      23.402  -0.915  53.352  1.00  0.00    -0.001 A 
HETATM    8  C15 UNL     1      23.918  -0.540  54.673  1.00  0.00    -0.001 A 
HETATM    9  C16 UNL     1      24.867   0.384  54.506  1.00  0.00     0.011 A 
ENDROOT
BRANCH   1  10
HETATM   10  C3  UNL     1      27.406  -0.389  52.906  1.00  0.00     0.193 A 
HETATM   11  S1  UNL     1      29.025   0.366  53.445  1.00  0.00    -0.058 SA
HETATM   12  C2  UNL     1      29.822  -1.218  53.704  1.00  0.00     0.111 A 
HETATM   13  C1  UNL     1      28.729  -2.133  53.339  1.00  0.00     0.171 A 
HETATM   14  N3  UNL     1      27.594  -1.575  52.965  1.00  0.00    -0.198 NA
BRANCH  13  15
HETATM   15  O1  UNL     1      28.701  -3.547  53.327  1.00  0.00    -0.344 OA
HETATM   16  H1  UNL     1      28.661  -3.989  52.400  1.00  0.00     0.219 HD
ENDBRANCH  13  15
ENDBRANCH   1  10
BRANCH   3  17
HETATM   17  C5  UNL     1      25.677   3.553  50.707  1.00  0.00    -0.010 A 
HETATM   18  C6  UNL     1      26.732   3.695  49.825  1.00  0.00     0.015 A 
HETATM   19  C7  UNL     1      26.721   4.783  48.949  1.00  0.00     0.024 A 
HETATM   20  C8  UNL     1      25.657   5.684  48.988  1.00  0.00     0.034 A 
HETATM   21 CL1  UNL     1      25.589   7.075  47.907  1.00  0.00    -0.084 Cl
HETATM   22  C9  UNL     1      24.621   5.491  49.899  1.00  0.00     0.024 A 
HETATM   23  C10 UNL     1      24.611   4.427  50.772  1.00  0.00     0.015 A 
ENDBRANCH   3  17
TORSDOF 3
ENDMDL
MODEL 5
REMARK VINA RESULT:      -7.9      3.827      6.548
REMARK  3 active torsions:
REMARK  status: ('A' for Active; 'I' for Inactive)
REMARK    1  A    between atoms: O1_1  and  C1_2 
REMARK    2  A    between atoms: C3_5  and  N1_6 
REMARK    3  A    between atoms: C4_8  and  C5_9 
ROOT
HETATM    1  N1  UNL     1      24.853   1.796  52.082  1.00  0.00    -0.228 N 
HETATM    2  N2  UNL     1      23.845   1.078  52.731  1.00  0.00    -0.173 NA
HETATM    3  C4  UNL     1      22.780   1.122  51.969  1.00  0.00     0.068 C 
HETATM    4  C11 UNL     1      23.030   1.901  50.723  1.00  0.00     0.103 C 
HETATM    5  C12 UNL     1      24.329   2.606  51.041  1.00  0.00     0.099 A 
HETATM    6  C13 UNL     1      24.055   4.004  51.454  1.00  0.00     0.011 A 
HETATM    7  C14 UNL     1      24.666   4.854  50.637  1.00  0.00    -0.001 A 
HETATM    8  C15 UNL     1      25.392   4.085  49.621  1.00  0.00    -0.001 A 
HETATM    9  C16 UNL     1      25.194   2.786  49.859  1.00  0.00     0.011 A 
ENDROOT
BRANCH   1  10
HETATM   10  C3  UNL     1      26.202   1.613  52.545  1.00  0.00     0.193 A 
HETATM   11  S1  UNL     1      26.676  -0.125  53.031  1.00  0.00    -0.058 SA
HETATM   12  C2  UNL     1      28.353   0.322  53.478  1.00  0.00     0.111 A 
HETATM   13  C1  UNL     1      28.332   1.766  53.192  1.00  0.00     0.171 A 
HETATM   14  N3  UNL     1      27.197   2.259  52.736  1.00  0.00    -0.198 NA
BRANCH  13  15
HETATM   15  O1  UNL     1      29.358   2.728  53.331  1.00  0.00    -0.344 OA
HETATM   16  H1  UNL     1      30.190   2.427  53.856  1.00  0.00     0.219 HD
ENDBRANCH  13  15
ENDBRANCH   1  10
BRANCH   3  17
HETATM   17  C5  UNL     1      21.511   0.465  52.344  1.00  0.00    -0.010 A 
HETATM   18  C6  UNL     1      21.521  -0.355  53.458  1.00  0.00     0.015 A 
HETATM   19  C7  UNL     1      20.331  -0.986  53.827  1.00  0.00     0.024 A 
HETATM   20  C8  UNL     1      19.178  -0.772  53.071  1.00  0.00     0.034 A 
HETATM   21 CL1  UNL     1      17.648  -1.541  53.489  1.00  0.00    -0.084 Cl
HETATM   22  C9  UNL     1      19.227   0.065  51.958  1.00  0.00     0.024 A 
HETATM   23  C10 UNL     1      20.389   0.697  51.575  1.00  0.00     0.015 A 
ENDBRANCH   3  17
TORSDOF 3
ENDMDL
MODEL 6
REMARK VINA RESULT:      -7.7      4.169      6.811
REMARK  3 active torsions:
REMARK  status: ('A' for Active; 'I' for Inactive)
REMARK    1  A    between atoms: O1_1  and  C1_2 
REMARK    2  A    between atoms: C3_5  and  N1_6 
REMARK    3  A    between atoms: C4_8  and  C5_9 
ROOT
HETATM    1  N1  UNL     1      23.999   2.664  52.199  1.00  0.00    -0.228 N 
HETATM    2  N2  UNL     1      22.710   2.130  52.099  1.00  0.00    -0.173 NA
HETATM    3  C4  UNL     1      22.647   1.105  52.913  1.00  0.00     0.068 C 
HETATM    4  C11 UNL     1      23.939   0.892  53.627  1.00  0.00     0.103 C 
HETATM    5  C12 UNL     1      24.889   1.760  52.835  1.00  0.00     0.099 A 
HETATM    6  C13 UNL     1      25.666   0.923  51.888  1.00  0.00     0.011 A 
HETATM    7  C14 UNL     1      26.966   1.031  52.137  1.00  0.00    -0.001 A 
HETATM    8  C15 UNL     1      27.150   1.949  53.266  1.00  0.00    -0.001 A 
HETATM    9  C16 UNL     1      25.947   2.368  53.666  1.00  0.00     0.011 A 
ENDROOT
BRANCH   1  10
HETATM   10  C3  UNL     1      24.214   3.982  51.668  1.00  0.00     0.193 A 
HETATM   11  S1  UNL     1      25.264   4.089  50.130  1.00  0.00    -0.058 SA
HETATM   12  C2  UNL     1      25.139   5.873  50.015  1.00  0.00     0.111 A 
HETATM   13  C1  UNL     1      24.296   6.160  51.187  1.00  0.00     0.171 A 
HETATM   14  N3  UNL     1      23.917   5.122  51.908  1.00  0.00    -0.198 NA
BRANCH  13  15
HETATM   15  O1  UNL     1      23.817   7.398  51.673  1.00  0.00    -0.344 OA
HETATM   16  H1  UNL     1      23.128   7.348  52.434  1.00  0.00     0.219 HD
ENDBRANCH  13  15
ENDBRANCH   1  10
BRANCH   3  17
HETATM   17  C5  UNL     1      21.423   0.292  53.068  1.00  0.00    -0.010 A 
HETATM   18  C6  UNL     1      21.474  -0.778  53.942  1.00  0.00     0.015 A 
HETATM   19  C7  UNL     1      20.327  -1.558  54.101  1.00  0.00     0.024 A 
HETATM   20  C8  UNL     1      19.175  -1.239  53.382  1.00  0.00     0.034 A 
HETATM   21 CL1  UNL     1      17.698  -2.188  53.541  1.00  0.00    -0.084 Cl
HETATM   22  C9  UNL     1      19.182  -0.149  52.514  1.00  0.00     0.024 A 
HETATM   23  C10 UNL     1      20.301   0.634  52.341  1.00  0.00     0.015 A 
ENDBRANCH   3  17
TORSDOF 3
ENDMDL
MODEL 7
REMARK VINA RESULT:      -7.7      6.693      9.376
REMARK  3 active torsions:
REMARK  status: ('A' for Active; 'I' for Inactive)
REMARK    1  A    between atoms: O1_1  and  C1_2 
REMARK    2  A    between atoms: C3_5  and  N1_6 
REMARK    3  A    between atoms: C4_8  and  C5_9 
ROOT
HETATM    1  N1  UNL     1      31.018   5.652  47.863  1.00  0.00    -0.228 N 
HETATM    2  N2  UNL     1      29.844   5.097  48.381  1.00  0.00    -0.173 NA
HETATM    3  C4  UNL     1      28.864   5.919  48.095  1.00  0.00     0.068 C 
HETATM    4  C11 UNL     1      29.350   7.112  47.344  1.00  0.00     0.103 C 
HETATM    5  C12 UNL     1      30.847   7.022  47.535  1.00  0.00     0.099 A 
HETATM    6  C13 UNL     1      31.273   7.950  48.611  1.00  0.00     0.011 A 
HETATM    7  C14 UNL     1      32.143   8.835  48.138  1.00  0.00    -0.001 A 
HETATM    8  C15 UNL     1      32.361   8.560  46.714  1.00  0.00    -0.001 A 
HETATM    9  C16 UNL     1      31.610   7.511  46.370  1.00  0.00     0.011 A 
ENDROOT
BRANCH   1  10
HETATM   10  C3  UNL     1      32.164   4.791  47.748  1.00  0.00     0.193 A 
HETATM   11  S1  UNL     1      32.091   3.499  46.404  1.00  0.00    -0.058 SA
HETATM   12  C2  UNL     1      33.707   2.827  46.788  1.00  0.00     0.111 A 
HETATM   13  C1  UNL     1      34.099   3.691  47.913  1.00  0.00     0.171 A 
HETATM   14  N3  UNL     1      33.231   4.617  48.273  1.00  0.00    -0.198 NA
BRANCH  13  15
HETATM   15  O1  UNL     1      35.284   3.688  48.684  1.00  0.00    -0.344 OA
HETATM   16  H1  UNL     1      36.144   3.426  48.186  1.00  0.00     0.219 HD
ENDBRANCH  13  15
ENDBRANCH   1  10
BRANCH   3  17
HETATM   17  C5  UNL     1      27.466   5.652  48.492  1.00  0.00    -0.010 A 
HETATM   18  C6  UNL     1      26.542   6.662  48.295  1.00  0.00     0.015 A 
HETATM   19  C7  UNL     1      25.216   6.427  48.665  1.00  0.00     0.024 A 
HETATM   20  C8  UNL     1      24.865   5.195  49.217  1.00  0.00     0.034 A 
HETATM   21 CL1  UNL     1      23.208   4.843  49.703  1.00  0.00    -0.084 Cl
HETATM   22  C9  UNL     1      25.839   4.214  49.393  1.00  0.00     0.024 A 
HETATM   23  C10 UNL     1      27.152   4.423  49.036  1.00  0.00     0.015 A 
ENDBRANCH   3  17
TORSDOF 3
ENDMDL
MODEL 8
REMARK VINA RESULT:      -7.7      3.429      5.631
REMARK  3 active torsions:
REMARK  status: ('A' for Active; 'I' for Inactive)
REMARK    1  A    between atoms: O1_1  and  C1_2 
REMARK    2  A    between atoms: C3_5  and  N1_6 
REMARK    3  A    between atoms: C4_8  and  C5_9 
ROOT
HETATM    1  N1  UNL     1      22.602   1.417  52.144  1.00  0.00    -0.228 N 
HETATM    2  N2  UNL     1      23.700   0.580  52.369  1.00  0.00    -0.173 NA
HETATM    3  C4  UNL     1      24.740   1.347  52.584  1.00  0.00     0.068 C 
HETATM    4  C11 UNL     1      24.380   2.792  52.511  1.00  0.00     0.103 C 
HETATM    5  C12 UNL     1      23.011   2.749  51.871  1.00  0.00     0.099 A 
HETATM    6  C13 UNL     1      23.122   3.054  50.424  1.00  0.00     0.011 A 
HETATM    7  C14 UNL     1      22.401   4.128  50.122  1.00  0.00    -0.001 A 
HETATM    8  C15 UNL     1      21.757   4.616  51.346  1.00  0.00    -0.001 A 
HETATM    9  C16 UNL     1      22.112   3.815  52.354  1.00  0.00     0.011 A 
ENDROOT
BRANCH   1  10
HETATM   10  C3  UNL     1      21.293   0.830  52.219  1.00  0.00     0.193 A 
HETATM   11  S1  UNL     1      20.229   0.990  50.694  1.00  0.00    -0.058 SA
HETATM   12  C2  UNL     1      18.843   0.112  51.415  1.00  0.00     0.111 A 
HETATM   13  C1  UNL     1      19.382  -0.195  52.750  1.00  0.00     0.171 A 
HETATM   14  N3  UNL     1      20.607   0.225  53.000  1.00  0.00    -0.198 NA
BRANCH  13  15
HETATM   15  O1  UNL     1      18.783  -0.884  53.829  1.00  0.00    -0.344 OA
HETATM   16  H1  UNL     1      17.906  -1.377  53.617  1.00  0.00     0.219 HD
ENDBRANCH  13  15
ENDBRANCH   1  10
BRANCH   3  17
HETATM   17  C5  UNL     1      26.084   0.799  52.859  1.00  0.00    -0.010 A 
HETATM   18  C6  UNL     1      26.259  -0.565  52.714  1.00  0.00     0.015 A 
HETATM   19  C7  UNL     1      27.523  -1.101  52.970  1.00  0.00     0.024 A 
HETATM   20  C8  UNL     1      28.561  -0.255  53.362  1.00  0.00     0.034 A 
HETATM   21 CL1  UNL     1      30.175  -0.875  53.700  1.00  0.00    -0.084 Cl
HETATM   22  C9  UNL     1      28.325   1.112  53.493  1.00  0.00     0.024 A 
HETATM   23  C10 UNL     1      27.089   1.663  53.245  1.00  0.00     0.015 A 
ENDBRANCH   3  17
TORSDOF 3
ENDMDL
MODEL 9
REMARK VINA RESULT:      -7.5      2.146      3.713
REMARK  3 active torsions:
REMARK  status: ('A' for Active; 'I' for Inactive)
REMARK    1  A    between atoms: O1_1  and  C1_2 
REMARK    2  A    between atoms: C3_5  and  N1_6 
REMARK    3  A    between atoms: C4_8  and  C5_9 
ROOT
HETATM    1  N1  UNL     1      23.624   1.605  51.949  1.00  0.00    -0.228 N 
HETATM    2  N2  UNL     1      24.757   2.206  51.392  1.00  0.00    -0.173 NA
HETATM    3  C4  UNL     1      24.351   3.245  50.704  1.00  0.00     0.068 C 
HETATM    4  C11 UNL     1      22.869   3.399  50.766  1.00  0.00     0.103 C 
HETATM    5  C12 UNL     1      22.432   2.066  51.329  1.00  0.00     0.099 A 
HETATM    6  C13 UNL     1      21.954   1.189  50.233  1.00  0.00     0.011 A 
HETATM    7  C14 UNL     1      20.689   0.841  50.440  1.00  0.00    -0.001 A 
HETATM    8  C15 UNL     1      20.233   1.460  51.689  1.00  0.00    -0.001 A 
HETATM    9  C16 UNL     1      21.245   2.166  52.200  1.00  0.00     0.011 A 
ENDROOT
BRANCH   1  10
HETATM   10  C3  UNL     1      23.829   0.660  53.011  1.00  0.00     0.193 A 
HETATM   11  S1  UNL     1      25.599   0.378  53.532  1.00  0.00    -0.058 SA
HETATM   12  C2  UNL     1      25.169  -0.820  54.793  1.00  0.00     0.111 A 
HETATM   13  C1  UNL     1      23.704  -0.849  54.651  1.00  0.00     0.171 A 
HETATM   14  N3  UNL     1      23.188  -0.063  53.727  1.00  0.00    -0.198 NA
BRANCH  13  15
HETATM   15  O1  UNL     1      22.743  -1.603  55.363  1.00  0.00    -0.344 OA
HETATM   16  H1  UNL     1      21.759  -1.383  55.162  1.00  0.00     0.219 HD
ENDBRANCH  13  15
ENDBRANCH   1  10
BRANCH   3  17
HETATM   17  C5  UNL     1      25.287   4.124  49.972  1.00  0.00    -0.010 A 
HETATM   18  C6  UNL     1      26.510   3.592  49.608  1.00  0.00     0.015 A 
HETATM   19  C7  UNL     1      27.407   4.408  48.917  1.00  0.00     0.024 A 
HETATM   20  C8  UNL     1      27.048   5.722  48.615  1.00  0.00     0.034 A 
HETATM   21 CL1  UNL     1      28.140   6.798  47.745  1.00  0.00    -0.084 Cl
HETATM   22  C9  UNL     1      25.801   6.204  49.008  1.00  0.00     0.024 A 
HETATM   23  C10 UNL     1      24.901   5.419  49.690  1.00  0.00     0.015 A 
ENDBRANCH   3  17
TORSDOF 3
ENDMDL
