MODEL 1
REMARK VINA RESULT:      -9.7      0.000      0.000
REMARK  2 active torsions:
REMARK  status: ('A' for Active; 'I' for Inactive)
REMARK    1  A    between atoms: C4_5  and  N1_6 
REMARK    2  A    between atoms: N1_6  and  C5_7 
ROOT
HETATM    1  C5  UNL     1      24.053  -0.036  53.592  1.00  0.00     0.160 A 
HETATM    2  N2  UNL     1      24.465  -0.846  54.579  1.00  0.00    -0.222 NA
HETATM    3  C6  UNL     1      23.647  -1.475  55.433  1.00  0.00     0.238 A 
HETATM    4  N3  UNL     1      22.311  -1.320  55.339  1.00  0.00    -0.215 NA
HETATM    5  C7  UNL     1      21.840  -0.511  54.360  1.00  0.00     0.202 A 
HETATM    6  C8  UNL     1      22.711   0.125  53.497  1.00  0.00     0.129 A 
HETATM    7  N4  UNL     1      22.371   0.999  52.446  1.00  0.00    -0.379 N 
HETATM    8  C9  UNL     1      21.206   1.087  51.601  1.00  0.00     0.161 C 
HETATM    9  C10 UNL     1      20.045   0.352  52.055  1.00  0.00    -0.005 A 
HETATM   10  C11 UNL     1      19.129   0.365  50.998  1.00  0.00     0.030 A 
HETATM   11  C12 UNL     1      17.892  -0.247  51.069  1.00  0.00     0.011 A 
HETATM   12 BR1  UNL     1      16.644  -0.238  49.645  1.00  0.00    -0.051 Br
HETATM   13  C13 UNL     1      17.547  -0.894  52.223  1.00  0.00     0.022 A 
HETATM   14  C14 UNL     1      18.402  -0.949  53.312  1.00  0.00     0.039 A 
HETATM   15  C15 UNL     1      19.648  -0.323  53.216  1.00  0.00     0.086 A 
HETATM   16  O1  UNL     1      20.440  -0.432  54.367  1.00  0.00    -0.289 OA
HETATM   17  H5  UNL     1      23.110   1.722  52.254  1.00  0.00     0.160 HD
ENDROOT
BRANCH   1  18
HETATM   18  N1  UNL     1      25.001   0.560  52.745  1.00  0.00    -0.339 N 
HETATM   19  H3  UNL     1      24.902   1.132  51.883  1.00  0.00     0.167 HD
BRANCH  18  20
HETATM   20  C4  UNL     1      26.403   0.457  52.964  1.00  0.00     0.035 A 
HETATM   21  C3  UNL     1      27.224   1.541  53.219  1.00  0.00     0.032 A 
HETATM   22  C2  UNL     1      28.574   1.454  53.460  1.00  0.00     0.046 A 
HETATM   23  C1  UNL     1      29.186   0.207  53.453  1.00  0.00     0.138 A 
HETATM   24  F1  UNL     1      30.511   0.072  53.686  1.00  0.00    -0.204 F 
HETATM   25  C17 UNL     1      28.453  -0.938  53.209  1.00  0.00     0.074 A 
HETATM   26  C16 UNL     1      27.122  -0.742  52.981  1.00  0.00     0.056 A 
HETATM   27 CL1  UNL     1      29.132  -2.550  53.184  1.00  0.00    -0.081 Cl
ENDBRANCH  18  20
ENDBRANCH   1  18
TORSDOF 2
ENDMDL
MODEL 2
REMARK VINA RESULT:      -9.1      2.204      3.335
REMARK  2 active torsions:
REMARK  status: ('A' for Active; 'I' for Inactive)
REMARK    1  A    between atoms: C4_5  and  N1_6 
REMARK    2  A    between atoms: N1_6  and  C5_7 
ROOT
HETATM    1  C5  UNL     1      24.807   2.588  51.977  1.00  0.00     0.160 A 
HETATM    2  N2  UNL     1      25.210   3.551  51.133  1.00  0.00    -0.222 NA
HETATM    3  C6  UNL     1      24.638   3.809  49.950  1.00  0.00     0.238 A 
HETATM    4  N3  UNL     1      23.581   3.085  49.530  1.00  0.00    -0.215 NA
HETATM    5  C7  UNL     1      23.132   2.098  50.342  1.00  0.00     0.202 A 
HETATM    6  C8  UNL     1      23.747   1.856  51.556  1.00  0.00     0.129 A 
HETATM    7  N4  UNL     1      23.403   0.864  52.493  1.00  0.00    -0.379 N 
HETATM    8  C9  UNL     1      22.146   0.232  52.814  1.00  0.00     0.161 C 
HETATM    9  C10 UNL     1      21.087   0.415  51.846  1.00  0.00    -0.005 A 
HETATM   10  C11 UNL     1      19.914  -0.054  52.447  1.00  0.00     0.030 A 
HETATM   11  C12 UNL     1      18.687  -0.036  51.814  1.00  0.00     0.011 A 
HETATM   12 BR1  UNL     1      17.092  -0.665  52.619  1.00  0.00    -0.051 Br
HETATM   13  C13 UNL     1      18.613   0.460  50.542  1.00  0.00     0.022 A 
HETATM   14  C14 UNL     1      19.732   0.942  49.882  1.00  0.00     0.039 A 
HETATM   15  C15 UNL     1      20.963   0.914  50.544  1.00  0.00     0.086 A 
HETATM   16  O1  UNL     1      22.034   1.420  49.794  1.00  0.00    -0.289 OA
HETATM   17  H5  UNL     1      24.223   0.523  53.057  1.00  0.00     0.160 HD
ENDROOT
BRANCH   1  18
HETATM   18  N1  UNL     1      25.474   2.416  53.200  1.00  0.00    -0.339 N 
HETATM   19  H3  UNL     1      25.253   2.736  54.163  1.00  0.00     0.167 HD
BRANCH  18  20
HETATM   20  C4  UNL     1      26.697   1.697  53.316  1.00  0.00     0.035 A 
HETATM   21  C3  UNL     1      27.896   2.277  53.690  1.00  0.00     0.032 A 
HETATM   22  C2  UNL     1      29.078   1.591  53.833  1.00  0.00     0.046 A 
HETATM   23  C1  UNL     1      29.104   0.223  53.596  1.00  0.00     0.138 A 
HETATM   24  F1  UNL     1      30.242  -0.494  53.725  1.00  0.00    -0.204 F 
HETATM   25  C17 UNL     1      27.956  -0.449  53.218  1.00  0.00     0.074 A 
HETATM   26  C16 UNL     1      26.838   0.323  53.103  1.00  0.00     0.056 A 
HETATM   27 CL1  UNL     1      27.887  -2.168  52.900  1.00  0.00    -0.081 Cl
ENDBRANCH  18  20
ENDBRANCH   1  18
TORSDOF 2
ENDMDL
MODEL 3
REMARK VINA RESULT:      -8.8      5.755      8.304
REMARK  2 active torsions:
REMARK  status: ('A' for Active; 'I' for Inactive)
REMARK    1  A    between atoms: C4_5  and  N1_6 
REMARK    2  A    between atoms: N1_6  and  C5_7 
ROOT
HETATM    1  C5  UNL     1      24.498   2.657  52.234  1.00  0.00     0.160 A 
HETATM    2  N2  UNL     1      25.272   1.815  52.936  1.00  0.00    -0.222 NA
HETATM    3  C6  UNL     1      26.524   1.479  52.599  1.00  0.00     0.238 A 
HETATM    4  N3  UNL     1      27.094   1.992  51.490  1.00  0.00    -0.215 NA
HETATM    5  C7  UNL     1      26.356   2.847  50.742  1.00  0.00     0.202 A 
HETATM    6  C8  UNL     1      25.067   3.172  51.117  1.00  0.00     0.129 A 
HETATM    7  N4  UNL     1      24.181   4.030  50.438  1.00  0.00    -0.379 N 
HETATM    8  C9  UNL     1      24.404   5.181  49.598  1.00  0.00     0.161 C 
HETATM    9  C10 UNL     1      25.757   5.352  49.116  1.00  0.00    -0.005 A 
HETATM   10  C11 UNL     1      25.815   6.625  48.539  1.00  0.00     0.030 A 
HETATM   11  C12 UNL     1      26.963   7.140  47.970  1.00  0.00     0.011 A 
HETATM   12 BR1  UNL     1      27.055   8.863  47.189  1.00  0.00    -0.051 Br
HETATM   13  C13 UNL     1      28.095   6.372  47.968  1.00  0.00     0.022 A 
HETATM   14  C14 UNL     1      28.114   5.101  48.520  1.00  0.00     0.039 A 
HETATM   15  C15 UNL     1      26.939   4.602  49.090  1.00  0.00     0.086 A 
HETATM   16  O1  UNL     1      27.059   3.310  49.620  1.00  0.00    -0.289 OA
HETATM   17  H5  UNL     1      23.170   3.772  50.572  1.00  0.00     0.160 HD
ENDROOT
BRANCH   1  18
HETATM   18  N1  UNL     1      23.203   2.948  52.690  1.00  0.00    -0.339 N 
HETATM   19  H3  UNL     1      22.788   3.807  53.104  1.00  0.00     0.167 HD
BRANCH  18  20
HETATM   20  C4  UNL     1      22.141   2.002  52.655  1.00  0.00     0.035 A 
HETATM   21  C3  UNL     1      20.999   2.156  51.890  1.00  0.00     0.032 A 
HETATM   22  C2  UNL     1      19.979   1.237  51.824  1.00  0.00     0.046 A 
HETATM   23  C1  UNL     1      20.070   0.066  52.565  1.00  0.00     0.138 A 
HETATM   24  F1  UNL     1      19.092  -0.866  52.531  1.00  0.00    -0.204 F 
HETATM   25  C17 UNL     1      21.172  -0.181  53.361  1.00  0.00     0.074 A 
HETATM   26  C16 UNL     1      22.127   0.792  53.356  1.00  0.00     0.056 A 
HETATM   27 CL1  UNL     1      21.379  -1.626  54.326  1.00  0.00    -0.081 Cl
ENDBRANCH  18  20
ENDBRANCH   1  18
TORSDOF 2
ENDMDL
MODEL 4
REMARK VINA RESULT:      -8.7      4.570      5.464
REMARK  2 active torsions:
REMARK  status: ('A' for Active; 'I' for Inactive)
REMARK    1  A    between atoms: C4_5  and  N1_6 
REMARK    2  A    between atoms: N1_6  and  C5_7 
ROOT
HETATM    1  C5  UNL     1      25.045   2.554  50.859  1.00  0.00     0.160 A 
HETATM    2  N2  UNL     1      26.310   2.122  50.970  1.00  0.00    -0.222 NA
HETATM    3  C6  UNL     1      26.737   1.257  51.900  1.00  0.00     0.238 A 
HETATM    4  N3  UNL     1      25.878   0.754  52.810  1.00  0.00    -0.215 NA
HETATM    5  C7  UNL     1      24.586   1.158  52.745  1.00  0.00     0.202 A 
HETATM    6  C8  UNL     1      24.180   2.053  51.774  1.00  0.00     0.129 A 
HETATM    7  N4  UNL     1      22.883   2.570  51.593  1.00  0.00    -0.379 N 
HETATM    8  C9  UNL     1      21.577   2.024  51.872  1.00  0.00     0.161 C 
HETATM    9  C10 UNL     1      21.554   0.870  52.744  1.00  0.00    -0.005 A 
HETATM   10  C11 UNL     1      20.253   0.359  52.692  1.00  0.00     0.030 A 
HETATM   11  C12 UNL     1      19.854  -0.756  53.403  1.00  0.00     0.011 A 
HETATM   12 BR1  UNL     1      18.097  -1.459  53.338  1.00  0.00    -0.051 Br
HETATM   13  C13 UNL     1      20.771  -1.388  54.197  1.00  0.00     0.022 A 
HETATM   14  C14 UNL     1      22.078  -0.940  54.300  1.00  0.00     0.039 A 
HETATM   15  C15 UNL     1      22.457   0.190  53.570  1.00  0.00     0.086 A 
HETATM   16  O1  UNL     1      23.797   0.566  53.742  1.00  0.00    -0.289 OA
HETATM   17  H5  UNL     1      22.876   3.537  51.179  1.00  0.00     0.160 HD
ENDROOT
BRANCH   1  18
HETATM   18  N1  UNL     1      24.708   3.453  49.835  1.00  0.00    -0.339 N 
HETATM   19  H3  UNL     1      24.067   3.370  49.021  1.00  0.00     0.167 HD
BRANCH  18  20
HETATM   20  C4  UNL     1      25.259   4.761  49.745  1.00  0.00     0.035 A 
HETATM   21  C3  UNL     1      24.760   5.854  50.430  1.00  0.00     0.032 A 
HETATM   22  C2  UNL     1      25.299   7.118  50.374  1.00  0.00     0.046 A 
HETATM   23  C1  UNL     1      26.419   7.345  49.586  1.00  0.00     0.138 A 
HETATM   24  F1  UNL     1      26.984   8.570  49.501  1.00  0.00    -0.204 F 
HETATM   25  C17 UNL     1      26.993   6.317  48.862  1.00  0.00     0.074 A 
HETATM   26  C16 UNL     1      26.382   5.103  48.986  1.00  0.00     0.056 A 
HETATM   27 CL1  UNL     1      28.405   6.503  47.846  1.00  0.00    -0.081 Cl
ENDBRANCH  18  20
ENDBRANCH   1  18
TORSDOF 2
ENDMDL
MODEL 5
REMARK VINA RESULT:      -8.5      5.544      8.023
REMARK  2 active torsions:
REMARK  status: ('A' for Active; 'I' for Inactive)
REMARK    1  A    between atoms: C4_5  and  N1_6 
REMARK    2  A    between atoms: N1_6  and  C5_7 
ROOT
HETATM    1  C5  UNL     1      22.519   3.139  50.904  1.00  0.00     0.160 A 
HETATM    2  N2  UNL     1      21.302   3.666  51.106  1.00  0.00    -0.222 NA
HETATM    3  C6  UNL     1      21.056   4.976  51.238  1.00  0.00     0.238 A 
HETATM    4  N3  UNL     1      22.064   5.870  51.171  1.00  0.00    -0.215 NA
HETATM    5  C7  UNL     1      23.315   5.392  50.969  1.00  0.00     0.202 A 
HETATM    6  C8  UNL     1      23.534   4.034  50.838  1.00  0.00     0.129 A 
HETATM    7  N4  UNL     1      24.772   3.394  50.640  1.00  0.00    -0.379 N 
HETATM    8  C9  UNL     1      25.988   3.821  49.991  1.00  0.00     0.161 C 
HETATM    9  C10 UNL     1      26.095   5.240  49.733  1.00  0.00    -0.005 A 
HETATM   10  C11 UNL     1      27.205   5.410  48.899  1.00  0.00     0.030 A 
HETATM   11  C12 UNL     1      27.618   6.645  48.438  1.00  0.00     0.011 A 
HETATM   12 BR1  UNL     1      29.118   6.886  47.308  1.00  0.00    -0.051 Br
HETATM   13  C13 UNL     1      26.911   7.753  48.815  1.00  0.00     0.022 A 
HETATM   14  C14 UNL     1      25.800   7.664  49.638  1.00  0.00     0.039 A 
HETATM   15  C15 UNL     1      25.402   6.403  50.091  1.00  0.00     0.086 A 
HETATM   16  O1  UNL     1      24.271   6.417  50.919  1.00  0.00    -0.289 OA
HETATM   17  H5  UNL     1      24.808   2.425  51.048  1.00  0.00     0.160 HD
ENDROOT
BRANCH   1  18
HETATM   18  N1  UNL     1      22.656   1.749  50.765  1.00  0.00    -0.339 N 
HETATM   19  H3  UNL     1      22.812   1.145  49.933  1.00  0.00     0.167 HD
BRANCH  18  20
HETATM   20  C4  UNL     1      22.592   0.853  51.869  1.00  0.00     0.035 A 
HETATM   21  C3  UNL     1      21.436   0.206  52.267  1.00  0.00     0.032 A 
HETATM   22  C2  UNL     1      21.364  -0.682  53.313  1.00  0.00     0.046 A 
HETATM   23  C1  UNL     1      22.512  -0.970  54.040  1.00  0.00     0.138 A 
HETATM   24  F1  UNL     1      22.490  -1.838  55.076  1.00  0.00    -0.204 F 
HETATM   25  C17 UNL     1      23.717  -0.375  53.720  1.00  0.00     0.074 A 
HETATM   26  C16 UNL     1      23.681   0.491  52.667  1.00  0.00     0.056 A 
HETATM   27 CL1  UNL     1      25.215  -0.676  54.572  1.00  0.00    -0.081 Cl
ENDBRANCH  18  20
ENDBRANCH   1  18
TORSDOF 2
ENDMDL
MODEL 6
REMARK VINA RESULT:      -8.5      5.149      8.553
REMARK  2 active torsions:
REMARK  status: ('A' for Active; 'I' for Inactive)
REMARK    1  A    between atoms: C4_5  and  N1_6 
REMARK    2  A    between atoms: N1_6  and  C5_7 
ROOT
HETATM    1  C5  UNL     1      22.029   1.404  51.665  1.00  0.00     0.160 A 
HETATM    2  N2  UNL     1      21.615   2.619  51.274  1.00  0.00    -0.222 NA
HETATM    3  C6  UNL     1      22.229   3.767  51.590  1.00  0.00     0.238 A 
HETATM    4  N3  UNL     1      23.345   3.758  52.347  1.00  0.00    -0.215 NA
HETATM    5  C7  UNL     1      23.808   2.558  52.771  1.00  0.00     0.202 A 
HETATM    6  C8  UNL     1      23.148   1.393  52.429  1.00  0.00     0.129 A 
HETATM    7  N4  UNL     1      23.502   0.082  52.804  1.00  0.00    -0.379 N 
HETATM    8  C9  UNL     1      24.774  -0.528  53.101  1.00  0.00     0.161 C 
HETATM    9  C10 UNL     1      25.868   0.387  53.340  1.00  0.00    -0.005 A 
HETATM   10  C11 UNL     1      27.034  -0.384  53.365  1.00  0.00     0.030 A 
HETATM   11  C12 UNL     1      28.289   0.156  53.570  1.00  0.00     0.011 A 
HETATM   12 BR1  UNL     1      29.875  -0.878  53.603  1.00  0.00    -0.051 Br
HETATM   13  C13 UNL     1      28.397   1.506  53.759  1.00  0.00     0.022 A 
HETATM   14  C14 UNL     1      27.287   2.335  53.748  1.00  0.00     0.039 A 
HETATM   15  C15 UNL     1      26.028   1.764  53.539  1.00  0.00     0.086 A 
HETATM   16  O1  UNL     1      24.969   2.683  53.547  1.00  0.00    -0.289 OA
HETATM   17  H5  UNL     1      22.674  -0.564  52.883  1.00  0.00     0.160 HD
ENDROOT
BRANCH   1  18
HETATM   18  N1  UNL     1      21.313   0.266  51.263  1.00  0.00    -0.339 N 
HETATM   19  H3  UNL     1      21.564  -0.531  50.645  1.00  0.00     0.167 HD
BRANCH  18  20
HETATM   20  C4  UNL     1      19.980   0.005  51.686  1.00  0.00     0.035 A 
HETATM   21  C3  UNL     1      19.661  -0.632  52.872  1.00  0.00     0.032 A 
HETATM   22  C2  UNL     1      18.378  -0.867  53.306  1.00  0.00     0.046 A 
HETATM   23  C1  UNL     1      17.308  -0.449  52.526  1.00  0.00     0.138 A 
HETATM   24  F1  UNL     1      16.030  -0.657  52.913  1.00  0.00    -0.204 F 
HETATM   25  C17 UNL     1      17.523   0.197  51.323  1.00  0.00     0.074 A 
HETATM   26  C16 UNL     1      18.831   0.380  50.983  1.00  0.00     0.056 A 
HETATM   27 CL1  UNL     1      16.243   0.764  50.274  1.00  0.00    -0.081 Cl
ENDBRANCH  18  20
ENDBRANCH   1  18
TORSDOF 2
ENDMDL
MODEL 7
REMARK VINA RESULT:      -8.4      6.561      8.449
REMARK  2 active torsions:
REMARK  status: ('A' for Active; 'I' for Inactive)
REMARK    1  A    between atoms: C4_5  and  N1_6 
REMARK    2  A    between atoms: N1_6  and  C5_7 
ROOT
HETATM    1  C5  UNL     1      23.699   4.879  51.634  1.00  0.00     0.160 A 
HETATM    2  N2  UNL     1      22.419   4.945  52.033  1.00  0.00    -0.222 NA
HETATM    3  C6  UNL     1      21.672   3.883  52.363  1.00  0.00     0.238 A 
HETATM    4  N3  UNL     1      22.192   2.640  52.309  1.00  0.00    -0.215 NA
HETATM    5  C7  UNL     1      23.481   2.514  51.912  1.00  0.00     0.202 A 
HETATM    6  C8  UNL     1      24.223   3.631  51.577  1.00  0.00     0.129 A 
HETATM    7  N4  UNL     1      25.560   3.654  51.137  1.00  0.00    -0.379 N 
HETATM    8  C9  UNL     1      26.680   2.784  51.400  1.00  0.00     0.161 C 
HETATM    9  C10 UNL     1      26.353   1.501  51.983  1.00  0.00    -0.005 A 
HETATM   10  C11 UNL     1      27.564   0.923  52.378  1.00  0.00     0.030 A 
HETATM   11  C12 UNL     1      27.644  -0.316  52.982  1.00  0.00     0.011 A 
HETATM   12 BR1  UNL     1      29.277  -1.107  53.523  1.00  0.00    -0.051 Br
HETATM   13  C13 UNL     1      26.487  -1.012  53.203  1.00  0.00     0.022 A 
HETATM   14  C14 UNL     1      25.250  -0.505  52.840  1.00  0.00     0.039 A 
HETATM   15  C15 UNL     1      25.196   0.751  52.230  1.00  0.00     0.086 A 
HETATM   16  O1  UNL     1      23.902   1.176  51.898  1.00  0.00    -0.289 OA
HETATM   17  H5  UNL     1      25.770   4.459  50.493  1.00  0.00     0.160 HD
ENDROOT
BRANCH   1  18
HETATM   18  N1  UNL     1      24.390   6.061  51.327  1.00  0.00    -0.339 N 
HETATM   19  H3  UNL     1      25.122   6.591  51.839  1.00  0.00     0.167 HD
BRANCH  18  20
HETATM   20  C4  UNL     1      24.162   6.799  50.132  1.00  0.00     0.035 A 
HETATM   21  C3  UNL     1      24.838   6.570  48.947  1.00  0.00     0.032 A 
HETATM   22  C2  UNL     1      24.610   7.256  47.778  1.00  0.00     0.046 A 
HETATM   23  C1  UNL     1      23.641   8.251  47.751  1.00  0.00     0.138 A 
HETATM   24  F1  UNL     1      23.381   8.951  46.624  1.00  0.00    -0.204 F 
HETATM   25  C17 UNL     1      22.911   8.555  48.884  1.00  0.00     0.074 A 
HETATM   26  C16 UNL     1      23.215   7.818  49.991  1.00  0.00     0.056 A 
HETATM   27 CL1  UNL     1      21.670   9.786  48.949  1.00  0.00    -0.081 Cl
ENDBRANCH  18  20
ENDBRANCH   1  18
TORSDOF 2
ENDMDL
MODEL 8
REMARK VINA RESULT:      -8.3      5.916      7.492
REMARK  2 active torsions:
REMARK  status: ('A' for Active; 'I' for Inactive)
REMARK    1  A    between atoms: C4_5  and  N1_6 
REMARK    2  A    between atoms: N1_6  and  C5_7 
ROOT
HETATM    1  C5  UNL     1      24.431   3.195  51.296  1.00  0.00     0.160 A 
HETATM    2  N2  UNL     1      23.276   3.102  51.973  1.00  0.00    -0.222 NA
HETATM    3  C6  UNL     1      22.490   4.142  52.277  1.00  0.00     0.238 A 
HETATM    4  N3  UNL     1      22.833   5.391  51.900  1.00  0.00    -0.215 NA
HETATM    5  C7  UNL     1      23.991   5.544  51.214  1.00  0.00     0.202 A 
HETATM    6  C8  UNL     1      24.780   4.449  50.919  1.00  0.00     0.129 A 
HETATM    7  N4  UNL     1      26.008   4.455  50.229  1.00  0.00    -0.379 N 
HETATM    8  C9  UNL     1      26.537   5.322  49.205  1.00  0.00     0.161 C 
HETATM    9  C10 UNL     1      25.839   6.576  49.023  1.00  0.00    -0.005 A 
HETATM   10  C11 UNL     1      26.343   7.145  47.849  1.00  0.00     0.030 A 
HETATM   11  C12 UNL     1      25.906   8.358  47.354  1.00  0.00     0.011 A 
HETATM   12 BR1  UNL     1      26.580   9.137  45.765  1.00  0.00    -0.051 Br
HETATM   13  C13 UNL     1      24.936   9.035  48.041  1.00  0.00     0.022 A 
HETATM   14  C14 UNL     1      24.388   8.534  49.211  1.00  0.00     0.039 A 
HETATM   15  C15 UNL     1      24.848   7.305  49.693  1.00  0.00     0.086 A 
HETATM   16  O1  UNL     1      24.235   6.884  50.881  1.00  0.00    -0.289 OA
HETATM   17  H5  UNL     1      26.655   3.681  50.528  1.00  0.00     0.160 HD
ENDROOT
BRANCH   1  18
HETATM   18  N1  UNL     1      25.168   2.033  51.022  1.00  0.00    -0.339 N 
HETATM   19  H3  UNL     1      25.255   1.451  50.165  1.00  0.00     0.167 HD
BRANCH  18  20
HETATM   20  C4  UNL     1      26.001   1.402  51.987  1.00  0.00     0.035 A 
HETATM   21  C3  UNL     1      25.827   0.099  52.419  1.00  0.00     0.032 A 
HETATM   22  C2  UNL     1      26.639  -0.533  53.329  1.00  0.00     0.046 A 
HETATM   23  C1  UNL     1      27.717   0.156  53.872  1.00  0.00     0.138 A 
HETATM   24  F1  UNL     1      28.543  -0.424  54.770  1.00  0.00    -0.204 F 
HETATM   25  C17 UNL     1      27.975   1.463  53.505  1.00  0.00     0.074 A 
HETATM   26  C16 UNL     1      27.110   1.997  52.596  1.00  0.00     0.056 A 
HETATM   27 CL1  UNL     1      29.307   2.410  54.128  1.00  0.00    -0.081 Cl
ENDBRANCH  18  20
ENDBRANCH   1  18
TORSDOF 2
ENDMDL
MODEL 9
REMARK VINA RESULT:      -8.3      6.251      7.490
REMARK  2 active torsions:
REMARK  status: ('A' for Active; 'I' for Inactive)
REMARK    1  A    between atoms: C4_5  and  N1_6 
REMARK    2  A    between atoms: N1_6  and  C5_7 
ROOT
HETATM    1  C5  UNL     1      24.615   5.241  49.503  1.00  0.00     0.160 A 
HETATM    2  N2  UNL     1      23.927   5.832  48.513  1.00  0.00    -0.222 NA
HETATM    3  C6  UNL     1      22.910   5.263  47.853  1.00  0.00     0.238 A 
HETATM    4  N3  UNL     1      22.506   4.015  48.165  1.00  0.00    -0.215 NA
HETATM    5  C7  UNL     1      23.166   3.370  49.157  1.00  0.00     0.202 A 
HETATM    6  C8  UNL     1      24.213   3.985  49.817  1.00  0.00     0.129 A 
HETATM    7  N4  UNL     1      24.996   3.439  50.852  1.00  0.00    -0.379 N 
HETATM    8  C9  UNL     1      24.700   2.469  51.878  1.00  0.00     0.161 C 
HETATM    9  C10 UNL     1      23.497   1.691  51.677  1.00  0.00    -0.005 A 
HETATM   10  C11 UNL     1      23.265   1.002  52.872  1.00  0.00     0.030 A 
HETATM   11  C12 UNL     1      22.191   0.153  53.054  1.00  0.00     0.011 A 
HETATM   12 BR1  UNL     1      21.866  -0.783  54.667  1.00  0.00    -0.051 Br
HETATM   13  C13 UNL     1      21.315  -0.025  52.019  1.00  0.00     0.022 A 
HETATM   14  C14 UNL     1      21.479   0.624  50.806  1.00  0.00     0.039 A 
HETATM   15  C15 UNL     1      22.573   1.478  50.646  1.00  0.00     0.086 A 
HETATM   16  O1  UNL     1      22.653   2.085  49.385  1.00  0.00    -0.289 OA
HETATM   17  H5  UNL     1      25.979   3.812  50.869  1.00  0.00     0.160 HD
ENDROOT
BRANCH   1  18
HETATM   18  N1  UNL     1      25.655   5.939  50.135  1.00  0.00    -0.339 N 
HETATM   19  H3  UNL     1      25.889   6.082  51.137  1.00  0.00     0.167 HD
BRANCH  18  20
HETATM   20  C4  UNL     1      26.662   6.640  49.414  1.00  0.00     0.035 A 
HETATM   21  C3  UNL     1      27.503   6.044  48.491  1.00  0.00     0.032 A 
HETATM   22  C2  UNL     1      28.460   6.713  47.768  1.00  0.00     0.046 A 
HETATM   23  C1  UNL     1      28.620   8.080  47.952  1.00  0.00     0.138 A 
HETATM   24  F1  UNL     1      29.548   8.780  47.262  1.00  0.00    -0.204 F 
HETATM   25  C17 UNL     1      27.829   8.768  48.852  1.00  0.00     0.074 A 
HETATM   26  C16 UNL     1      26.910   8.012  49.519  1.00  0.00     0.056 A 
HETATM   27 CL1  UNL     1      27.951  10.487  49.151  1.00  0.00    -0.081 Cl
ENDBRANCH  18  20
ENDBRANCH   1  18
TORSDOF 2
ENDMDL
