MODEL 1
REMARK VINA RESULT:      -7.2      0.000      0.000
REMARK  6 active torsions:
REMARK  status: ('A' for Active; 'I' for Inactive)
REMARK    1  A    between atoms: C2_2  and  C3_3 
REMARK    2  A    between atoms: C3_3  and  C4_4 
REMARK    3  A    between atoms: C4_4  and  C5_5 
REMARK    4  A    between atoms: C5_5  and  C6_6 
REMARK    5  A    between atoms: C7_9  and  N1_11 
REMARK    6  A    between atoms: N1_11  and  C9_12 
ROOT
HETATM    1  N1  UNL     1      24.383   1.940  51.255  1.00  0.00    -0.355 N 
HETATM    2  H15 UNL     1      24.326   1.223  50.501  1.00  0.00     0.166 HD
ENDROOT
BRANCH   1   3
HETATM    3  C7  UNL     1      24.223   3.340  51.435  1.00  0.00     0.008 C 
HETATM    4  C3  UNL     1      24.618   4.277  50.560  1.00  0.00    -0.058 C 
HETATM    5  C8  UNL     1      23.569   3.792  52.690  1.00  0.00     0.068 C 
BRANCH   4   6
HETATM    6  C2  UNL     1      24.385   5.688  50.887  1.00  0.00     0.031 C 
HETATM    7  C1  UNL     1      23.983   6.497  49.669  1.00  0.00     0.010 C 
ENDBRANCH   4   6
BRANCH   4   8
HETATM    8  C4  UNL     1      25.251   3.763  49.324  1.00  0.00     0.042 C 
BRANCH   8   9
HETATM    9  C5  UNL     1      26.750   3.782  49.338  1.00  0.00     0.071 C 
BRANCH   9  10
HETATM   10  C6  UNL     1      27.349   5.031  48.816  1.00  0.00     0.070 A 
HETATM   11  O1  UNL     1      28.556   4.931  48.558  1.00  0.00    -0.332 OA
HETATM   12  P1  UNL     1      27.952   6.641  48.183  1.00  0.00     0.017 P 
HETATM   13  H10 UNL     1      27.796   7.694  49.166  1.00  0.00     0.085 HD
HETATM   14  H11 UNL     1      27.174   7.031  46.996  1.00  0.00     0.085 HD
ENDBRANCH   9  10
ENDBRANCH   8   9
ENDBRANCH   4   8
ENDBRANCH   1   3
BRANCH   1  15
HETATM   15  C9  UNL     1      24.730   1.108  52.354  1.00  0.00     0.114 A 
HETATM   16  C10 UNL     1      25.955   1.001  52.902  1.00  0.00     0.022 A 
HETATM   17  C11 UNL     1      27.143   1.734  52.442  1.00  0.00     0.013 A 
HETATM   18  C15 UNL     1      26.034   0.075  54.024  1.00  0.00     0.045 A 
HETATM   19  C12 UNL     1      28.316   1.540  53.076  1.00  0.00    -0.006 A 
HETATM   20  C13 UNL     1      28.445   0.622  54.208  1.00  0.00     0.105 A 
HETATM   21 BR1  UNL     1      29.848  -0.661  53.746  1.00  0.00    -0.083 Br
HETATM   22  C14 UNL     1      27.212  -0.071  54.601  1.00  0.00     0.023 A 
HETATM   23  N2  UNL     1      24.725  -0.428  54.171  1.00  0.00    -0.321 N 
HETATM   24  C16 UNL     1      23.915   0.193  53.160  1.00  0.00     0.273 A 
HETATM   25  H20 UNL     1      24.460  -1.118  54.897  1.00  0.00     0.169 HD
HETATM   26  O2  UNL     1      22.706   0.002  52.973  1.00  0.00    -0.266 OA
ENDBRANCH   1  15
TORSDOF 6
ENDMDL
MODEL 2
REMARK VINA RESULT:      -7.1      3.559      4.078
REMARK  6 active torsions:
REMARK  status: ('A' for Active; 'I' for Inactive)
REMARK    1  A    between atoms: C2_2  and  C3_3 
REMARK    2  A    between atoms: C3_3  and  C4_4 
REMARK    3  A    between atoms: C4_4  and  C5_5 
REMARK    4  A    between atoms: C5_5  and  C6_6 
REMARK    5  A    between atoms: C7_9  and  N1_11 
REMARK    6  A    between atoms: N1_11  and  C9_12 
ROOT
HETATM    1  N1  UNL     1      22.592  -0.618  52.892  1.00  0.00    -0.355 N 
HETATM    2  H15 UNL     1      22.875  -1.409  52.277  1.00  0.00     0.166 HD
ENDROOT
BRANCH   1   3
HETATM    3  C7  UNL     1      21.606   0.403  52.961  1.00  0.00     0.008 C 
HETATM    4  C3  UNL     1      21.374   1.312  52.003  1.00  0.00    -0.058 C 
HETATM    5  C8  UNL     1      20.775   0.462  54.191  1.00  0.00     0.068 C 
BRANCH   4   6
HETATM    6  C2  UNL     1      20.319   2.309  52.220  1.00  0.00     0.031 C 
HETATM    7  C1  UNL     1      20.825   3.726  52.031  1.00  0.00     0.010 C 
ENDBRANCH   4   6
BRANCH   4   8
HETATM    8  C4  UNL     1      22.225   1.195  50.797  1.00  0.00     0.042 C 
BRANCH   8   9
HETATM    9  C5  UNL     1      21.474   0.910  49.531  1.00  0.00     0.071 C 
BRANCH   9  10
HETATM   10  C6  UNL     1      21.603   1.961  48.497  1.00  0.00     0.070 A 
HETATM   11  O1  UNL     1      22.495   1.734  47.668  1.00  0.00    -0.332 OA
HETATM   12  P1  UNL     1      21.649   3.336  47.287  1.00  0.00     0.017 P 
HETATM   13  H10 UNL     1      21.953   4.601  47.925  1.00  0.00     0.085 HD
HETATM   14  H11 UNL     1      20.333   3.476  46.644  1.00  0.00     0.085 HD
ENDBRANCH   9  10
ENDBRANCH   8   9
ENDBRANCH   4   8
ENDBRANCH   1   3
BRANCH   1  15
HETATM   15  C9  UNL     1      23.580  -0.733  53.908  1.00  0.00     0.114 A 
HETATM   16  C10 UNL     1      24.821  -0.213  53.858  1.00  0.00     0.022 A 
HETATM   17  C11 UNL     1      25.358   0.562  52.731  1.00  0.00     0.013 A 
HETATM   18  C15 UNL     1      25.632  -0.480  55.039  1.00  0.00     0.045 A 
HETATM   19  C12 UNL     1      26.620   1.030  52.804  1.00  0.00    -0.006 A 
HETATM   20  C13 UNL     1      27.472   0.791  53.968  1.00  0.00     0.105 A 
HETATM   21 BR1  UNL     1      29.101  -0.076  53.315  1.00  0.00    -0.083 Br
HETATM   22  C14 UNL     1      26.859   0.005  55.047  1.00  0.00     0.023 A 
HETATM   23  N2  UNL     1      24.798  -1.235  55.889  1.00  0.00    -0.321 N 
HETATM   24  C16 UNL     1      23.540  -1.398  55.214  1.00  0.00     0.273 A 
HETATM   25  H20 UNL     1      25.097  -1.579  56.819  1.00  0.00     0.169 HD
HETATM   26  O2  UNL     1      22.552  -2.006  55.647  1.00  0.00    -0.266 OA
ENDBRANCH   1  15
TORSDOF 6
ENDMDL
MODEL 3
REMARK VINA RESULT:      -7.1      2.909      3.865
REMARK  6 active torsions:
REMARK  status: ('A' for Active; 'I' for Inactive)
REMARK    1  A    between atoms: C2_2  and  C3_3 
REMARK    2  A    between atoms: C3_3  and  C4_4 
REMARK    3  A    between atoms: C4_4  and  C5_5 
REMARK    4  A    between atoms: C5_5  and  C6_6 
REMARK    5  A    between atoms: C7_9  and  N1_11 
REMARK    6  A    between atoms: N1_11  and  C9_12 
ROOT
HETATM    1  N1  UNL     1      22.939  -0.649  52.873  1.00  0.00    -0.355 N 
HETATM    2  H15 UNL     1      23.386  -1.283  52.178  1.00  0.00     0.166 HD
ENDROOT
BRANCH   1   3
HETATM    3  C7  UNL     1      21.780   0.161  53.014  1.00  0.00     0.008 C 
HETATM    4  C3  UNL     1      21.679   1.434  52.606  1.00  0.00    -0.058 C 
HETATM    5  C8  UNL     1      20.596  -0.456  53.666  1.00  0.00     0.068 C 
BRANCH   4   6
HETATM    6  C2  UNL     1      20.413   2.144  52.823  1.00  0.00     0.031 C 
HETATM    7  C1  UNL     1      19.745   2.531  51.517  1.00  0.00     0.010 C 
ENDBRANCH   4   6
BRANCH   4   8
HETATM    8  C4  UNL     1      22.886   1.989  51.953  1.00  0.00     0.042 C 
BRANCH   8   9
HETATM    9  C5  UNL     1      23.534   3.118  52.697  1.00  0.00     0.071 C 
BRANCH   9  10
HETATM   10  C6  UNL     1      23.496   4.416  51.989  1.00  0.00     0.070 A 
HETATM   11  O1  UNL     1      22.415   5.009  52.100  1.00  0.00    -0.332 OA
HETATM   12  P1  UNL     1      23.592   5.997  51.067  1.00  0.00     0.017 P 
HETATM   13  H10 UNL     1      23.832   5.778  49.654  1.00  0.00     0.085 HD
HETATM   14  H11 UNL     1      24.709   6.805  51.580  1.00  0.00     0.085 HD
ENDBRANCH   9  10
ENDBRANCH   8   9
ENDBRANCH   4   8
ENDBRANCH   1   3
BRANCH   1  15
HETATM   15  C9  UNL     1      23.892  -0.729  53.924  1.00  0.00     0.114 A 
HETATM   16  C10 UNL     1      25.172  -0.315  53.857  1.00  0.00     0.022 A 
HETATM   17  C11 UNL     1      25.793   0.290  52.671  1.00  0.00     0.013 A 
HETATM   18  C15 UNL     1      25.933  -0.514  55.084  1.00  0.00     0.045 A 
HETATM   19  C12 UNL     1      27.087   0.665  52.731  1.00  0.00    -0.006 A 
HETATM   20  C13 UNL     1      27.892   0.488  53.939  1.00  0.00     0.105 A 
HETATM   21 BR1  UNL     1      29.460  -0.567  53.432  1.00  0.00    -0.083 Br
HETATM   22  C14 UNL     1      27.195  -0.127  55.077  1.00  0.00     0.023 A 
HETATM   23  N2  UNL     1      25.024  -1.106  55.983  1.00  0.00    -0.321 N 
HETATM   24  C16 UNL     1      23.771  -1.244  55.292  1.00  0.00     0.273 A 
HETATM   25  H20 UNL     1      25.274  -1.369  56.954  1.00  0.00     0.169 HD
HETATM   26  O2  UNL     1      22.728  -1.723  55.758  1.00  0.00    -0.266 OA
ENDBRANCH   1  15
TORSDOF 6
ENDMDL
MODEL 4
REMARK VINA RESULT:      -6.9      3.916      5.868
REMARK  6 active torsions:
REMARK  status: ('A' for Active; 'I' for Inactive)
REMARK    1  A    between atoms: C2_2  and  C3_3 
REMARK    2  A    between atoms: C3_3  and  C4_4 
REMARK    3  A    between atoms: C4_4  and  C5_5 
REMARK    4  A    between atoms: C5_5  and  C6_6 
REMARK    5  A    between atoms: C7_9  and  N1_11 
REMARK    6  A    between atoms: N1_11  and  C9_12 
ROOT
HETATM    1  N1  UNL     1      24.203  -0.784  53.111  1.00  0.00    -0.355 N 
HETATM    2  H15 UNL     1      24.175  -1.555  52.412  1.00  0.00     0.166 HD
ENDROOT
BRANCH   1   3
HETATM    3  C7  UNL     1      25.127   0.140  53.670  1.00  0.00     0.008 C 
HETATM    4  C3  UNL     1      25.514   1.285  53.088  1.00  0.00    -0.058 C 
HETATM    5  C8  UNL     1      25.704  -0.194  54.997  1.00  0.00     0.068 C 
BRANCH   4   6
HETATM    6  C2  UNL     1      26.479   2.140  53.789  1.00  0.00     0.031 C 
HETATM    7  C1  UNL     1      27.862   2.064  53.171  1.00  0.00     0.010 C 
ENDBRANCH   4   6
BRANCH   4   8
HETATM    8  C4  UNL     1      24.895   1.570  51.773  1.00  0.00     0.042 C 
BRANCH   8   9
HETATM    9  C5  UNL     1      24.901   3.017  51.382  1.00  0.00     0.071 C 
BRANCH   9  10
HETATM   10  C6  UNL     1      23.631   3.727  51.657  1.00  0.00     0.070 A 
HETATM   11  O1  UNL     1      23.559   4.185  52.805  1.00  0.00    -0.332 OA
HETATM   12  P1  UNL     1      22.018   4.572  51.855  1.00  0.00     0.017 P 
HETATM   13  H10 UNL     1      20.909   3.657  51.676  1.00  0.00     0.085 HD
HETATM   14  H11 UNL     1      21.882   5.629  50.839  1.00  0.00     0.085 HD
ENDBRANCH   9  10
ENDBRANCH   8   9
ENDBRANCH   4   8
ENDBRANCH   1   3
BRANCH   1  15
HETATM   15  C9  UNL     1      22.846  -0.787  53.533  1.00  0.00     0.114 A 
HETATM   16  C10 UNL     1      21.798  -0.345  52.813  1.00  0.00     0.022 A 
HETATM   17  C11 UNL     1      21.894   0.222  51.460  1.00  0.00     0.013 A 
HETATM   18  C15 UNL     1      20.512  -0.466  53.486  1.00  0.00     0.045 A 
HETATM   19  C12 UNL     1      20.767   0.629  50.843  1.00  0.00    -0.006 A 
HETATM   20  C13 UNL     1      19.453   0.527  51.476  1.00  0.00     0.105 A 
HETATM   21 BR1  UNL     1      18.679   2.324  51.480  1.00  0.00    -0.083 Br
HETATM   22  C14 UNL     1      19.447  -0.047  52.828  1.00  0.00     0.023 A 
HETATM   23  N2  UNL     1      20.810  -1.040  54.738  1.00  0.00    -0.321 N 
HETATM   24  C16 UNL     1      22.232  -1.244  54.784  1.00  0.00     0.273 A 
HETATM   25  H20 UNL     1      20.090  -1.253  55.452  1.00  0.00     0.169 HD
HETATM   26  O2  UNL     1      22.870  -1.731  55.727  1.00  0.00    -0.266 OA
ENDBRANCH   1  15
TORSDOF 6
ENDMDL
MODEL 5
REMARK VINA RESULT:      -6.8      3.564      6.024
REMARK  6 active torsions:
REMARK  status: ('A' for Active; 'I' for Inactive)
REMARK    1  A    between atoms: C2_2  and  C3_3 
REMARK    2  A    between atoms: C3_3  and  C4_4 
REMARK    3  A    between atoms: C4_4  and  C5_5 
REMARK    4  A    between atoms: C5_5  and  C6_6 
REMARK    5  A    between atoms: C7_9  and  N1_11 
REMARK    6  A    between atoms: N1_11  and  C9_12 
ROOT
HETATM    1  N1  UNL     1      24.157   2.678  53.135  1.00  0.00    -0.355 N 
HETATM    2  H15 UNL     1      24.877   3.093  53.762  1.00  0.00     0.166 HD
ENDROOT
BRANCH   1   3
HETATM    3  C7  UNL     1      23.357   1.508  53.026  1.00  0.00     0.008 C 
HETATM    4  C3  UNL     1      23.771   0.266  53.316  1.00  0.00    -0.058 C 
HETATM    5  C8  UNL     1      21.960   1.683  52.555  1.00  0.00     0.068 C 
BRANCH   4   6
HETATM    6  C2  UNL     1      22.828  -0.846  53.152  1.00  0.00     0.031 C 
HETATM    7  C1  UNL     1      22.310  -1.355  54.484  1.00  0.00     0.010 C 
ENDBRANCH   4   6
BRANCH   4   8
HETATM    8  C4  UNL     1      25.169   0.158  53.792  1.00  0.00     0.042 C 
BRANCH   8   9
HETATM    9  C5  UNL     1      26.142  -0.334  52.763  1.00  0.00     0.071 C 
BRANCH   9  10
HETATM   10  C6  UNL     1      27.535  -0.454  53.249  1.00  0.00     0.070 A 
HETATM   11  O1  UNL     1      27.620  -0.594  54.476  1.00  0.00    -0.332 OA
HETATM   12  P1  UNL     1      29.304  -0.587  53.706  1.00  0.00     0.017 P 
HETATM   13  H10 UNL     1      30.041   0.608  53.347  1.00  0.00     0.085 HD
HETATM   14  H11 UNL     1      29.919  -1.714  52.987  1.00  0.00     0.085 HD
ENDBRANCH   9  10
ENDBRANCH   8   9
ENDBRANCH   4   8
ENDBRANCH   1   3
BRANCH   1  15
HETATM   15  C9  UNL     1      24.063   3.706  52.157  1.00  0.00     0.114 A 
HETATM   16  C10 UNL     1      24.861   3.842  51.081  1.00  0.00     0.022 A 
HETATM   17  C11 UNL     1      25.970   2.938  50.744  1.00  0.00     0.013 A 
HETATM   18  C15 UNL     1      24.544   4.987  50.238  1.00  0.00     0.045 A 
HETATM   19  C12 UNL     1      26.696   3.182  49.635  1.00  0.00    -0.006 A 
HETATM   20  C13 UNL     1      26.416   4.317  48.757  1.00  0.00     0.105 A 
HETATM   21 BR1  UNL     1      28.068   5.358  48.622  1.00  0.00    -0.083 Br
HETATM   22  C14 UNL     1      25.293   5.171  49.168  1.00  0.00     0.023 A 
HETATM   23  N2  UNL     1      23.443   5.606  50.866  1.00  0.00    -0.321 N 
HETATM   24  C16 UNL     1      23.136   4.835  52.039  1.00  0.00     0.273 A 
HETATM   25  H20 UNL     1      22.984   6.458  50.497  1.00  0.00     0.169 HD
HETATM   26  O2  UNL     1      22.228   5.069  52.849  1.00  0.00    -0.266 OA
ENDBRANCH   1  15
TORSDOF 6
ENDMDL
MODEL 6
REMARK VINA RESULT:      -6.8      3.909      7.029
REMARK  6 active torsions:
REMARK  status: ('A' for Active; 'I' for Inactive)
REMARK    1  A    between atoms: C2_2  and  C3_3 
REMARK    2  A    between atoms: C3_3  and  C4_4 
REMARK    3  A    between atoms: C4_4  and  C5_5 
REMARK    4  A    between atoms: C5_5  and  C6_6 
REMARK    5  A    between atoms: C7_9  and  N1_11 
REMARK    6  A    between atoms: N1_11  and  C9_12 
ROOT
HETATM    1  N1  UNL     1      25.821   2.479  53.201  1.00  0.00    -0.355 N 
HETATM    2  H15 UNL     1      25.231   3.106  53.787  1.00  0.00     0.166 HD
ENDROOT
BRANCH   1   3
HETATM    3  C7  UNL     1      26.896   1.561  53.338  1.00  0.00     0.008 C 
HETATM    4  C3  UNL     1      26.764   0.228  53.402  1.00  0.00    -0.058 C 
HETATM    5  C8  UNL     1      28.267   2.128  53.417  1.00  0.00     0.068 C 
BRANCH   4   6
HETATM    6  C2  UNL     1      27.972  -0.593  53.546  1.00  0.00     0.031 C 
HETATM    7  C1  UNL     1      27.841  -1.930  52.842  1.00  0.00     0.010 C 
ENDBRANCH   4   6
BRANCH   4   8
HETATM    8  C4  UNL     1      25.376  -0.278  53.306  1.00  0.00     0.042 C 
BRANCH   8   9
HETATM    9  C5  UNL     1      24.776  -0.703  54.612  1.00  0.00     0.071 C 
BRANCH   9  10
HETATM   10  C6  UNL     1      23.316  -0.939  54.563  1.00  0.00     0.070 A 
HETATM   11  O1  UNL     1      22.884  -1.572  55.536  1.00  0.00    -0.332 OA
HETATM   12  P1  UNL     1      21.507  -1.156  54.370  1.00  0.00     0.017 P 
HETATM   13  H10 UNL     1      21.183  -1.910  53.175  1.00  0.00     0.085 HD
HETATM   14  H11 UNL     1      20.858   0.159  54.247  1.00  0.00     0.085 HD
ENDBRANCH   9  10
ENDBRANCH   8   9
ENDBRANCH   4   8
ENDBRANCH   1   3
BRANCH   1  15
HETATM   15  C9  UNL     1      25.254   2.736  51.922  1.00  0.00     0.114 A 
HETATM   16  C10 UNL     1      23.947   2.649  51.611  1.00  0.00     0.022 A 
HETATM   17  C11 UNL     1      22.887   2.268  52.554  1.00  0.00     0.013 A 
HETATM   18  C15 UNL     1      23.638   2.969  50.223  1.00  0.00     0.045 A 
HETATM   19  C12 UNL     1      21.612   2.219  52.118  1.00  0.00    -0.006 A 
HETATM   20  C13 UNL     1      21.251   2.532  50.736  1.00  0.00     0.105 A 
HETATM   21 BR1  UNL     1      20.296   0.978  50.028  1.00  0.00    -0.083 Br
HETATM   22  C14 UNL     1      22.371   2.901  49.859  1.00  0.00     0.023 A 
HETATM   23  N2  UNL     1      24.881   3.282  49.637  1.00  0.00    -0.321 N 
HETATM   24  C16 UNL     1      25.879   3.146  50.661  1.00  0.00     0.273 A 
HETATM   25  H20 UNL     1      24.988   3.554  48.643  1.00  0.00     0.169 HD
HETATM   26  O2  UNL     1      27.096   3.338  50.526  1.00  0.00    -0.266 OA
ENDBRANCH   1  15
TORSDOF 6
ENDMDL
MODEL 7
REMARK VINA RESULT:      -6.7      3.435      4.568
REMARK  6 active torsions:
REMARK  status: ('A' for Active; 'I' for Inactive)
REMARK    1  A    between atoms: C2_2  and  C3_3 
REMARK    2  A    between atoms: C3_3  and  C4_4 
REMARK    3  A    between atoms: C4_4  and  C5_5 
REMARK    4  A    between atoms: C5_5  and  C6_6 
REMARK    5  A    between atoms: C7_9  and  N1_11 
REMARK    6  A    between atoms: N1_11  and  C9_12 
ROOT
HETATM    1  N1  UNL     1      24.824   3.636  52.358  1.00  0.00    -0.355 N 
HETATM    2  H15 UNL     1      24.304   4.124  53.117  1.00  0.00     0.166 HD
ENDROOT
BRANCH   1   3
HETATM    3  C7  UNL     1      25.309   3.879  51.045  1.00  0.00     0.008 C 
HETATM    4  C3  UNL     1      25.047   4.978  50.321  1.00  0.00    -0.058 C 
HETATM    5  C8  UNL     1      26.169   2.834  50.434  1.00  0.00     0.068 C 
BRANCH   4   6
HETATM    6  C2  UNL     1      25.619   5.087  48.975  1.00  0.00     0.031 C 
HETATM    7  C1  UNL     1      26.591   6.246  48.860  1.00  0.00     0.010 C 
ENDBRANCH   4   6
BRANCH   4   8
HETATM    8  C4  UNL     1      24.195   5.989  50.989  1.00  0.00     0.042 C 
BRANCH   8   9
HETATM    9  C5  UNL     1      22.850   6.185  50.357  1.00  0.00     0.071 C 
BRANCH   9  10
HETATM   10  C6  UNL     1      21.810   5.247  50.835  1.00  0.00     0.070 A 
HETATM   11  O1  UNL     1      21.959   4.903  52.015  1.00  0.00    -0.332 OA
HETATM   12  P1  UNL     1      20.461   4.092  51.288  1.00  0.00     0.017 P 
HETATM   13  H10 UNL     1      20.486   2.895  50.473  1.00  0.00     0.085 HD
HETATM   14  H11 UNL     1      19.158   4.741  51.072  1.00  0.00     0.085 HD
ENDBRANCH   9  10
ENDBRANCH   8   9
ENDBRANCH   4   8
ENDBRANCH   1   3
BRANCH   1  15
HETATM   15  C9  UNL     1      25.033   2.374  52.979  1.00  0.00     0.114 A 
HETATM   16  C10 UNL     1      24.178   1.334  52.951  1.00  0.00     0.022 A 
HETATM   17  C11 UNL     1      22.876   1.341  52.268  1.00  0.00     0.013 A 
HETATM   18  C15 UNL     1      24.641   0.155  53.670  1.00  0.00     0.045 A 
HETATM   19  C12 UNL     1      22.110   0.233  52.314  1.00  0.00    -0.006 A 
HETATM   20  C13 UNL     1      22.532  -0.975  53.021  1.00  0.00     0.105 A 
HETATM   21 BR1  UNL     1      21.129  -1.398  54.317  1.00  0.00    -0.083 Br
HETATM   22  C14 UNL     1      23.843  -0.896  53.678  1.00  0.00     0.023 A 
HETATM   23  N2  UNL     1      25.903   0.516  54.184  1.00  0.00    -0.321 N 
HETATM   24  C16 UNL     1      26.159   1.869  53.770  1.00  0.00     0.273 A 
HETATM   25  H20 UNL     1      26.491  -0.123  54.748  1.00  0.00     0.169 HD
HETATM   26  O2  UNL     1      27.172   2.533  54.030  1.00  0.00    -0.266 OA
ENDBRANCH   1  15
TORSDOF 6
ENDMDL
MODEL 8
REMARK VINA RESULT:      -6.7      3.646      6.629
REMARK  6 active torsions:
REMARK  status: ('A' for Active; 'I' for Inactive)
REMARK    1  A    between atoms: C2_2  and  C3_3 
REMARK    2  A    between atoms: C3_3  and  C4_4 
REMARK    3  A    between atoms: C4_4  and  C5_5 
REMARK    4  A    between atoms: C5_5  and  C6_6 
REMARK    5  A    between atoms: C7_9  and  N1_11 
REMARK    6  A    between atoms: N1_11  and  C9_12 
ROOT
HETATM    1  N1  UNL     1      26.419   1.727  51.371  1.00  0.00    -0.355 N 
HETATM    2  H15 UNL     1      26.171   1.303  50.452  1.00  0.00     0.166 HD
ENDROOT
BRANCH   1   3
HETATM    3  C7  UNL     1      27.215   1.448  52.514  1.00  0.00     0.008 C 
HETATM    4  C3  UNL     1      27.081   0.368  53.298  1.00  0.00    -0.058 C 
HETATM    5  C8  UNL     1      28.271   2.432  52.863  1.00  0.00     0.068 C 
BRANCH   4   6
HETATM    6  C2  UNL     1      27.979   0.217  54.448  1.00  0.00     0.031 C 
HETATM    7  C1  UNL     1      29.188  -0.638  54.120  1.00  0.00     0.010 C 
ENDBRANCH   4   6
BRANCH   4   8
HETATM    8  C4  UNL     1      26.020  -0.583  52.892  1.00  0.00     0.042 C 
BRANCH   8   9
HETATM    9  C5  UNL     1      24.991  -0.854  53.948  1.00  0.00     0.071 C 
BRANCH   9  10
HETATM   10  C6  UNL     1      23.596  -0.616  53.513  1.00  0.00     0.070 A 
HETATM   11  O1  UNL     1      22.781  -0.614  54.445  1.00  0.00    -0.332 OA
HETATM   12  P1  UNL     1      21.922  -0.314  52.832  1.00  0.00     0.017 P 
HETATM   13  H10 UNL     1      21.527  -1.353  51.903  1.00  0.00     0.085 HD
HETATM   14  H11 UNL     1      21.908   0.960  52.095  1.00  0.00     0.085 HD
ENDBRANCH   9  10
ENDBRANCH   8   9
ENDBRANCH   4   8
ENDBRANCH   1   3
BRANCH   1  15
HETATM   15  C9  UNL     1      25.658   2.926  51.300  1.00  0.00     0.114 A 
HETATM   16  C10 UNL     1      25.870   3.941  50.442  1.00  0.00     0.022 A 
HETATM   17  C11 UNL     1      26.936   3.972  49.431  1.00  0.00     0.013 A 
HETATM   18  C15 UNL     1      24.939   5.053  50.584  1.00  0.00     0.045 A 
HETATM   19  C12 UNL     1      27.042   5.050  48.628  1.00  0.00    -0.006 A 
HETATM   20  C13 UNL     1      26.132   6.189  48.731  1.00  0.00     0.105 A 
HETATM   21 BR1  UNL     1      27.235   7.779  49.016  1.00  0.00    -0.083 Br
HETATM   22  C14 UNL     1      25.098   6.078  49.768  1.00  0.00     0.023 A 
HETATM   23  N2  UNL     1      24.076   4.672  51.632  1.00  0.00    -0.321 N 
HETATM   24  C16 UNL     1      24.501   3.374  52.081  1.00  0.00     0.273 A 
HETATM   25  H20 UNL     1      23.297   5.264  51.970  1.00  0.00     0.169 HD
HETATM   26  O2  UNL     1      23.985   2.711  52.991  1.00  0.00    -0.266 OA
ENDBRANCH   1  15
TORSDOF 6
ENDMDL
MODEL 9
REMARK VINA RESULT:      -6.7      4.237      5.274
REMARK  6 active torsions:
REMARK  status: ('A' for Active; 'I' for Inactive)
REMARK    1  A    between atoms: C2_2  and  C3_3 
REMARK    2  A    between atoms: C3_3  and  C4_4 
REMARK    3  A    between atoms: C4_4  and  C5_5 
REMARK    4  A    between atoms: C5_5  and  C6_6 
REMARK    5  A    between atoms: C7_9  and  N1_11 
REMARK    6  A    between atoms: N1_11  and  C9_12 
ROOT
HETATM    1  N1  UNL     1      23.736   1.044  51.943  1.00  0.00    -0.355 N 
HETATM    2  H15 UNL     1      24.099   0.488  51.140  1.00  0.00     0.166 HD
ENDROOT
BRANCH   1   3
HETATM    3  C7  UNL     1      22.849   2.123  52.201  1.00  0.00     0.008 C 
HETATM    4  C3  UNL     1      21.517   2.077  52.044  1.00  0.00    -0.058 C 
HETATM    5  C8  UNL     1      23.447   3.395  52.680  1.00  0.00     0.068 C 
BRANCH   4   6
HETATM    6  C2  UNL     1      20.730   3.276  52.351  1.00  0.00     0.031 C 
HETATM    7  C1  UNL     1      20.407   4.081  51.107  1.00  0.00     0.010 C 
ENDBRANCH   4   6
BRANCH   4   8
HETATM    8  C4  UNL     1      20.979   0.779  51.576  1.00  0.00     0.042 C 
BRANCH   8   9
HETATM    9  C5  UNL     1      19.489   0.747  51.408  1.00  0.00     0.071 C 
BRANCH   9  10
HETATM   10  C6  UNL     1      18.800  -0.240  52.268  1.00  0.00     0.070 A 
HETATM   11  O1  UNL     1      19.405  -0.488  53.320  1.00  0.00    -0.332 OA
HETATM   12  P1  UNL     1      17.837  -1.470  53.227  1.00  0.00     0.017 P 
HETATM   13  H10 UNL     1      17.687  -2.715  52.501  1.00  0.00     0.085 HD
HETATM   14  H11 UNL     1      16.486  -0.949  53.488  1.00  0.00     0.085 HD
ENDBRANCH   9  10
ENDBRANCH   8   9
ENDBRANCH   4   8
ENDBRANCH   1   3
BRANCH   1  15
HETATM   15  C9  UNL     1      24.429   0.412  53.011  1.00  0.00     0.114 A 
HETATM   16  C10 UNL     1      25.726   0.596  53.323  1.00  0.00     0.022 A 
HETATM   17  C11 UNL     1      26.642   1.488  52.598  1.00  0.00     0.013 A 
HETATM   18  C15 UNL     1      26.184  -0.178  54.470  1.00  0.00     0.045 A 
HETATM   19  C12 UNL     1      27.921   1.585  53.012  1.00  0.00    -0.006 A 
HETATM   20  C13 UNL     1      28.427   0.831  54.158  1.00  0.00     0.105 A 
HETATM   21 BR1  UNL     1      29.962  -0.206  53.527  1.00  0.00    -0.083 Br
HETATM   22  C14 UNL     1      27.448  -0.038  54.823  1.00  0.00     0.023 A 
HETATM   23  N2  UNL     1      25.051  -0.900  54.896  1.00  0.00    -0.321 N 
HETATM   24  C16 UNL     1      23.969  -0.551  54.016  1.00  0.00     0.273 A 
HETATM   25  H20 UNL     1      25.061  -1.548  55.704  1.00  0.00     0.169 HD
HETATM   26  O2  UNL     1      22.810  -0.985  54.074  1.00  0.00    -0.266 OA
ENDBRANCH   1  15
TORSDOF 6
ENDMDL
