MODEL 1
REMARK VINA RESULT:      -7.5      0.000      0.000
REMARK  6 active torsions:
REMARK  status: ('A' for Active; 'I' for Inactive)
REMARK    1  A    between atoms: C2_2  and  C3_3 
REMARK    2  A    between atoms: C3_3  and  N1_4 
REMARK    3  A    between atoms: C4_5  and  C5_6 
REMARK    4  A    between atoms: C5_6  and  C6_7 
REMARK    5  A    between atoms: N3_10  and  C8_11 
REMARK    6  A    between atoms: C10_13  and  N4_14 
ROOT
HETATM    1  C6  UNL     1      24.092   1.826  51.810  1.00  0.00     0.032 C 
HETATM    2  N2  UNL     1      24.262   1.694  53.093  1.00  0.00    -0.275 NA
HETATM    3  C7  UNL     1      25.578   1.993  53.620  1.00  0.00     0.297 C 
HETATM    4  N3  UNL     1      26.612   1.415  52.780  1.00  0.00    -0.276 N 
HETATM    5  N5  UNL     1      26.506   1.656  51.426  1.00  0.00    -0.327 N 
HETATM    6  C15 UNL     1      25.273   2.271  51.042  1.00  0.00     0.194 C 
HETATM    7  H21 UNL     1      26.870   0.925  50.801  1.00  0.00     0.180 HD
ENDROOT
BRANCH   4   8
HETATM    8  C8  UNL     1      27.758   0.617  53.107  1.00  0.00     0.060 A 
HETATM    9  C9  UNL     1      27.542  -0.750  52.922  1.00  0.00     0.060 A 
HETATM   10  C10 UNL     1      28.511  -1.704  53.176  1.00  0.00     0.028 A 
HETATM   11  C11 UNL     1      29.752  -1.252  53.638  1.00  0.00     0.029 A 
HETATM   12  C12 UNL     1      29.960   0.087  53.819  1.00  0.00     0.011 A 
HETATM   13  C13 UNL     1      28.991   1.037  53.565  1.00  0.00    -0.034 A 
HETATM   14  C14 UNL     1      29.121   2.496  53.728  1.00  0.00     0.050 C 
BRANCH  10  15
HETATM   15  N4  UNL     1      28.262  -3.095  52.977  1.00  0.00    -0.399 N 
HETATM   16  H14 UNL     1      28.919  -3.912  53.120  1.00  0.00     0.156 HD
HETATM   17  H15 UNL     1      27.268  -3.183  52.647  1.00  0.00     0.156 HD
ENDBRANCH  10  15
ENDBRANCH   4   8
BRANCH   1  18
HETATM   18  C5  UNL     1      22.794   1.547  51.188  1.00  0.00     0.102 C 
BRANCH  18  19
HETATM   19  C4  UNL     1      21.747   1.057  52.106  1.00  0.00     0.089 C 
HETATM   20  N1  UNL     1      21.534  -0.147  52.486  1.00  0.00    -0.305 NA
BRANCH  20  21
HETATM   21  C3  UNL     1      20.468  -0.472  53.390  1.00  0.00     0.147 C 
BRANCH  21  22
HETATM   22  C2  UNL     1      20.975  -1.547  54.326  1.00  0.00     0.017 C 
HETATM   23  C1  UNL     1      22.287  -1.133  54.980  1.00  0.00     0.007 C 
ENDBRANCH  21  22
ENDBRANCH  20  21
ENDBRANCH  18  19
ENDBRANCH   1  18
TORSDOF 6
ENDMDL
MODEL 2
REMARK VINA RESULT:      -7.1      2.722      4.091
REMARK  6 active torsions:
REMARK  status: ('A' for Active; 'I' for Inactive)
REMARK    1  A    between atoms: C2_2  and  C3_3 
REMARK    2  A    between atoms: C3_3  and  N1_4 
REMARK    3  A    between atoms: C4_5  and  C5_6 
REMARK    4  A    between atoms: C5_6  and  C6_7 
REMARK    5  A    between atoms: N3_10  and  C8_11 
REMARK    6  A    between atoms: C10_13  and  N4_14 
ROOT
HETATM    1  C6  UNL     1      24.374   2.927  52.529  1.00  0.00     0.032 C 
HETATM    2  N2  UNL     1      25.326   2.998  51.645  1.00  0.00    -0.275 NA
HETATM    3  C7  UNL     1      26.011   1.767  51.310  1.00  0.00     0.297 C 
HETATM    4  N3  UNL     1      26.314   1.003  52.508  1.00  0.00    -0.276 N 
HETATM    5  N5  UNL     1      25.273   0.817  53.393  1.00  0.00    -0.327 N 
HETATM    6  C15 UNL     1      24.106   1.585  53.085  1.00  0.00     0.194 C 
HETATM    7  H21 UNL     1      25.525   0.743  54.387  1.00  0.00     0.180 HD
ENDROOT
BRANCH   4   8
HETATM    8  C8  UNL     1      27.530   0.388  52.954  1.00  0.00     0.060 A 
HETATM    9  C9  UNL     1      27.508  -1.004  52.848  1.00  0.00     0.060 A 
HETATM   10  C10 UNL     1      28.576  -1.801  53.221  1.00  0.00     0.028 A 
HETATM   11  C11 UNL     1      29.713  -1.159  53.723  1.00  0.00     0.029 A 
HETATM   12  C12 UNL     1      29.730   0.204  53.826  1.00  0.00     0.011 A 
HETATM   13  C13 UNL     1      28.664   0.998  53.453  1.00  0.00    -0.034 A 
HETATM   14  C14 UNL     1      28.590   2.468  53.525  1.00  0.00     0.050 C 
BRANCH  10  15
HETATM   15  N4  UNL     1      28.526  -3.222  53.101  1.00  0.00    -0.399 N 
HETATM   16  H14 UNL     1      28.189  -3.934  53.808  1.00  0.00     0.156 HD
HETATM   17  H15 UNL     1      28.897  -3.462  52.148  1.00  0.00     0.156 HD
ENDBRANCH  10  15
ENDBRANCH   4   8
BRANCH   1  18
HETATM   18  C5  UNL     1      23.625   4.121  52.930  1.00  0.00     0.102 C 
BRANCH  18  19
HETATM   19  C4  UNL     1      23.015   4.885  51.823  1.00  0.00     0.089 C 
HETATM   20  N1  UNL     1      21.782   5.187  51.662  1.00  0.00    -0.305 NA
BRANCH  20  21
HETATM   21  C3  UNL     1      21.335   5.941  50.525  1.00  0.00     0.147 C 
BRANCH  21  22
HETATM   22  C2  UNL     1      21.576   7.404  50.824  1.00  0.00     0.017 C 
HETATM   23  C1  UNL     1      22.538   8.020  49.817  1.00  0.00     0.007 C 
ENDBRANCH  21  22
ENDBRANCH  20  21
ENDBRANCH  18  19
ENDBRANCH   1  18
TORSDOF 6
ENDMDL
MODEL 3
REMARK VINA RESULT:      -7.1      2.519      4.546
REMARK  6 active torsions:
REMARK  status: ('A' for Active; 'I' for Inactive)
REMARK    1  A    between atoms: C2_2  and  C3_3 
REMARK    2  A    between atoms: C3_3  and  N1_4 
REMARK    3  A    between atoms: C4_5  and  C5_6 
REMARK    4  A    between atoms: C5_6  and  C6_7 
REMARK    5  A    between atoms: N3_10  and  C8_11 
REMARK    6  A    between atoms: C10_13  and  N4_14 
ROOT
HETATM    1  C6  UNL     1      24.376   2.868  52.395  1.00  0.00     0.032 C 
HETATM    2  N2  UNL     1      25.301   2.851  51.479  1.00  0.00    -0.275 NA
HETATM    3  C7  UNL     1      25.962   1.587  51.232  1.00  0.00     0.297 C 
HETATM    4  N3  UNL     1      26.295   0.926  52.482  1.00  0.00    -0.276 N 
HETATM    5  N5  UNL     1      25.281   0.831  53.412  1.00  0.00    -0.327 N 
HETATM    6  C15 UNL     1      24.112   1.584  53.074  1.00  0.00     0.194 C 
HETATM    7  H21 UNL     1      25.563   0.840  54.400  1.00  0.00     0.180 HD
ENDROOT
BRANCH   4   8
HETATM    8  C8  UNL     1      27.518   0.337  52.942  1.00  0.00     0.060 A 
HETATM    9  C9  UNL     1      27.526  -1.055  52.838  1.00  0.00     0.060 A 
HETATM   10  C10 UNL     1      28.606  -1.830  53.224  1.00  0.00     0.028 A 
HETATM   11  C11 UNL     1      29.724  -1.164  53.738  1.00  0.00     0.029 A 
HETATM   12  C12 UNL     1      29.712   0.199  53.839  1.00  0.00     0.011 A 
HETATM   13  C13 UNL     1      28.634   0.970  53.454  1.00  0.00    -0.034 A 
HETATM   14  C14 UNL     1      28.529   2.439  53.523  1.00  0.00     0.050 C 
BRANCH  10  15
HETATM   15  N4  UNL     1      28.586  -3.253  53.106  1.00  0.00    -0.399 N 
HETATM   16  H14 UNL     1      29.186  -3.873  52.495  1.00  0.00     0.156 HD
HETATM   17  H15 UNL     1      27.839  -3.603  53.757  1.00  0.00     0.156 HD
ENDBRANCH  10  15
ENDBRANCH   4   8
BRANCH   1  18
HETATM   18  C5  UNL     1      23.652   4.103  52.713  1.00  0.00     0.102 C 
BRANCH  18  19
HETATM   19  C4  UNL     1      23.669   5.135  51.657  1.00  0.00     0.089 C 
HETATM   20  N1  UNL     1      24.219   6.290  51.695  1.00  0.00    -0.305 NA
BRANCH  20  21
HETATM   21  C3  UNL     1      24.151   7.192  50.582  1.00  0.00     0.147 C 
BRANCH  21  22
HETATM   22  C2  UNL     1      25.564   7.420  50.091  1.00  0.00     0.017 C 
HETATM   23  C1  UNL     1      25.890   6.511  48.913  1.00  0.00     0.007 C 
ENDBRANCH  21  22
ENDBRANCH  20  21
ENDBRANCH  18  19
ENDBRANCH   1  18
TORSDOF 6
ENDMDL
MODEL 4
REMARK VINA RESULT:      -6.7      1.996      3.446
REMARK  6 active torsions:
REMARK  status: ('A' for Active; 'I' for Inactive)
REMARK    1  A    between atoms: C2_2  and  C3_3 
REMARK    2  A    between atoms: C3_3  and  N1_4 
REMARK    3  A    between atoms: C4_5  and  C5_6 
REMARK    4  A    between atoms: C5_6  and  C6_7 
REMARK    5  A    between atoms: N3_10  and  C8_11 
REMARK    6  A    between atoms: C10_13  and  N4_14 
ROOT
HETATM    1  C6  UNL     1      23.794   1.391  51.756  1.00  0.00     0.032 C 
HETATM    2  N2  UNL     1      23.905   1.006  52.994  1.00  0.00    -0.275 NA
HETATM    3  C7  UNL     1      25.122   1.366  53.691  1.00  0.00     0.297 C 
HETATM    4  N3  UNL     1      26.284   1.139  52.849  1.00  0.00    -0.276 N 
HETATM    5  N5  UNL     1      26.223   1.654  51.571  1.00  0.00    -0.327 N 
HETATM    6  C15 UNL     1      24.933   2.156  51.209  1.00  0.00     0.194 C 
HETATM    7  H21 UNL     1      26.735   1.137  50.845  1.00  0.00     0.180 HD
ENDROOT
BRANCH   4   8
HETATM    8  C8  UNL     1      27.520   0.460  53.109  1.00  0.00     0.060 A 
HETATM    9  C9  UNL     1      27.422  -0.925  52.964  1.00  0.00     0.060 A 
HETATM   10  C10 UNL     1      28.493  -1.778  53.166  1.00  0.00     0.028 A 
HETATM   11  C11 UNL     1      29.714  -1.201  53.532  1.00  0.00     0.029 A 
HETATM   12  C12 UNL     1      29.805   0.156  53.674  1.00  0.00     0.011 A 
HETATM   13  C13 UNL     1      28.736   1.004  53.472  1.00  0.00    -0.034 A 
HETATM   14  C14 UNL     1      28.738   2.473  53.600  1.00  0.00     0.050 C 
BRANCH  10  15
HETATM   15  N4  UNL     1      28.364  -3.191  53.009  1.00  0.00    -0.399 N 
HETATM   16  H14 UNL     1      28.870  -3.962  53.527  1.00  0.00     0.156 HD
HETATM   17  H15 UNL     1      27.648  -3.351  52.256  1.00  0.00     0.156 HD
ENDBRANCH  10  15
ENDBRANCH   4   8
BRANCH   1  18
HETATM   18  C5  UNL     1      22.597   1.073  50.971  1.00  0.00     0.102 C 
BRANCH  18  19
HETATM   19  C4  UNL     1      22.196   2.098  49.987  1.00  0.00     0.089 C 
HETATM   20  N1  UNL     1      22.471   2.140  48.738  1.00  0.00    -0.305 NA
BRANCH  20  21
HETATM   21  C3  UNL     1      22.008   3.209  47.901  1.00  0.00     0.147 C 
BRANCH  21  22
HETATM   22  C2  UNL     1      22.966   4.368  48.069  1.00  0.00     0.017 C 
HETATM   23  C1  UNL     1      22.267   5.575  48.682  1.00  0.00     0.007 C 
ENDBRANCH  21  22
ENDBRANCH  20  21
ENDBRANCH  18  19
ENDBRANCH   1  18
TORSDOF 6
ENDMDL
MODEL 5
REMARK VINA RESULT:      -6.7      1.887      3.740
REMARK  6 active torsions:
REMARK  status: ('A' for Active; 'I' for Inactive)
REMARK    1  A    between atoms: C2_2  and  C3_3 
REMARK    2  A    between atoms: C3_3  and  N1_4 
REMARK    3  A    between atoms: C4_5  and  C5_6 
REMARK    4  A    between atoms: C5_6  and  C6_7 
REMARK    5  A    between atoms: N3_10  and  C8_11 
REMARK    6  A    between atoms: C10_13  and  N4_14 
ROOT
HETATM    1  C6  UNL     1      22.967   0.182  52.808  1.00  0.00     0.032 C 
HETATM    2  N2  UNL     1      23.390  -0.842  53.492  1.00  0.00    -0.275 NA
HETATM    3  C7  UNL     1      24.501  -0.621  54.394  1.00  0.00     0.297 C 
HETATM    4  N3  UNL     1      25.529   0.184  53.758  1.00  0.00    -0.276 N 
HETATM    5  N5  UNL     1      25.103   1.339  53.135  1.00  0.00    -0.327 N 
HETATM    6  C15 UNL     1      23.680   1.455  53.040  1.00  0.00     0.194 C 
HETATM    7  H21 UNL     1      25.645   1.644  52.317  1.00  0.00     0.180 HD
ENDROOT
BRANCH   4   8
HETATM    8  C8  UNL     1      26.946  -0.004  53.655  1.00  0.00     0.060 A 
HETATM    9  C9  UNL     1      27.678   1.054  54.196  1.00  0.00     0.060 A 
HETATM   10  C10 UNL     1      29.062   1.082  54.205  1.00  0.00     0.028 A 
HETATM   11  C11 UNL     1      29.730  -0.009  53.640  1.00  0.00     0.029 A 
HETATM   12  C12 UNL     1      29.010  -1.043  53.110  1.00  0.00     0.011 A 
HETATM   13  C13 UNL     1      27.630  -1.069  53.103  1.00  0.00    -0.034 A 
HETATM   14  C14 UNL     1      26.771  -2.135  52.558  1.00  0.00     0.050 C 
BRANCH  10  15
HETATM   15  N4  UNL     1      29.784   2.179  54.766  1.00  0.00    -0.399 N 
HETATM   16  H14 UNL     1      30.194   3.021  54.275  1.00  0.00     0.156 HD
HETATM   17  H15 UNL     1      29.847   2.006  55.801  1.00  0.00     0.156 HD
ENDBRANCH  10  15
ENDBRANCH   4   8
BRANCH   1  18
HETATM   18  C5  UNL     1      21.847   0.053  51.871  1.00  0.00     0.102 C 
BRANCH  18  19
HETATM   19  C4  UNL     1      21.636   1.210  50.978  1.00  0.00     0.089 C 
HETATM   20  N1  UNL     1      22.393   1.622  50.032  1.00  0.00    -0.305 NA
BRANCH  20  21
HETATM   21  C3  UNL     1      22.053   2.771  49.243  1.00  0.00     0.147 C 
BRANCH  21  22
HETATM   22  C2  UNL     1      23.345   3.443  48.834  1.00  0.00     0.017 C 
HETATM   23  C1  UNL     1      24.463   3.133  49.821  1.00  0.00     0.007 C 
ENDBRANCH  21  22
ENDBRANCH  20  21
ENDBRANCH  18  19
ENDBRANCH   1  18
TORSDOF 6
ENDMDL
MODEL 6
REMARK VINA RESULT:      -6.7      3.227      5.705
REMARK  6 active torsions:
REMARK  status: ('A' for Active; 'I' for Inactive)
REMARK    1  A    between atoms: C2_2  and  C3_3 
REMARK    2  A    between atoms: C3_3  and  N1_4 
REMARK    3  A    between atoms: C4_5  and  C5_6 
REMARK    4  A    between atoms: C5_6  and  C6_7 
REMARK    5  A    between atoms: N3_10  and  C8_11 
REMARK    6  A    between atoms: C10_13  and  N4_14 
ROOT
HETATM    1  C6  UNL     1      23.331   5.047  51.466  1.00  0.00     0.032 C 
HETATM    2  N2  UNL     1      23.077   3.998  50.740  1.00  0.00    -0.275 NA
HETATM    3  C7  UNL     1      23.029   2.720  51.420  1.00  0.00     0.297 C 
HETATM    4  N3  UNL     1      24.133   2.592  52.356  1.00  0.00    -0.276 N 
HETATM    5  N5  UNL     1      24.331   3.652  53.215  1.00  0.00    -0.327 N 
HETATM    6  C15 UNL     1      23.539   4.804  52.908  1.00  0.00     0.194 C 
HETATM    7  H21 UNL     1      25.300   3.827  53.511  1.00  0.00     0.180 HD
ENDROOT
BRANCH   4   8
HETATM    8  C8  UNL     1      25.082   1.537  52.558  1.00  0.00     0.060 A 
HETATM    9  C9  UNL     1      24.739   0.690  53.614  1.00  0.00     0.060 A 
HETATM   10  C10 UNL     1      25.513  -0.396  53.986  1.00  0.00     0.028 A 
HETATM   11  C11 UNL     1      26.683  -0.631  53.257  1.00  0.00     0.029 A 
HETATM   12  C12 UNL     1      27.016   0.201  52.224  1.00  0.00     0.011 A 
HETATM   13  C13 UNL     1      26.243   1.283  51.855  1.00  0.00    -0.034 A 
HETATM   14  C14 UNL     1      26.518   2.232  50.761  1.00  0.00     0.050 C 
BRANCH  10  15
HETATM   15  N4  UNL     1      25.137  -1.245  55.070  1.00  0.00    -0.399 N 
HETATM   16  H14 UNL     1      24.473  -1.044  55.868  1.00  0.00     0.156 HD
HETATM   17  H15 UNL     1      25.654  -2.151  54.942  1.00  0.00     0.156 HD
ENDBRANCH  10  15
ENDBRANCH   4   8
BRANCH   1  18
HETATM   18  C5  UNL     1      23.399   6.383  50.865  1.00  0.00     0.102 C 
BRANCH  18  19
HETATM   19  C4  UNL     1      24.457   6.566  49.852  1.00  0.00     0.089 C 
HETATM   20  N1  UNL     1      25.690   6.234  49.935  1.00  0.00    -0.305 NA
BRANCH  20  21
HETATM   21  C3  UNL     1      26.608   6.478  48.859  1.00  0.00     0.147 C 
BRANCH  21  22
HETATM   22  C2  UNL     1      27.380   5.200  48.619  1.00  0.00     0.017 C 
HETATM   23  C1  UNL     1      28.841   5.492  48.300  1.00  0.00     0.007 C 
ENDBRANCH  21  22
ENDBRANCH  20  21
ENDBRANCH  18  19
ENDBRANCH   1  18
TORSDOF 6
ENDMDL
MODEL 7
REMARK VINA RESULT:      -6.6      1.638      2.545
REMARK  6 active torsions:
REMARK  status: ('A' for Active; 'I' for Inactive)
REMARK    1  A    between atoms: C2_2  and  C3_3 
REMARK    2  A    between atoms: C3_3  and  N1_4 
REMARK    3  A    between atoms: C4_5  and  C5_6 
REMARK    4  A    between atoms: C5_6  and  C6_7 
REMARK    5  A    between atoms: N3_10  and  C8_11 
REMARK    6  A    between atoms: C10_13  and  N4_14 
ROOT
HETATM    1  C6  UNL     1      23.226   1.139  51.965  1.00  0.00     0.032 C 
HETATM    2  N2  UNL     1      23.411  -0.033  52.500  1.00  0.00    -0.275 NA
HETATM    3  C7  UNL     1      24.346  -0.117  53.602  1.00  0.00     0.297 C 
HETATM    4  N3  UNL     1      25.548   0.647  53.316  1.00  0.00    -0.276 N 
HETATM    5  N5  UNL     1      25.361   1.937  52.866  1.00  0.00    -0.327 N 
HETATM    6  C15 UNL     1      24.000   2.250  52.556  1.00  0.00     0.194 C 
HETATM    7  H21 UNL     1      26.075   2.307  52.225  1.00  0.00     0.180 HD
ENDROOT
BRANCH   4   8
HETATM    8  C8  UNL     1      26.935   0.298  53.420  1.00  0.00     0.060 A 
HETATM    9  C9  UNL     1      27.714   1.316  53.974  1.00  0.00     0.060 A 
HETATM   10  C10 UNL     1      29.079   1.195  54.167  1.00  0.00     0.028 A 
HETATM   11  C11 UNL     1      29.679  -0.008  53.780  1.00  0.00     0.029 A 
HETATM   12  C12 UNL     1      28.913  -1.002  53.237  1.00  0.00     0.011 A 
HETATM   13  C13 UNL     1      27.552  -0.879  53.046  1.00  0.00    -0.034 A 
HETATM   14  C14 UNL     1      26.647  -1.891  52.472  1.00  0.00     0.050 C 
BRANCH  10  15
HETATM   15  N4  UNL     1      29.850   2.253  54.737  1.00  0.00    -0.399 N 
HETATM   16  H14 UNL     1      30.877   2.260  54.990  1.00  0.00     0.156 HD
HETATM   17  H15 UNL     1      29.199   3.067  54.872  1.00  0.00     0.156 HD
ENDBRANCH  10  15
ENDBRANCH   4   8
BRANCH   1  18
HETATM   18  C5  UNL     1      22.297   1.320  50.845  1.00  0.00     0.102 C 
BRANCH  18  19
HETATM   19  C4  UNL     1      21.013   0.601  50.968  1.00  0.00     0.089 C 
HETATM   20  N1  UNL     1      20.185   0.631  51.943  1.00  0.00    -0.305 NA
BRANCH  20  21
HETATM   21  C3  UNL     1      18.968  -0.129  51.919  1.00  0.00     0.147 C 
BRANCH  21  22
HETATM   22  C2  UNL     1      18.845  -0.837  53.249  1.00  0.00     0.017 C 
HETATM   23  C1  UNL     1      20.216  -1.117  53.852  1.00  0.00     0.007 C 
ENDBRANCH  21  22
ENDBRANCH  20  21
ENDBRANCH  18  19
ENDBRANCH   1  18
TORSDOF 6
ENDMDL
MODEL 8
REMARK VINA RESULT:      -6.5      3.296      5.985
REMARK  6 active torsions:
REMARK  status: ('A' for Active; 'I' for Inactive)
REMARK    1  A    between atoms: C2_2  and  C3_3 
REMARK    2  A    between atoms: C3_3  and  N1_4 
REMARK    3  A    between atoms: C4_5  and  C5_6 
REMARK    4  A    between atoms: C5_6  and  C6_7 
REMARK    5  A    between atoms: N3_10  and  C8_11 
REMARK    6  A    between atoms: C10_13  and  N4_14 
ROOT
HETATM    1  C6  UNL     1      24.105   4.669  51.237  1.00  0.00     0.032 C 
HETATM    2  N2  UNL     1      24.433   3.607  50.561  1.00  0.00    -0.275 NA
HETATM    3  C7  UNL     1      24.307   2.331  51.233  1.00  0.00     0.297 C 
HETATM    4  N3  UNL     1      24.829   2.407  52.586  1.00  0.00    -0.276 N 
HETATM    5  N5  UNL     1      24.388   3.466  53.353  1.00  0.00    -0.327 N 
HETATM    6  C15 UNL     1      23.639   4.439  52.620  1.00  0.00     0.194 C 
HETATM    7  H21 UNL     1      25.045   3.826  54.057  1.00  0.00     0.180 HD
ENDROOT
BRANCH   4   8
HETATM    8  C8  UNL     1      25.746   1.562  53.294  1.00  0.00     0.060 A 
HETATM    9  C9  UNL     1      27.007   2.138  53.456  1.00  0.00     0.060 A 
HETATM   10  C10 UNL     1      28.045   1.498  54.110  1.00  0.00     0.028 A 
HETATM   11  C11 UNL     1      27.794   0.220  54.620  1.00  0.00     0.029 A 
HETATM   12  C12 UNL     1      26.558  -0.341  54.459  1.00  0.00     0.011 A 
HETATM   13  C13 UNL     1      25.523   0.299  53.807  1.00  0.00    -0.034 A 
HETATM   14  C14 UNL     1      24.162  -0.223  53.585  1.00  0.00     0.050 C 
BRANCH  10  15
HETATM   15  N4  UNL     1      29.325   2.113  54.260  1.00  0.00    -0.399 N 
HETATM   16  H14 UNL     1      30.284   1.679  54.151  1.00  0.00     0.156 HD
HETATM   17  H15 UNL     1      29.154   3.119  54.512  1.00  0.00     0.156 HD
ENDBRANCH  10  15
ENDBRANCH   4   8
BRANCH   1  18
HETATM   18  C5  UNL     1      24.199   6.004  50.638  1.00  0.00     0.102 C 
BRANCH  18  19
HETATM   19  C4  UNL     1      25.469   6.297  49.946  1.00  0.00     0.089 C 
HETATM   20  N1  UNL     1      25.642   6.600  48.714  1.00  0.00    -0.305 NA
BRANCH  20  21
HETATM   21  C3  UNL     1      26.949   6.860  48.180  1.00  0.00     0.147 C 
BRANCH  21  22
HETATM   22  C2  UNL     1      27.796   5.632  48.428  1.00  0.00     0.017 C 
HETATM   23  C1  UNL     1      29.255   5.890  48.074  1.00  0.00     0.007 C 
ENDBRANCH  21  22
ENDBRANCH  20  21
ENDBRANCH  18  19
ENDBRANCH   1  18
TORSDOF 6
ENDMDL
MODEL 9
REMARK VINA RESULT:      -6.4      2.066      7.576
REMARK  6 active torsions:
REMARK  status: ('A' for Active; 'I' for Inactive)
REMARK    1  A    between atoms: C2_2  and  C3_3 
REMARK    2  A    between atoms: C3_3  and  N1_4 
REMARK    3  A    between atoms: C4_5  and  C5_6 
REMARK    4  A    between atoms: C5_6  and  C6_7 
REMARK    5  A    between atoms: N3_10  and  C8_11 
REMARK    6  A    between atoms: C10_13  and  N4_14 
ROOT
HETATM    1  C6  UNL     1      24.038   2.306  52.620  1.00  0.00     0.032 C 
HETATM    2  N2  UNL     1      23.994   1.201  51.935  1.00  0.00    -0.275 NA
HETATM    3  C7  UNL     1      22.846   1.002  51.075  1.00  0.00     0.297 C 
HETATM    4  N3  UNL     1      21.620   1.375  51.757  1.00  0.00    -0.276 N 
HETATM    5  N5  UNL     1      21.617   2.605  52.382  1.00  0.00    -0.327 N 
HETATM    6  C15 UNL     1      22.902   3.232  52.431  1.00  0.00     0.194 C 
HETATM    7  H21 UNL     1      21.032   2.690  53.223  1.00  0.00     0.180 HD
ENDROOT
BRANCH   4   8
HETATM    8  C8  UNL     1      20.373   0.682  51.905  1.00  0.00     0.060 A 
HETATM    9  C9  UNL     1      19.543   0.809  50.790  1.00  0.00     0.060 A 
HETATM   10  C10 UNL     1      18.292   0.221  50.715  1.00  0.00     0.028 A 
HETATM   11  C11 UNL     1      17.866  -0.525  51.819  1.00  0.00     0.029 A 
HETATM   12  C12 UNL     1      18.681  -0.646  52.909  1.00  0.00     0.011 A 
HETATM   13  C13 UNL     1      19.929  -0.059  52.981  1.00  0.00    -0.034 A 
HETATM   14  C14 UNL     1      20.876  -0.134  54.108  1.00  0.00     0.050 C 
BRANCH  10  15
HETATM   15  N4  UNL     1      17.464   0.368  49.561  1.00  0.00    -0.399 N 
HETATM   16  H14 UNL     1      16.563  -0.132  49.327  1.00  0.00     0.156 HD
HETATM   17  H15 UNL     1      17.919   1.091  48.949  1.00  0.00     0.156 HD
ENDBRANCH  10  15
ENDBRANCH   4   8
BRANCH   1  18
HETATM   18  C5  UNL     1      25.162   2.594  53.517  1.00  0.00     0.102 C 
BRANCH  18  19
HETATM   19  C4  UNL     1      26.010   1.435  53.858  1.00  0.00     0.089 C 
HETATM   20  N1  UNL     1      27.150   1.439  54.440  1.00  0.00    -0.305 NA
BRANCH  20  21
HETATM   21  C3  UNL     1      27.862   0.222  54.706  1.00  0.00     0.147 C 
BRANCH  21  22
HETATM   22  C2  UNL     1      29.221   0.335  54.052  1.00  0.00     0.017 C 
HETATM   23  C1  UNL     1      29.647  -0.992  53.437  1.00  0.00     0.007 C 
ENDBRANCH  21  22
ENDBRANCH  20  21
ENDBRANCH  18  19
ENDBRANCH   1  18
TORSDOF 6
ENDMDL
