MODEL 1
REMARK VINA RESULT:      -8.5      0.000      0.000
REMARK  2 active torsions:
REMARK  status: ('A' for Active; 'I' for Inactive)
REMARK    1  A    between atoms: N1_2  and  C3_4 
REMARK    2  A    between atoms: C3_4  and  C4_5 
ROOT
HETATM    1  C4  UNL     1      26.357   1.382  52.366  1.00  0.00     0.026 C 
HETATM    2  C5  UNL     1      26.122   2.780  51.924  1.00  0.00     0.033 C 
HETATM    3  C6  UNL     1      26.643   3.242  50.639  1.00  0.00    -0.030 C 
HETATM    4  C7  UNL     1      25.908   3.643  49.662  1.00  0.00    -0.023 C 
HETATM    5  C8  UNL     1      24.565   3.883  49.201  1.00  0.00     0.092 C 
HETATM    6  C9  UNL     1      23.322   3.820  49.523  1.00  0.00     0.072 C 
HETATM    7  N2  UNL     1      22.041   4.096  48.977  1.00  0.00    -0.368 N 
HETATM    8  C10 UNL     1      21.413   2.829  49.267  1.00  0.00     0.171 A 
HETATM    9 BR1  UNL     1      21.920   1.777  47.754  1.00  0.00     0.038 Br
HETATM   10  N3  UNL     1      20.835   1.827  49.620  1.00  0.00    -0.273 N 
HETATM   11  C11 UNL     1      20.025   1.290  50.552  1.00  0.00     0.162 C 
HETATM   12  C12 UNL     1      19.771   0.621  51.598  1.00  0.00     0.077 C 
HETATM   13  C13 UNL     1      21.289   0.481  51.582  1.00  0.00    -0.005 C 
HETATM   14  N4  UNL     1      22.485   0.359  51.555  1.00  0.00    -0.101 N 
HETATM   15  C14 UNL     1      19.665  -0.138  52.791  1.00  0.00    -0.006 C 
HETATM   16  C15 UNL     1      20.170  -0.763  53.811  1.00  0.00    -0.018 C 
HETATM   17  C16 UNL     1      21.228  -1.247  54.676  1.00  0.00     0.059 C 
HETATM   18  C17 UNL     1      22.626  -1.192  54.843  1.00  0.00     0.073 C 
HETATM   19  N5  UNL     1      23.922  -0.683  54.349  1.00  0.00    -0.340 N 
HETATM   20  C18 UNL     1      25.207  -0.216  53.866  1.00  0.00     0.221 C 
HETATM   21  O1  UNL     1      25.343  -1.482  54.050  1.00  0.00    -0.273 OA
HETATM   22  C19 UNL     1      25.358   1.202  53.553  1.00  0.00     0.109 C 
HETATM   23  H16 UNL     1      21.409   4.727  48.470  1.00  0.00     0.161 HD
HETATM   24  H22 UNL     1      23.246   0.152  54.425  1.00  0.00     0.167 HD
ENDROOT
BRANCH   1  25
HETATM   25  C3  UNL     1      27.688   0.861  52.681  1.00  0.00     0.276 C 
BRANCH  25  26
HETATM   26  N1  UNL     1      28.285   1.180  53.929  1.00  0.00     0.080 N 
HETATM   27  C1  UNL     1      29.116   2.332  53.884  1.00  0.00     0.309 C 
HETATM   28  C2  UNL     1      29.052  -0.000  54.347  1.00  0.00     0.309 C 
ENDBRANCH  25  26
ENDBRANCH   1  25
TORSDOF 2
ENDMDL
MODEL 2
REMARK VINA RESULT:      -8.3      2.638      7.600
REMARK  2 active torsions:
REMARK  status: ('A' for Active; 'I' for Inactive)
REMARK    1  A    between atoms: N1_2  and  C3_4 
REMARK    2  A    between atoms: C3_4  and  C4_5 
ROOT
HETATM    1  C4  UNL     1      20.511   0.927  52.920  1.00  0.00     0.026 C 
HETATM    2  C5  UNL     1      21.150   0.667  54.235  1.00  0.00     0.033 C 
HETATM    3  C6  UNL     1      21.266  -0.700  54.738  1.00  0.00    -0.030 C 
HETATM    4  C7  UNL     1      22.384  -1.296  54.962  1.00  0.00    -0.023 C 
HETATM    5  C8  UNL     1      23.820  -1.187  54.936  1.00  0.00     0.092 C 
HETATM    6  C9  UNL     1      24.804  -0.407  54.659  1.00  0.00     0.072 C 
HETATM    7  N2  UNL     1      26.223  -0.399  54.677  1.00  0.00    -0.368 N 
HETATM    8  C10 UNL     1      26.446   0.064  53.328  1.00  0.00     0.171 A 
HETATM    9 BR1  UNL     1      26.388  -1.567  52.332  1.00  0.00     0.038 Br
HETATM   10  N3  UNL     1      26.647   0.574  52.250  1.00  0.00    -0.273 N 
HETATM   11  C11 UNL     1      26.917   1.727  51.608  1.00  0.00     0.162 C 
HETATM   12  C12 UNL     1      26.615   2.762  50.942  1.00  0.00     0.077 C 
HETATM   13  C13 UNL     1      25.227   2.149  51.080  1.00  0.00    -0.005 C 
HETATM   14  N4  UNL     1      24.135   1.653  51.178  1.00  0.00    -0.101 N 
HETATM   15  C14 UNL     1      26.107   3.872  50.219  1.00  0.00    -0.006 C 
HETATM   16  C15 UNL     1      25.139   4.588  49.734  1.00  0.00    -0.018 C 
HETATM   17  C16 UNL     1      23.759   4.952  49.482  1.00  0.00     0.059 C 
HETATM   18  C17 UNL     1      22.442   4.562  49.798  1.00  0.00     0.073 C 
HETATM   19  N5  UNL     1      21.558   3.622  50.517  1.00  0.00    -0.340 N 
HETATM   20  C18 UNL     1      20.672   2.694  51.193  1.00  0.00     0.221 C 
HETATM   21  O1  UNL     1      20.247   2.761  49.981  1.00  0.00    -0.273 OA
HETATM   22  C19 UNL     1      20.916   2.403  52.603  1.00  0.00     0.109 C 
HETATM   23  H16 UNL     1      27.107  -0.594  55.163  1.00  0.00     0.161 HD
HETATM   24  H22 UNL     1      22.291   3.988  51.217  1.00  0.00     0.167 HD
ENDROOT
BRANCH   1  25
HETATM   25  C3  UNL     1      19.093   0.678  52.663  1.00  0.00     0.276 C 
BRANCH  25  26
HETATM   26  N1  UNL     1      18.711  -0.440  51.875  1.00  0.00     0.080 N 
HETATM   27  C1  UNL     1      18.007  -0.089  50.692  1.00  0.00     0.309 C 
HETATM   28  C2  UNL     1      17.892  -1.305  52.733  1.00  0.00     0.309 C 
ENDBRANCH  25  26
ENDBRANCH   1  25
TORSDOF 2
ENDMDL
MODEL 3
REMARK VINA RESULT:      -8.2      2.776      5.746
REMARK  2 active torsions:
REMARK  status: ('A' for Active; 'I' for Inactive)
REMARK    1  A    between atoms: N1_2  and  C3_4 
REMARK    2  A    between atoms: C3_4  and  C4_5 
ROOT
HETATM    1  C4  UNL     1      22.956   3.911  49.837  1.00  0.00     0.026 C 
HETATM    2  C5  UNL     1      24.168   3.207  49.347  1.00  0.00     0.033 C 
HETATM    3  C6  UNL     1      25.492   3.789  49.557  1.00  0.00    -0.030 C 
HETATM    4  C7  UNL     1      26.420   3.241  50.261  1.00  0.00    -0.023 C 
HETATM    5  C8  UNL     1      26.792   2.107  51.067  1.00  0.00     0.092 C 
HETATM    6  C9  UNL     1      26.386   0.986  51.545  1.00  0.00     0.072 C 
HETATM    7  N2  UNL     1      26.852  -0.088  52.347  1.00  0.00    -0.368 N 
HETATM    8  C10 UNL     1      25.756  -0.140  53.284  1.00  0.00     0.171 A 
HETATM    9 BR1  UNL     1      26.278   1.162  54.583  1.00  0.00     0.038 Br
HETATM   10  N3  UNL     1      24.786  -0.284  53.994  1.00  0.00    -0.273 N 
HETATM   11  C11 UNL     1      23.654  -0.987  54.187  1.00  0.00     0.162 C 
HETATM   12  C12 UNL     1      22.405  -1.184  54.112  1.00  0.00     0.077 C 
HETATM   13  C13 UNL     1      22.475   0.181  53.439  1.00  0.00    -0.005 C 
HETATM   14  N4  UNL     1      22.534   1.266  52.923  1.00  0.00    -0.101 N 
HETATM   15  C14 UNL     1      20.999  -1.255  53.931  1.00  0.00    -0.006 C 
HETATM   16  C15 UNL     1      19.873  -0.816  53.458  1.00  0.00    -0.018 C 
HETATM   17  C16 UNL     1      19.008   0.075  52.710  1.00  0.00     0.059 C 
HETATM   18  C17 UNL     1      19.054   1.202  51.867  1.00  0.00     0.073 C 
HETATM   19  N5  UNL     1      19.883   2.217  51.184  1.00  0.00    -0.340 N 
HETATM   20  C18 UNL     1      20.676   3.238  50.528  1.00  0.00     0.221 C 
HETATM   21  O1  UNL     1      19.735   3.868  51.139  1.00  0.00    -0.273 OA
HETATM   22  C19 UNL     1      21.841   2.820  49.752  1.00  0.00     0.109 C 
HETATM   23  H16 UNL     1      27.582  -0.775  52.576  1.00  0.00     0.161 HD
HETATM   24  H22 UNL     1      20.297   1.247  50.961  1.00  0.00     0.167 HD
ENDROOT
BRANCH   1  25
HETATM   25  C3  UNL     1      22.512   5.197  49.299  1.00  0.00     0.276 C 
BRANCH  25  26
HETATM   26  N1  UNL     1      22.647   6.369  50.089  1.00  0.00     0.080 N 
HETATM   27  C1  UNL     1      23.230   6.133  51.363  1.00  0.00     0.309 C 
HETATM   28  C2  UNL     1      21.304   6.945  50.229  1.00  0.00     0.309 C 
ENDBRANCH  25  26
ENDBRANCH   1  25
TORSDOF 2
ENDMDL
MODEL 4
REMARK VINA RESULT:      -7.9      2.508      6.490
REMARK  2 active torsions:
REMARK  status: ('A' for Active; 'I' for Inactive)
REMARK    1  A    between atoms: N1_2  and  C3_4 
REMARK    2  A    between atoms: C3_4  and  C4_5 
ROOT
HETATM    1  C4  UNL     1      23.328   3.477  50.419  1.00  0.00     0.026 C 
HETATM    2  C5  UNL     1      22.149   3.685  51.297  1.00  0.00     0.033 C 
HETATM    3  C6  UNL     1      20.834   3.194  50.890  1.00  0.00    -0.030 C 
HETATM    4  C7  UNL     1      20.165   2.300  51.531  1.00  0.00    -0.023 C 
HETATM    5  C8  UNL     1      20.136   1.424  52.674  1.00  0.00     0.092 C 
HETATM    6  C9  UNL     1      20.788   1.039  53.711  1.00  0.00     0.072 C 
HETATM    7  N2  UNL     1      20.660   0.146  54.808  1.00  0.00    -0.368 N 
HETATM    8  C10 UNL     1      21.929  -0.529  54.677  1.00  0.00     0.171 A 
HETATM    9 BR1  UNL     1      21.524  -1.900  53.409  1.00  0.00     0.038 Br
HETATM   10  N3  UNL     1      23.039  -1.010  54.663  1.00  0.00    -0.273 N 
HETATM   11  C11 UNL     1      24.273  -0.955  55.201  1.00  0.00     0.162 C 
HETATM   12  C12 UNL     1      25.492  -0.610  55.231  1.00  0.00     0.077 C 
HETATM   13  C13 UNL     1      25.088   0.041  53.914  1.00  0.00    -0.005 C 
HETATM   14  N4  UNL     1      24.770   0.539  52.867  1.00  0.00    -0.101 N 
HETATM   15  C14 UNL     1      26.820  -0.126  55.120  1.00  0.00    -0.006 C 
HETATM   16  C15 UNL     1      27.746   0.585  54.552  1.00  0.00    -0.018 C 
HETATM   17  C16 UNL     1      28.297   1.510  53.582  1.00  0.00     0.059 C 
HETATM   18  C17 UNL     1      27.914   2.331  52.503  1.00  0.00     0.073 C 
HETATM   19  N5  UNL     1      26.824   2.823  51.635  1.00  0.00    -0.340 N 
HETATM   20  C18 UNL     1      25.774   3.297  50.755  1.00  0.00     0.221 C 
HETATM   21  O1  UNL     1      26.728   2.912  49.982  1.00  0.00    -0.273 OA
HETATM   22  C19 UNL     1      24.539   3.797  51.353  1.00  0.00     0.109 C 
HETATM   23  H16 UNL     1      20.100  -0.242  55.577  1.00  0.00     0.161 HD
HETATM   24  H22 UNL     1      26.511   2.943  52.659  1.00  0.00     0.167 HD
ENDROOT
BRANCH   1  25
HETATM   25  C3  UNL     1      23.463   4.108  49.106  1.00  0.00     0.276 C 
BRANCH  25  26
HETATM   26  N1  UNL     1      23.104   5.473  48.946  1.00  0.00     0.080 N 
HETATM   27  C1  UNL     1      22.006   5.673  48.068  1.00  0.00     0.309 C 
HETATM   28  C2  UNL     1      24.299   6.171  48.456  1.00  0.00     0.309 C 
ENDBRANCH  25  26
ENDBRANCH   1  25
TORSDOF 2
ENDMDL
MODEL 5
REMARK VINA RESULT:      -7.8      1.615      2.355
REMARK  2 active torsions:
REMARK  status: ('A' for Active; 'I' for Inactive)
REMARK    1  A    between atoms: N1_2  and  C3_4 
REMARK    2  A    between atoms: C3_4  and  C4_5 
ROOT
HETATM    1  C4  UNL     1      24.614   0.740  52.673  1.00  0.00     0.026 C 
HETATM    2  C5  UNL     1      24.882   2.175  52.399  1.00  0.00     0.033 C 
HETATM    3  C6  UNL     1      25.917   2.560  51.442  1.00  0.00    -0.030 C 
HETATM    4  C7  UNL     1      25.691   3.206  50.353  1.00  0.00    -0.023 C 
HETATM    5  C8  UNL     1      24.694   3.829  49.521  1.00  0.00     0.092 C 
HETATM    6  C9  UNL     1      23.440   4.085  49.407  1.00  0.00     0.072 C 
HETATM    7  N2  UNL     1      22.537   4.732  48.523  1.00  0.00    -0.368 N 
HETATM    8  C10 UNL     1      21.572   3.666  48.393  1.00  0.00     0.171 A 
HETATM    9 BR1  UNL     1      22.325   2.615  46.985  1.00  0.00     0.038 Br
HETATM   10  N3  UNL     1      20.691   2.837  48.379  1.00  0.00    -0.273 N 
HETATM   11  C11 UNL     1      19.502   2.482  48.901  1.00  0.00     0.162 C 
HETATM   12  C12 UNL     1      18.746   1.841  49.691  1.00  0.00     0.077 C 
HETATM   13  C13 UNL     1      20.093   1.297  50.149  1.00  0.00    -0.005 C 
HETATM   14  N4  UNL     1      21.157   0.857  50.496  1.00  0.00    -0.101 N 
HETATM   15  C14 UNL     1      18.050   1.064  50.652  1.00  0.00    -0.006 C 
HETATM   16  C15 UNL     1      18.000   0.263  51.672  1.00  0.00    -0.018 C 
HETATM   17  C16 UNL     1      18.539  -0.544  52.749  1.00  0.00     0.059 C 
HETATM   18  C17 UNL     1      19.758  -0.880  53.369  1.00  0.00     0.073 C 
HETATM   19  N5  UNL     1      21.225  -0.711  53.410  1.00  0.00    -0.340 N 
HETATM   20  C18 UNL     1      22.669  -0.579  53.451  1.00  0.00     0.221 C 
HETATM   21  O1  UNL     1      22.433  -1.844  53.473  1.00  0.00    -0.273 OA
HETATM   22  C19 UNL     1      23.245   0.762  53.427  1.00  0.00     0.109 C 
HETATM   23  H16 UNL     1      22.291   5.542  47.939  1.00  0.00     0.161 HD
HETATM   24  H22 UNL     1      20.779   0.270  53.389  1.00  0.00     0.167 HD
ENDROOT
BRANCH   1  25
HETATM   25  C3  UNL     1      25.586  -0.141  53.322  1.00  0.00     0.276 C 
BRANCH  25  26
HETATM   26  N1  UNL     1      26.703  -0.611  52.583  1.00  0.00     0.080 N 
HETATM   27  C1  UNL     1      26.775  -2.027  52.501  1.00  0.00     0.309 C 
HETATM   28  C2  UNL     1      27.902  -0.065  53.233  1.00  0.00     0.309 C 
ENDBRANCH  25  26
ENDBRANCH   1  25
TORSDOF 2
ENDMDL
MODEL 6
REMARK VINA RESULT:      -7.7      2.230      6.331
REMARK  2 active torsions:
REMARK  status: ('A' for Active; 'I' for Inactive)
REMARK    1  A    between atoms: N1_2  and  C3_4 
REMARK    2  A    between atoms: C3_4  and  C4_5 
ROOT
HETATM    1  C4  UNL     1      19.999   0.732  51.719  1.00  0.00     0.026 C 
HETATM    2  C5  UNL     1      19.751   0.976  50.276  1.00  0.00     0.033 C 
HETATM    3  C6  UNL     1      18.832   2.032  49.855  1.00  0.00    -0.030 C 
HETATM    4  C7  UNL     1      19.179   3.059  49.162  1.00  0.00    -0.023 C 
HETATM    5  C8  UNL     1      20.261   3.741  48.500  1.00  0.00     0.092 C 
HETATM    6  C9  UNL     1      21.518   3.696  48.234  1.00  0.00     0.072 C 
HETATM    7  N2  UNL     1      22.511   4.440  47.547  1.00  0.00    -0.368 N 
HETATM    8  C10 UNL     1      23.495   4.499  48.602  1.00  0.00     0.171 A 
HETATM    9 BR1  UNL     1      22.922   6.029  49.595  1.00  0.00     0.038 Br
HETATM   10  N3  UNL     1      24.379   4.444  49.426  1.00  0.00    -0.273 N 
HETATM   11  C11 UNL     1      25.502   3.801  49.797  1.00  0.00     0.162 C 
HETATM   12  C12 UNL     1      26.166   2.955  50.468  1.00  0.00     0.077 C 
HETATM   13  C13 UNL     1      24.779   2.682  51.038  1.00  0.00    -0.005 C 
HETATM   14  N4  UNL     1      23.685   2.481  51.496  1.00  0.00    -0.101 N 
HETATM   15  C14 UNL     1      26.751   1.952  51.282  1.00  0.00    -0.006 C 
HETATM   16  C15 UNL     1      26.688   0.967  52.126  1.00  0.00    -0.018 C 
HETATM   17  C16 UNL     1      26.034  -0.004  52.980  1.00  0.00     0.059 C 
HETATM   18  C17 UNL     1      24.754  -0.462  53.348  1.00  0.00     0.073 C 
HETATM   19  N5  UNL     1      23.290  -0.337  53.186  1.00  0.00    -0.340 N 
HETATM   20  C18 UNL     1      21.851  -0.213  53.063  1.00  0.00     0.221 C 
HETATM   21  O1  UNL     1      22.093  -0.210  54.326  1.00  0.00    -0.273 OA
HETATM   22  C19 UNL     1      21.269  -0.177  51.724  1.00  0.00     0.109 C 
HETATM   23  H16 UNL     1      22.817   4.956  46.712  1.00  0.00     0.161 HD
HETATM   24  H22 UNL     1      23.726  -0.409  52.203  1.00  0.00     0.167 HD
ENDROOT
BRANCH   1  25
HETATM   25  C3  UNL     1      18.965   0.240  52.631  1.00  0.00     0.276 C 
BRANCH  25  26
HETATM   26  N1  UNL     1      18.128  -0.832  52.225  1.00  0.00     0.080 N 
HETATM   27  C1  UNL     1      16.812  -0.426  51.878  1.00  0.00     0.309 C 
HETATM   28  C2  UNL     1      18.102  -1.794  53.334  1.00  0.00     0.309 C 
ENDBRANCH  25  26
ENDBRANCH   1  25
TORSDOF 2
ENDMDL
MODEL 7
REMARK VINA RESULT:      -7.6      2.776      5.298
REMARK  2 active torsions:
REMARK  status: ('A' for Active; 'I' for Inactive)
REMARK    1  A    between atoms: N1_2  and  C3_4 
REMARK    2  A    between atoms: C3_4  and  C4_5 
ROOT
HETATM    1  C4  UNL     1      24.099   5.170  49.530  1.00  0.00     0.026 C 
HETATM    2  C5  UNL     1      22.925   5.799  50.188  1.00  0.00     0.033 C 
HETATM    3  C6  UNL     1      21.752   6.171  49.400  1.00  0.00    -0.030 C 
HETATM    4  C7  UNL     1      20.580   5.665  49.563  1.00  0.00    -0.023 C 
HETATM    5  C8  UNL     1      19.777   4.737  50.316  1.00  0.00     0.092 C 
HETATM    6  C9  UNL     1      19.794   3.872  51.266  1.00  0.00     0.072 C 
HETATM    7  N2  UNL     1      18.916   2.992  51.952  1.00  0.00    -0.368 N 
HETATM    8  C10 UNL     1      19.702   1.786  51.843  1.00  0.00     0.171 A 
HETATM    9 BR1  UNL     1      19.169   1.115  50.135  1.00  0.00     0.038 Br
HETATM   10  N3  UNL     1      20.405   0.802  51.877  1.00  0.00    -0.273 N 
HETATM   11  C11 UNL     1      21.269   0.088  52.623  1.00  0.00     0.162 C 
HETATM   12  C12 UNL     1      22.423  -0.280  52.997  1.00  0.00     0.077 C 
HETATM   13  C13 UNL     1      22.825   0.726  51.926  1.00  0.00    -0.005 C 
HETATM   14  N4  UNL     1      23.138   1.508  51.068  1.00  0.00    -0.101 N 
HETATM   15  C14 UNL     1      23.777  -0.565  53.308  1.00  0.00    -0.006 C 
HETATM   16  C15 UNL     1      25.054  -0.361  53.198  1.00  0.00    -0.018 C 
HETATM   17  C16 UNL     1      26.253   0.298  52.720  1.00  0.00     0.059 C 
HETATM   18  C17 UNL     1      26.670   1.386  51.929  1.00  0.00     0.073 C 
HETATM   19  N5  UNL     1      26.284   2.539  51.089  1.00  0.00    -0.340 N 
HETATM   20  C18 UNL     1      25.926   3.658  50.240  1.00  0.00     0.221 C 
HETATM   21  O1  UNL     1      26.797   2.983  49.577  1.00  0.00    -0.273 OA
HETATM   22  C19 UNL     1      24.932   4.610  50.727  1.00  0.00     0.109 C 
HETATM   23  H16 UNL     1      18.020   2.821  52.425  1.00  0.00     0.161 HD
HETATM   24  H22 UNL     1      25.737   2.606  52.015  1.00  0.00     0.167 HD
ENDROOT
BRANCH   1  25
HETATM   25  C3  UNL     1      24.935   5.873  48.557  1.00  0.00     0.276 C 
BRANCH  25  26
HETATM   26  N1  UNL     1      25.675   7.014  48.966  1.00  0.00     0.080 N 
HETATM   27  C1  UNL     1      25.171   8.236  48.445  1.00  0.00     0.309 C 
HETATM   28  C2  UNL     1      27.063   6.797  48.537  1.00  0.00     0.309 C 
ENDBRANCH  25  26
ENDBRANCH   1  25
TORSDOF 2
ENDMDL
MODEL 8
REMARK VINA RESULT:      -7.4      2.653      6.386
REMARK  2 active torsions:
REMARK  status: ('A' for Active; 'I' for Inactive)
REMARK    1  A    between atoms: N1_2  and  C3_4 
REMARK    2  A    between atoms: C3_4  and  C4_5 
ROOT
HETATM    1  C4  UNL     1      20.886   1.516  52.412  1.00  0.00     0.026 C 
HETATM    2  C5  UNL     1      19.907   1.775  51.326  1.00  0.00     0.033 C 
HETATM    3  C6  UNL     1      18.689   2.535  51.599  1.00  0.00    -0.030 C 
HETATM    4  C7  UNL     1      18.403   3.665  51.054  1.00  0.00    -0.023 C 
HETATM    5  C8  UNL     1      18.827   4.683  50.128  1.00  0.00     0.092 C 
HETATM    6  C9  UNL     1      19.759   5.034  49.316  1.00  0.00     0.072 C 
HETATM    7  N2  UNL     1      20.082   6.088  48.421  1.00  0.00    -0.368 N 
HETATM    8  C10 UNL     1      21.416   6.364  48.897  1.00  0.00     0.171 A 
HETATM    9 BR1  UNL     1      21.084   7.579  50.335  1.00  0.00     0.038 Br
HETATM   10  N3  UNL     1      22.579   6.518  49.195  1.00  0.00    -0.273 N 
HETATM   11  C11 UNL     1      23.850   6.215  48.871  1.00  0.00     0.162 C 
HETATM   12  C12 UNL     1      24.931   5.561  48.974  1.00  0.00     0.077 C 
HETATM   13  C13 UNL     1      24.113   4.846  50.043  1.00  0.00    -0.005 C 
HETATM   14  N4  UNL     1      23.469   4.296  50.897  1.00  0.00    -0.101 N 
HETATM   15  C14 UNL     1      26.053   4.723  49.203  1.00  0.00    -0.006 C 
HETATM   16  C15 UNL     1      26.641   3.708  49.759  1.00  0.00    -0.018 C 
HETATM   17  C16 UNL     1      26.737   2.528  50.595  1.00  0.00     0.059 C 
HETATM   18  C17 UNL     1      25.950   1.684  51.403  1.00  0.00     0.073 C 
HETATM   19  N5  UNL     1      24.615   1.378  51.957  1.00  0.00    -0.340 N 
HETATM   20  C18 UNL     1      23.319   1.075  52.533  1.00  0.00     0.221 C 
HETATM   21  O1  UNL     1      24.149   1.062  53.516  1.00  0.00    -0.273 OA
HETATM   22  C19 UNL     1      22.159   1.029  51.647  1.00  0.00     0.109 C 
HETATM   23  H16 UNL     1      19.807   6.728  47.666  1.00  0.00     0.161 HD
HETATM   24  H22 UNL     1      24.509   1.508  50.893  1.00  0.00     0.167 HD
ENDROOT
BRANCH   1  25
HETATM   25  C3  UNL     1      20.584   0.675  53.570  1.00  0.00     0.276 C 
BRANCH  25  26
HETATM   26  N1  UNL     1      20.322  -0.708  53.381  1.00  0.00     0.080 N 
HETATM   27  C1  UNL     1      18.948  -1.048  53.502  1.00  0.00     0.309 C 
HETATM   28  C2  UNL     1      21.128  -1.432  54.372  1.00  0.00     0.309 C 
ENDBRANCH  25  26
ENDBRANCH   1  25
TORSDOF 2
ENDMDL
MODEL 9
REMARK VINA RESULT:      -7.2      3.300      5.863
REMARK  2 active torsions:
REMARK  status: ('A' for Active; 'I' for Inactive)
REMARK    1  A    between atoms: N1_2  and  C3_4 
REMARK    2  A    between atoms: C3_4  and  C4_5 
ROOT
HETATM    1  C4  UNL     1      24.446   6.162  48.902  1.00  0.00     0.026 C 
HETATM    2  C5  UNL     1      23.245   6.793  49.507  1.00  0.00     0.033 C 
HETATM    3  C6  UNL     1      22.092   7.127  48.675  1.00  0.00    -0.030 C 
HETATM    4  C7  UNL     1      20.922   6.611  48.819  1.00  0.00    -0.023 C 
HETATM    5  C8  UNL     1      20.108   5.693  49.574  1.00  0.00     0.092 C 
HETATM    6  C9  UNL     1      20.108   4.855  50.548  1.00  0.00     0.072 C 
HETATM    7  N2  UNL     1      19.222   3.983  51.233  1.00  0.00    -0.368 N 
HETATM    8  C10 UNL     1      20.026   2.786  51.182  1.00  0.00     0.171 A 
HETATM    9 BR1  UNL     1      19.552   2.060  49.478  1.00  0.00     0.038 Br
HETATM   10  N3  UNL     1      20.740   1.813  51.264  1.00  0.00    -0.273 N 
HETATM   11  C11 UNL     1      21.591   1.132  52.055  1.00  0.00     0.162 C 
HETATM   12  C12 UNL     1      22.737   0.789  52.473  1.00  0.00     0.077 C 
HETATM   13  C13 UNL     1      23.159   1.770  51.386  1.00  0.00    -0.005 C 
HETATM   14  N4  UNL     1      23.487   2.533  50.515  1.00  0.00    -0.101 N 
HETATM   15  C14 UNL     1      24.085   0.531  52.831  1.00  0.00    -0.006 C 
HETATM   16  C15 UNL     1      25.362   0.750  52.753  1.00  0.00    -0.018 C 
HETATM   17  C16 UNL     1      26.567   1.411  52.291  1.00  0.00     0.059 C 
HETATM   18  C17 UNL     1      26.993   2.482  51.482  1.00  0.00     0.073 C 
HETATM   19  N5  UNL     1      26.617   3.605  50.599  1.00  0.00    -0.340 N 
HETATM   20  C18 UNL     1      26.270   4.696  49.708  1.00  0.00     0.221 C 
HETATM   21  O1  UNL     1      27.169   4.013  49.090  1.00  0.00    -0.273 OA
HETATM   22  C19 UNL     1      25.250   5.648  50.139  1.00  0.00     0.109 C 
HETATM   23  H16 UNL     1      18.314   3.813  51.685  1.00  0.00     0.161 HD
HETATM   24  H22 UNL     1      26.042   3.692  51.506  1.00  0.00     0.167 HD
ENDROOT
BRANCH   1  25
HETATM   25  C3  UNL     1      25.302   6.849  47.935  1.00  0.00     0.276 C 
BRANCH  25  26
HETATM   26  N1  UNL     1      25.980   8.035  48.320  1.00  0.00     0.080 N 
HETATM   27  C1  UNL     1      25.468   9.209  47.705  1.00  0.00     0.309 C 
HETATM   28  C2  UNL     1      27.396   7.844  47.980  1.00  0.00     0.309 C 
ENDBRANCH  25  26
ENDBRANCH   1  25
TORSDOF 2
ENDMDL
