MODEL 1
REMARK VINA RESULT:      -8.2      0.000      0.000
REMARK  2 active torsions:
REMARK  status: ('A' for Active; 'I' for Inactive)
REMARK    1  A    between atoms: O1_2  and  C2_3 
REMARK    2  A    between atoms: C3_4  and  O2_5 
ROOT
HETATM    1  C2  UNL     1      24.312   2.683  51.102  1.00  0.00     0.099 C 
HETATM    2  C3  UNL     1      25.612   2.438  50.833  1.00  0.00     0.090 C 
HETATM    3  C5  UNL     1      26.597   1.770  51.662  1.00  0.00     0.118 C 
HETATM    4  C6  UNL     1      26.947   2.549  52.909  1.00  0.00     0.048 C 
HETATM    5  C7  UNL     1      28.438   2.674  53.170  1.00  0.00     0.202 C 
HETATM    6  O3  UNL     1      29.087   1.509  53.177  1.00  0.00    -0.284 OA
HETATM    7  N1  UNL     1      29.748   1.191  54.337  1.00  0.00    -0.287 N 
HETATM    8  C8  UNL     1      29.142  -0.167  54.259  1.00  0.00     0.092 A 
HETATM    9  C9  UNL     1      28.128   0.261  55.070  1.00  0.00     0.083 A 
HETATM   10  C10 UNL     1      26.950  -0.409  54.830  1.00  0.00    -0.001 A 
HETATM   11  C11 UNL     1      27.910  -0.863  54.009  1.00  0.00     0.117 A 
HETATM   12  C12 UNL     1      28.884  -1.302  53.202  1.00  0.00     0.083 A 
HETATM   13  C13 UNL     1      30.082  -0.670  53.402  1.00  0.00    -0.008 A 
HETATM   14  O4  UNL     1      26.860  -1.663  53.427  1.00  0.00    -0.263 OA
HETATM   15  N2  UNL     1      26.396  -1.047  52.204  1.00  0.00    -0.251 N 
HETATM   16  C14 UNL     1      26.108   0.406  52.125  1.00  0.00     0.134 C 
HETATM   17  N3  UNL     1      24.978   0.178  52.720  1.00  0.00    -0.245 NA
HETATM   18  C15 UNL     1      23.985   1.157  53.051  1.00  0.00     0.121 C 
HETATM   19  C16 UNL     1      23.657   2.276  52.367  1.00  0.00     0.058 C 
HETATM   20  H12 UNL     1      30.383   1.692  54.970  1.00  0.00     0.189 HD
HETATM   21  H17 UNL     1      26.167  -1.341  51.227  1.00  0.00     0.196 HD
ENDROOT
BRANCH   1  22
HETATM   22  O1  UNL     1      23.501   3.348  50.179  1.00  0.00    -0.353 OA
HETATM   23  C1  UNL     1      22.486   2.663  49.474  1.00  0.00     0.210 C 
ENDBRANCH   1  22
BRANCH   2  24
HETATM   24  O2  UNL     1      26.011   2.914  49.571  1.00  0.00    -0.357 OA
HETATM   25  C4  UNL     1      26.831   4.065  49.488  1.00  0.00     0.209 C 
ENDBRANCH   2  24
TORSDOF 2
ENDMDL
MODEL 2
REMARK VINA RESULT:      -8.0      2.078      3.819
REMARK  2 active torsions:
REMARK  status: ('A' for Active; 'I' for Inactive)
REMARK    1  A    between atoms: O1_2  and  C2_3 
REMARK    2  A    between atoms: C3_4  and  O2_5 
ROOT
HETATM    1  C2  UNL     1      24.666   4.492  50.248  1.00  0.00     0.099 C 
HETATM    2  C3  UNL     1      24.279   4.111  51.484  1.00  0.00     0.090 C 
HETATM    3  C5  UNL     1      24.617   2.898  52.204  1.00  0.00     0.118 C 
HETATM    4  C6  UNL     1      24.026   1.655  51.580  1.00  0.00     0.048 C 
HETATM    5  C7  UNL     1      23.336   0.728  52.564  1.00  0.00     0.202 C 
HETATM    6  O3  UNL     1      24.093   0.384  53.607  1.00  0.00    -0.284 OA
HETATM    7  N1  UNL     1      24.323  -0.959  53.771  1.00  0.00    -0.287 N 
HETATM    8  C8  UNL     1      25.765  -0.643  53.968  1.00  0.00     0.092 A 
HETATM    9  C9  UNL     1      25.976  -0.871  52.637  1.00  0.00     0.083 A 
HETATM   10  C10 UNL     1      27.019  -0.124  52.140  1.00  0.00    -0.001 A 
HETATM   11  C11 UNL     1      26.853   0.136  53.446  1.00  0.00     0.117 A 
HETATM   12  C12 UNL     1      26.669   0.379  54.749  1.00  0.00     0.083 A 
HETATM   13  C13 UNL     1      25.643  -0.343  55.298  1.00  0.00    -0.008 A 
HETATM   14  O4  UNL     1      27.890   1.121  53.254  1.00  0.00    -0.263 OA
HETATM   15  N2  UNL     1      27.300   2.435  53.129  1.00  0.00    -0.251 N 
HETATM   16  C14 UNL     1      26.122   2.682  52.263  1.00  0.00     0.134 C 
HETATM   17  N3  UNL     1      26.919   2.681  51.240  1.00  0.00    -0.245 NA
HETATM   18  C15 UNL     1      26.538   2.883  49.873  1.00  0.00     0.121 C 
HETATM   19  C16 UNL     1      25.553   3.672  49.390  1.00  0.00     0.058 C 
HETATM   20  H12 UNL     1      23.737  -1.802  53.760  1.00  0.00     0.189 HD
HETATM   21  H17 UNL     1      27.464   3.396  53.507  1.00  0.00     0.196 HD
ENDROOT
BRANCH   1  22
HETATM   22  O1  UNL     1      24.238   5.705  49.704  1.00  0.00    -0.353 OA
HETATM   23  C1  UNL     1      25.164   6.631  49.171  1.00  0.00     0.210 C 
ENDBRANCH   1  22
BRANCH   2  24
HETATM   24  O2  UNL     1      23.440   5.050  52.111  1.00  0.00    -0.357 OA
HETATM   25  C4  UNL     1      22.070   4.747  52.294  1.00  0.00     0.209 C 
ENDBRANCH   2  24
TORSDOF 2
ENDMDL
MODEL 3
REMARK VINA RESULT:      -7.5      1.895      5.763
REMARK  2 active torsions:
REMARK  status: ('A' for Active; 'I' for Inactive)
REMARK    1  A    between atoms: O1_2  and  C2_3 
REMARK    2  A    between atoms: C3_4  and  O2_5 
ROOT
HETATM    1  C2  UNL     1      27.341  -0.164  53.524  1.00  0.00     0.099 C 
HETATM    2  C3  UNL     1      27.214   1.178  53.484  1.00  0.00     0.090 C 
HETATM    3  C5  UNL     1      26.272   1.975  52.720  1.00  0.00     0.118 C 
HETATM    4  C6  UNL     1      26.505   1.900  51.229  1.00  0.00     0.048 C 
HETATM    5  C7  UNL     1      26.513   3.247  50.528  1.00  0.00     0.202 C 
HETATM    6  O3  UNL     1      25.433   3.991  50.772  1.00  0.00    -0.284 OA
HETATM    7  N1  UNL     1      24.687   4.353  49.678  1.00  0.00    -0.287 N 
HETATM    8  C8  UNL     1      23.468   3.937  50.426  1.00  0.00     0.092 A 
HETATM    9  C9  UNL     1      23.553   2.706  49.838  1.00  0.00     0.083 A 
HETATM   10  C10 UNL     1      23.034   1.711  50.635  1.00  0.00    -0.001 A 
HETATM   11  C11 UNL     1      22.929   2.896  51.256  1.00  0.00     0.117 A 
HETATM   12  C12 UNL     1      22.833   4.089  51.856  1.00  0.00     0.083 A 
HETATM   13  C13 UNL     1      23.333   5.118  51.104  1.00  0.00    -0.008 A 
HETATM   14  O4  UNL     1      22.422   2.127  52.367  1.00  0.00    -0.263 OA
HETATM   15  N2  UNL     1      23.467   1.939  53.349  1.00  0.00    -0.251 N 
HETATM   16  C14 UNL     1      24.837   1.529  52.960  1.00  0.00     0.134 C 
HETATM   17  N3  UNL     1      24.401   0.314  52.840  1.00  0.00    -0.245 NA
HETATM   18  C15 UNL     1      25.181  -0.830  52.464  1.00  0.00     0.121 C 
HETATM   19  C16 UNL     1      26.478  -1.083  52.744  1.00  0.00     0.058 C 
HETATM   20  H12 UNL     1      24.900   4.742  48.752  1.00  0.00     0.189 HD
HETATM   21  H17 UNL     1      23.575   2.009  54.387  1.00  0.00     0.196 HD
ENDROOT
BRANCH   1  22
HETATM   22  O1  UNL     1      28.316  -0.770  54.321  1.00  0.00    -0.353 OA
HETATM   23  C1  UNL     1      29.535  -1.219  53.766  1.00  0.00     0.210 C 
ENDBRANCH   1  22
BRANCH   2  24
HETATM   24  O2  UNL     1      28.141   1.843  54.307  1.00  0.00    -0.357 OA
HETATM   25  C4  UNL     1      29.208   2.561  53.717  1.00  0.00     0.209 C 
ENDBRANCH   2  24
TORSDOF 2
ENDMDL
MODEL 4
REMARK VINA RESULT:      -7.4      2.490      5.954
REMARK  2 active torsions:
REMARK  status: ('A' for Active; 'I' for Inactive)
REMARK    1  A    between atoms: O1_2  and  C2_3 
REMARK    2  A    between atoms: C3_4  and  O2_5 
ROOT
HETATM    1  C2  UNL     1      25.344   0.341  53.922  1.00  0.00     0.099 C 
HETATM    2  C3  UNL     1      26.024   1.472  53.638  1.00  0.00     0.090 C 
HETATM    3  C5  UNL     1      25.715   2.490  52.651  1.00  0.00     0.118 C 
HETATM    4  C6  UNL     1      25.844   1.993  51.230  1.00  0.00     0.048 C 
HETATM    5  C7  UNL     1      26.628   2.916  50.313  1.00  0.00     0.202 C 
HETATM    6  O3  UNL     1      26.189   4.175  50.306  1.00  0.00    -0.284 OA
HETATM    7  N1  UNL     1      25.782   4.668  49.091  1.00  0.00    -0.287 N 
HETATM    8  C8  UNL     1      24.558   5.188  49.761  1.00  0.00     0.092 A 
HETATM    9  C9  UNL     1      23.901   4.043  49.406  1.00  0.00     0.083 A 
HETATM   10  C10 UNL     1      22.909   3.713  50.300  1.00  0.00    -0.001 A 
HETATM   11  C11 UNL     1      23.522   4.840  50.694  1.00  0.00     0.117 A 
HETATM   12  C12 UNL     1      24.148   5.964  51.066  1.00  0.00     0.083 A 
HETATM   13  C13 UNL     1      25.145   6.341  50.208  1.00  0.00    -0.008 A 
HETATM   14  O4  UNL     1      22.674   4.746  51.858  1.00  0.00    -0.263 OA
HETATM   15  N2  UNL     1      23.424   4.197  52.966  1.00  0.00    -0.251 N 
HETATM   16  C14 UNL     1      24.293   3.007  52.805  1.00  0.00     0.134 C 
HETATM   17  N3  UNL     1      23.228   2.268  52.848  1.00  0.00    -0.245 NA
HETATM   18  C15 UNL     1      23.189   0.837  52.761  1.00  0.00     0.121 C 
HETATM   19  C16 UNL     1      24.098  -0.051  53.221  1.00  0.00     0.058 C 
HETATM   20  H12 UNL     1      26.172   4.666  48.141  1.00  0.00     0.189 HD
HETATM   21  H17 UNL     1      23.565   4.401  53.981  1.00  0.00     0.196 HD
ENDROOT
BRANCH   1  22
HETATM   22  O1  UNL     1      25.791  -0.536  54.912  1.00  0.00    -0.353 OA
HETATM   23  C1  UNL     1      24.881  -1.173  55.786  1.00  0.00     0.210 C 
ENDBRANCH   1  22
BRANCH   2  24
HETATM   24  O2  UNL     1      27.174   1.636  54.432  1.00  0.00    -0.357 OA
HETATM   25  C4  UNL     1      28.453   1.559  53.830  1.00  0.00     0.209 C 
ENDBRANCH   2  24
TORSDOF 2
ENDMDL
MODEL 5
REMARK VINA RESULT:      -7.1      2.495      4.418
REMARK  2 active torsions:
REMARK  status: ('A' for Active; 'I' for Inactive)
REMARK    1  A    between atoms: O1_2  and  C2_3 
REMARK    2  A    between atoms: C3_4  and  O2_5 
ROOT
HETATM    1  C2  UNL     1      20.913   1.561  51.623  1.00  0.00     0.099 C 
HETATM    2  C3  UNL     1      21.507   1.321  52.810  1.00  0.00     0.090 C 
HETATM    3  C5  UNL     1      22.901   1.020  53.079  1.00  0.00     0.118 C 
HETATM    4  C6  UNL     1      23.333  -0.320  52.532  1.00  0.00     0.048 C 
HETATM    5  C7  UNL     1      24.107  -1.179  53.517  1.00  0.00     0.202 C 
HETATM    6  O3  UNL     1      25.155  -0.563  54.066  1.00  0.00    -0.284 OA
HETATM    7  N1  UNL     1      26.378  -1.152  53.860  1.00  0.00    -0.287 N 
HETATM    8  C8  UNL     1      26.914   0.189  53.497  1.00  0.00     0.092 A 
HETATM    9  C9  UNL     1      26.669  -0.091  52.182  1.00  0.00     0.083 A 
HETATM   10  C10 UNL     1      26.401   1.043  51.449  1.00  0.00    -0.001 A 
HETATM   11  C11 UNL     1      26.632   1.371  52.730  1.00  0.00     0.117 A 
HETATM   12  C12 UNL     1      26.869   1.674  54.012  1.00  0.00     0.083 A 
HETATM   13  C13 UNL     1      27.145   0.581  54.788  1.00  0.00    -0.008 A 
HETATM   14  O4  UNL     1      26.297   2.711  52.316  1.00  0.00    -0.263 OA
HETATM   15  N2  UNL     1      24.936   3.016  52.701  1.00  0.00    -0.251 N 
HETATM   16  C14 UNL     1      23.828   2.060  52.467  1.00  0.00     0.134 C 
HETATM   17  N3  UNL     1      23.814   2.436  51.226  1.00  0.00    -0.245 NA
HETATM   18  C15 UNL     1      22.931   1.950  50.205  1.00  0.00     0.121 C 
HETATM   19  C16 UNL     1      21.645   1.555  50.335  1.00  0.00     0.058 C 
HETATM   20  H12 UNL     1      26.743  -2.109  53.932  1.00  0.00     0.189 HD
HETATM   21  H17 UNL     1      24.418   3.803  53.153  1.00  0.00     0.196 HD
ENDROOT
BRANCH   1  22
HETATM   22  O1  UNL     1      19.545   1.834  51.548  1.00  0.00    -0.353 OA
HETATM   23  C1  UNL     1      19.075   3.150  51.337  1.00  0.00     0.210 C 
ENDBRANCH   1  22
BRANCH   2  24
HETATM   24  O2  UNL     1      20.614   1.383  53.895  1.00  0.00    -0.357 OA
HETATM   25  C4  UNL     1      20.681   0.397  54.909  1.00  0.00     0.209 C 
ENDBRANCH   2  24
TORSDOF 2
ENDMDL
MODEL 6
REMARK VINA RESULT:      -7.0      7.053     10.238
REMARK  2 active torsions:
REMARK  status: ('A' for Active; 'I' for Inactive)
REMARK    1  A    between atoms: O1_2  and  C2_3 
REMARK    2  A    between atoms: C3_4  and  O2_5 
ROOT
HETATM    1  C2  UNL     1      28.088   5.663  48.418  1.00  0.00     0.099 C 
HETATM    2  C3  UNL     1      29.340   6.089  48.150  1.00  0.00     0.090 C 
HETATM    3  C5  UNL     1      29.786   7.425  47.799  1.00  0.00     0.118 C 
HETATM    4  C6  UNL     1      29.285   7.880  46.448  1.00  0.00     0.048 C 
HETATM    5  C7  UNL     1      30.354   8.489  45.557  1.00  0.00     0.202 C 
HETATM    6  O3  UNL     1      31.041   9.477  46.133  1.00  0.00    -0.284 OA
HETATM    7  N1  UNL     1      30.991  10.696  45.504  1.00  0.00    -0.287 N 
HETATM    8  C8  UNL     1      30.716  11.319  46.828  1.00  0.00     0.092 A 
HETATM    9  C9  UNL     1      29.376  11.239  46.565  1.00  0.00     0.083 A 
HETATM   10  C10 UNL     1      28.627  11.107  47.712  1.00  0.00    -0.001 A 
HETATM   11  C11 UNL     1      29.931  11.179  48.023  1.00  0.00     0.117 A 
HETATM   12  C12 UNL     1      31.236  11.255  48.310  1.00  0.00     0.083 A 
HETATM   13  C13 UNL     1      32.030  11.392  47.203  1.00  0.00    -0.008 A 
HETATM   14  O4  UNL     1      29.492  10.945  49.378  1.00  0.00    -0.263 OA
HETATM   15  N2  UNL     1      29.699   9.557  49.726  1.00  0.00    -0.251 N 
HETATM   16  C14 UNL     1      29.311   8.458  48.810  1.00  0.00     0.134 C 
HETATM   17  N3  UNL     1      28.083   8.619  49.195  1.00  0.00    -0.245 NA
HETATM   18  C15 UNL     1      26.950   7.862  48.746  1.00  0.00     0.121 C 
HETATM   19  C16 UNL     1      26.906   6.558  48.394  1.00  0.00     0.058 C 
HETATM   20  H12 UNL     1      31.100  11.016  44.534  1.00  0.00     0.189 HD
HETATM   21  H17 UNL     1      30.087   9.010  50.528  1.00  0.00     0.196 HD
ENDROOT
BRANCH   1  22
HETATM   22  O1  UNL     1      27.837   4.327  48.738  1.00  0.00    -0.353 OA
HETATM   23  C1  UNL     1      26.683   3.956  49.464  1.00  0.00     0.210 C 
ENDBRANCH   1  22
BRANCH   2  24
HETATM   24  O2  UNL     1      30.299   5.064  48.235  1.00  0.00    -0.357 OA
HETATM   25  C4  UNL     1      31.669   5.376  48.060  1.00  0.00     0.209 C 
ENDBRANCH   2  24
TORSDOF 2
ENDMDL
MODEL 7
REMARK VINA RESULT:      -6.8      2.990      7.209
REMARK  2 active torsions:
REMARK  status: ('A' for Active; 'I' for Inactive)
REMARK    1  A    between atoms: O1_2  and  C2_3 
REMARK    2  A    between atoms: C3_4  and  O2_5 
ROOT
HETATM    1  C2  UNL     1      26.272   2.587  51.741  1.00  0.00     0.099 C 
HETATM    2  C3  UNL     1      25.960   3.306  50.643  1.00  0.00     0.090 C 
HETATM    3  C5  UNL     1      24.659   3.788  50.218  1.00  0.00     0.118 C 
HETATM    4  C6  UNL     1      23.716   2.676  49.821  1.00  0.00     0.048 C 
HETATM    5  C7  UNL     1      23.001   2.902  48.501  1.00  0.00     0.202 C 
HETATM    6  O3  UNL     1      22.366   4.072  48.422  1.00  0.00    -0.284 OA
HETATM    7  N1  UNL     1      21.012   4.012  48.199  1.00  0.00    -0.287 N 
HETATM    8  C8  UNL     1      20.832   5.004  49.296  1.00  0.00     0.092 A 
HETATM    9  C9  UNL     1      20.634   3.971  50.170  1.00  0.00     0.083 A 
HETATM   10  C10 UNL     1      21.034   4.287  51.448  1.00  0.00    -0.001 A 
HETATM   11  C11 UNL     1      21.250   5.329  50.632  1.00  0.00     0.117 A 
HETATM   12  C12 UNL     1      21.455   6.357  49.799  1.00  0.00     0.083 A 
HETATM   13  C13 UNL     1      21.071   6.099  48.510  1.00  0.00    -0.008 A 
HETATM   14  O4  UNL     1      21.857   5.947  51.786  1.00  0.00    -0.263 OA
HETATM   15  N2  UNL     1      23.296   5.844  51.696  1.00  0.00    -0.251 N 
HETATM   16  C14 UNL     1      23.965   4.575  51.319  1.00  0.00     0.134 C 
HETATM   17  N3  UNL     1      23.771   4.156  52.531  1.00  0.00    -0.245 NA
HETATM   18  C15 UNL     1      24.172   2.884  53.058  1.00  0.00     0.121 C 
HETATM   19  C16 UNL     1      25.266   2.157  52.740  1.00  0.00     0.058 C 
HETATM   20  H12 UNL     1      20.407   3.498  47.549  1.00  0.00     0.189 HD
HETATM   21  H17 UNL     1      24.127   6.465  51.831  1.00  0.00     0.196 HD
ENDROOT
BRANCH   1  22
HETATM   22  O1  UNL     1      27.591   2.202  51.996  1.00  0.00    -0.353 OA
HETATM   23  C1  UNL     1      28.136   2.285  53.297  1.00  0.00     0.210 C 
ENDBRANCH   1  22
BRANCH   2  24
HETATM   24  O2  UNL     1      27.077   3.599  49.841  1.00  0.00    -0.357 OA
HETATM   25  C4  UNL     1      27.020   4.686  48.936  1.00  0.00     0.209 C 
ENDBRANCH   2  24
TORSDOF 2
ENDMDL
MODEL 8
REMARK VINA RESULT:      -6.7      3.021      6.829
REMARK  2 active torsions:
REMARK  status: ('A' for Active; 'I' for Inactive)
REMARK    1  A    between atoms: O1_2  and  C2_3 
REMARK    2  A    between atoms: C3_4  and  O2_5 
ROOT
HETATM    1  C2  UNL     1      25.254   0.842  52.437  1.00  0.00     0.099 C 
HETATM    2  C3  UNL     1      24.013   1.293  52.157  1.00  0.00     0.090 C 
HETATM    3  C5  UNL     1      23.613   2.603  51.678  1.00  0.00     0.118 C 
HETATM    4  C6  UNL     1      23.839   3.699  52.694  1.00  0.00     0.048 C 
HETATM    5  C7  UNL     1      22.654   4.630  52.885  1.00  0.00     0.202 C 
HETATM    6  O3  UNL     1      22.195   5.162  51.751  1.00  0.00    -0.284 OA
HETATM    7  N1  UNL     1      22.206   6.533  51.678  1.00  0.00    -0.287 N 
HETATM    8  C8  UNL     1      22.817   6.412  50.325  1.00  0.00     0.092 A 
HETATM    9  C9  UNL     1      24.054   6.531  50.896  1.00  0.00     0.083 A 
HETATM   10  C10 UNL     1      25.024   5.869  50.179  1.00  0.00    -0.001 A 
HETATM   11  C11 UNL     1      23.832   5.720  49.580  1.00  0.00     0.117 A 
HETATM   12  C12 UNL     1      22.633   5.587  48.999  1.00  0.00     0.083 A 
HETATM   13  C13 UNL     1      21.629   6.231  49.671  1.00  0.00    -0.008 A 
HETATM   14  O4  UNL     1      24.539   4.852  48.669  1.00  0.00    -0.263 OA
HETATM   15  N2  UNL     1      24.299   3.471  49.024  1.00  0.00    -0.251 N 
HETATM   16  C14 UNL     1      24.383   3.002  50.428  1.00  0.00     0.134 C 
HETATM   17  N3  UNL     1      25.675   2.998  50.312  1.00  0.00    -0.245 NA
HETATM   18  C15 UNL     1      26.613   2.619  51.327  1.00  0.00     0.121 C 
HETATM   19  C16 UNL     1      26.471   1.674  52.283  1.00  0.00     0.058 C 
HETATM   20  H12 UNL     1      21.913   7.294  52.301  1.00  0.00     0.189 HD
HETATM   21  H17 UNL     1      24.053   2.578  48.539  1.00  0.00     0.196 HD
ENDROOT
BRANCH   1  22
HETATM   22  O1  UNL     1      25.457  -0.461  52.897  1.00  0.00    -0.353 OA
HETATM   23  C1  UNL     1      26.628  -1.177  52.561  1.00  0.00     0.210 C 
ENDBRANCH   1  22
BRANCH   2  24
HETATM   24  O2  UNL     1      23.014   0.327  52.376  1.00  0.00    -0.357 OA
HETATM   25  C4  UNL     1      22.073   0.521  53.415  1.00  0.00     0.209 C 
ENDBRANCH   2  24
TORSDOF 2
ENDMDL
MODEL 9
REMARK VINA RESULT:      -6.6      4.255      6.613
REMARK  2 active torsions:
REMARK  status: ('A' for Active; 'I' for Inactive)
REMARK    1  A    between atoms: O1_2  and  C2_3 
REMARK    2  A    between atoms: C3_4  and  O2_5 
ROOT
HETATM    1  C2  UNL     1      26.527   5.407  49.021  1.00  0.00     0.099 C 
HETATM    2  C3  UNL     1      25.278   5.841  49.292  1.00  0.00     0.090 C 
HETATM    3  C5  UNL     1      24.134   5.075  49.751  1.00  0.00     0.118 C 
HETATM    4  C6  UNL     1      23.627   4.094  48.720  1.00  0.00     0.048 C 
HETATM    5  C7  UNL     1      22.122   4.126  48.513  1.00  0.00     0.202 C 
HETATM    6  O3  UNL     1      21.418   3.993  49.638  1.00  0.00    -0.284 OA
HETATM    7  N1  UNL     1      20.558   2.924  49.691  1.00  0.00    -0.287 N 
HETATM    8  C8  UNL     1      21.093   2.617  51.047  1.00  0.00     0.092 A 
HETATM    9  C9  UNL     1      21.981   1.747  50.477  1.00  0.00     0.083 A 
HETATM   10  C10 UNL     1      23.144   1.639  51.205  1.00  0.00    -0.001 A 
HETATM   11  C11 UNL     1      22.309   2.502  51.804  1.00  0.00     0.117 A 
HETATM   12  C12 UNL     1      21.459   3.359  52.384  1.00  0.00     0.083 A 
HETATM   13  C13 UNL     1      20.281   3.503  51.702  1.00  0.00    -0.008 A 
HETATM   14  O4  UNL     1      23.395   2.717  52.729  1.00  0.00    -0.263 OA
HETATM   15  N2  UNL     1      24.088   3.942  52.393  1.00  0.00    -0.251 N 
HETATM   16  C14 UNL     1      24.465   4.266  50.996  1.00  0.00     0.134 C 
HETATM   17  N3  UNL     1      25.466   3.450  51.115  1.00  0.00    -0.245 NA
HETATM   18  C15 UNL     1      26.444   3.160  50.107  1.00  0.00     0.121 C 
HETATM   19  C16 UNL     1      26.941   3.991  49.165  1.00  0.00     0.058 C 
HETATM   20  H12 UNL     1      19.856   2.527  49.057  1.00  0.00     0.189 HD
HETATM   21  H17 UNL     1      24.458   4.783  52.891  1.00  0.00     0.196 HD
ENDROOT
BRANCH   1  22
HETATM   22  O1  UNL     1      27.515   6.292  48.581  1.00  0.00    -0.353 OA
HETATM   23  C1  UNL     1      28.799   5.828  48.219  1.00  0.00     0.210 C 
ENDBRANCH   1  22
BRANCH   2  24
HETATM   24  O2  UNL     1      25.119   7.223  49.085  1.00  0.00    -0.357 OA
HETATM   25  C4  UNL     1      24.749   8.052  50.171  1.00  0.00     0.209 C 
ENDBRANCH   2  24
TORSDOF 2
ENDMDL
