MODEL 1
REMARK VINA RESULT:      -9.2      0.000      0.000
REMARK  4 active torsions:
REMARK  status: ('A' for Active; 'I' for Inactive)
REMARK    1  A    between atoms: C1_2  and  N2_3 
REMARK    2  A    between atoms: N2_3  and  C2_4 
REMARK    3  A    between atoms: N2_3  and  C8_11 
REMARK    4  A    between atoms: C14_19  and  O1_20 
ROOT
HETATM    1  C8  UNL     1      25.273   0.057  52.909  1.00  0.00     0.175 C 
HETATM    2  C9  UNL     1      25.582  -0.134  54.434  1.00  0.00     0.147 C 
HETATM    3  N3  UNL     1      26.489   0.844  54.740  1.00  0.00    -0.097 NA
HETATM    4  N4  UNL     1      27.042   1.663  53.690  1.00  0.00     0.064 N 
HETATM    5  C10 UNL     1      27.214   2.085  52.364  1.00  0.00     0.301 A 
HETATM    6  C11 UNL     1      26.435   1.013  52.656  1.00  0.00     0.240 A 
HETATM    7  C12 UNL     1      27.600  -0.035  53.211  1.00  0.00    -0.004 A 
HETATM    8  C13 UNL     1      27.587  -1.523  53.210  1.00  0.00     0.047 A 
HETATM    9  C14 UNL     1      28.764  -2.172  53.302  1.00  0.00     0.066 A 
HETATM   10  C15 UNL     1      29.957  -1.500  53.397  1.00  0.00     0.037 A 
HETATM   11  C16 UNL     1      30.172  -0.144  53.423  1.00  0.00     0.012 A 
HETATM   12  C17 UNL     1      28.970   0.382  53.333  1.00  0.00    -0.021 A 
HETATM   13  C18 UNL     1      28.521   1.842  53.903  1.00  0.00     0.308 C 
ENDROOT
BRANCH   1  14
HETATM   14  N2  UNL     1      24.023   0.720  52.815  1.00  0.00    -0.342 N 
BRANCH  14  15
HETATM   15  C1  UNL     1      23.073   0.066  53.639  1.00  0.00     0.244 C 
HETATM   16  N1  UNL     1      22.545  -0.785  52.819  1.00  0.00    -0.311 NA
HETATM   17  H1  UNL     1      22.859  -0.846  51.822  1.00  0.00     0.182 HD
ENDBRANCH  14  15
BRANCH  14  18
HETATM   18  C2  UNL     1      23.630   1.854  52.065  1.00  0.00     0.032 A 
HETATM   19  C3  UNL     1      23.544   3.108  52.684  1.00  0.00     0.031 A 
HETATM   20  C4  UNL     1      23.156   4.190  51.924  1.00  0.00     0.021 A 
HETATM   21  C5  UNL     1      22.844   4.126  50.584  1.00  0.00     0.011 A 
HETATM   22 BR1  UNL     1      22.308   5.631  49.544  1.00  0.00    -0.051 Br
HETATM   23  C6  UNL     1      22.932   2.887  49.988  1.00  0.00     0.021 A 
HETATM   24  C7  UNL     1      23.322   1.790  50.743  1.00  0.00     0.031 A 
ENDBRANCH  14  18
ENDBRANCH   1  14
BRANCH   9  25
HETATM   25  O1  UNL     1      28.584  -3.532  53.284  1.00  0.00    -0.361 OA
HETATM   26  H11 UNL     1      29.338  -4.202  53.450  1.00  0.00     0.217 HD
ENDBRANCH   9  25
TORSDOF 4
ENDMDL
MODEL 2
REMARK VINA RESULT:      -8.6      2.114      2.933
REMARK  4 active torsions:
REMARK  status: ('A' for Active; 'I' for Inactive)
REMARK    1  A    between atoms: C1_2  and  N2_3 
REMARK    2  A    between atoms: N2_3  and  C2_4 
REMARK    3  A    between atoms: N2_3  and  C8_11 
REMARK    4  A    between atoms: C14_19  and  O1_20 
ROOT
HETATM    1  C8  UNL     1      25.365   0.260  52.614  1.00  0.00     0.175 C 
HETATM    2  C9  UNL     1      25.529   0.046  54.159  1.00  0.00     0.147 C 
HETATM    3  N3  UNL     1      26.432   0.994  54.556  1.00  0.00    -0.097 NA
HETATM    4  N4  UNL     1      27.102   1.805  53.570  1.00  0.00     0.064 N 
HETATM    5  C10 UNL     1      27.405   2.234  52.270  1.00  0.00     0.301 A 
HETATM    6  C11 UNL     1      26.573   1.183  52.478  1.00  0.00     0.240 A 
HETATM    7  C12 UNL     1      27.651   0.096  53.124  1.00  0.00    -0.004 A 
HETATM    8  C13 UNL     1      27.596  -1.391  53.105  1.00  0.00     0.047 A 
HETATM    9  C14 UNL     1      28.741  -2.076  53.295  1.00  0.00     0.066 A 
HETATM   10  C15 UNL     1      29.939  -1.441  53.505  1.00  0.00     0.037 A 
HETATM   11  C16 UNL     1      30.190  -0.091  53.566  1.00  0.00     0.012 A 
HETATM   12  C17 UNL     1      29.017   0.471  53.374  1.00  0.00    -0.021 A 
HETATM   13  C18 UNL     1      28.560   1.939  53.918  1.00  0.00     0.308 C 
ENDROOT
BRANCH   1  14
HETATM   14  N2  UNL     1      24.149   0.960  52.415  1.00  0.00    -0.342 N 
BRANCH  14  15
HETATM   15  C1  UNL     1      24.424   2.289  52.005  1.00  0.00     0.244 C 
HETATM   16  N1  UNL     1      23.825   2.982  52.920  1.00  0.00    -0.311 NA
HETATM   17  H1  UNL     1      23.307   2.518  53.703  1.00  0.00     0.182 HD
ENDBRANCH  14  15
BRANCH  14  18
HETATM   18  C2  UNL     1      22.805   0.542  52.563  1.00  0.00     0.032 A 
HETATM   19  C3  UNL     1      21.924   0.618  51.476  1.00  0.00     0.031 A 
HETATM   20  C4  UNL     1      20.622   0.204  51.656  1.00  0.00     0.021 A 
HETATM   21  C5  UNL     1      20.120  -0.284  52.841  1.00  0.00     0.011 A 
HETATM   22 BR1  UNL     1      18.315  -0.853  53.078  1.00  0.00    -0.051 Br
HETATM   23  C6  UNL     1      20.995  -0.354  53.902  1.00  0.00     0.021 A 
HETATM   24  C7  UNL     1      22.309   0.060  53.733  1.00  0.00     0.031 A 
ENDBRANCH  14  18
ENDBRANCH   1  14
BRANCH   9  25
HETATM   25  O1  UNL     1      28.524  -3.429  53.245  1.00  0.00    -0.361 OA
HETATM   26  H11 UNL     1      27.592  -3.849  53.207  1.00  0.00     0.217 HD
ENDBRANCH   9  25
TORSDOF 4
ENDMDL
MODEL 3
REMARK VINA RESULT:      -8.4      2.637      3.686
REMARK  4 active torsions:
REMARK  status: ('A' for Active; 'I' for Inactive)
REMARK    1  A    between atoms: C1_2  and  N2_3 
REMARK    2  A    between atoms: N2_3  and  C2_4 
REMARK    3  A    between atoms: N2_3  and  C8_11 
REMARK    4  A    between atoms: C14_19  and  O1_20 
ROOT
HETATM    1  C8  UNL     1      25.256   2.239  52.879  1.00  0.00     0.175 C 
HETATM    2  C9  UNL     1      26.234   2.283  51.654  1.00  0.00     0.147 C 
HETATM    3  N3  UNL     1      26.374   0.980  51.262  1.00  0.00    -0.097 NA
HETATM    4  N4  UNL     1      25.794  -0.074  52.055  1.00  0.00     0.064 N 
HETATM    5  C10 UNL     1      25.081  -0.603  53.141  1.00  0.00     0.301 A 
HETATM    6  C11 UNL     1      25.341   0.726  53.062  1.00  0.00     0.240 A 
HETATM    7  C12 UNL     1      26.994   0.699  53.232  1.00  0.00    -0.004 A 
HETATM    8  C13 UNL     1      27.891   1.763  53.759  1.00  0.00     0.047 A 
HETATM    9  C14 UNL     1      29.111   1.407  54.207  1.00  0.00     0.066 A 
HETATM   10  C15 UNL     1      29.537   0.103  54.186  1.00  0.00     0.037 A 
HETATM   11  C16 UNL     1      28.866  -1.008  53.735  1.00  0.00     0.012 A 
HETATM   12  C17 UNL     1      27.706  -0.546  53.323  1.00  0.00    -0.021 A 
HETATM   13  C18 UNL     1      26.763  -1.220  52.176  1.00  0.00     0.308 C 
ENDROOT
BRANCH   1  14
HETATM   14  N2  UNL     1      23.979   2.637  52.409  1.00  0.00    -0.342 N 
BRANCH  14  15
HETATM   15  C1  UNL     1      24.021   3.994  52.002  1.00  0.00     0.244 C 
HETATM   16  N1  UNL     1      23.992   4.616  53.137  1.00  0.00    -0.311 NA
HETATM   17  H1  UNL     1      23.948   4.093  54.043  1.00  0.00     0.182 HD
ENDBRANCH  14  15
BRANCH  14  18
HETATM   18  C2  UNL     1      22.765   1.917  52.305  1.00  0.00     0.032 A 
HETATM   19  C3  UNL     1      22.335   1.446  51.057  1.00  0.00     0.031 A 
HETATM   20  C4  UNL     1      21.147   0.751  50.992  1.00  0.00     0.021 A 
HETATM   21  C5  UNL     1      20.344   0.482  52.078  1.00  0.00     0.011 A 
HETATM   22 BR1  UNL     1      18.702  -0.481  51.975  1.00  0.00    -0.051 Br
HETATM   23  C6  UNL     1      20.778   0.951  53.298  1.00  0.00     0.021 A 
HETATM   24  C7  UNL     1      21.973   1.652  53.376  1.00  0.00     0.031 A 
ENDBRANCH  14  18
ENDBRANCH   1  14
BRANCH   9  25
HETATM   25  O1  UNL     1      29.810   2.496  54.661  1.00  0.00    -0.361 OA
HETATM   26  H11 UNL     1      30.354   2.494  55.527  1.00  0.00     0.217 HD
ENDBRANCH   9  25
TORSDOF 4
ENDMDL
MODEL 4
REMARK VINA RESULT:      -8.0      2.240      3.331
REMARK  4 active torsions:
REMARK  status: ('A' for Active; 'I' for Inactive)
REMARK    1  A    between atoms: C1_2  and  N2_3 
REMARK    2  A    between atoms: N2_3  and  C2_4 
REMARK    3  A    between atoms: N2_3  and  C8_11 
REMARK    4  A    between atoms: C14_19  and  O1_20 
ROOT
HETATM    1  C8  UNL     1      25.430   2.822  52.676  1.00  0.00     0.175 C 
HETATM    2  C9  UNL     1      26.443   2.715  51.484  1.00  0.00     0.147 C 
HETATM    3  N3  UNL     1      26.437   1.394  51.128  1.00  0.00    -0.097 NA
HETATM    4  N4  UNL     1      25.708   0.439  51.926  1.00  0.00     0.064 N 
HETATM    5  C10 UNL     1      24.903   0.030  52.999  1.00  0.00     0.301 A 
HETATM    6  C11 UNL     1      25.324   1.316  52.897  1.00  0.00     0.240 A 
HETATM    7  C12 UNL     1      26.956   1.095  53.125  1.00  0.00    -0.004 A 
HETATM    8  C13 UNL     1      27.959   2.057  53.657  1.00  0.00     0.047 A 
HETATM    9  C14 UNL     1      29.111   1.569  54.155  1.00  0.00     0.066 A 
HETATM   10  C15 UNL     1      29.377   0.223  54.180  1.00  0.00     0.037 A 
HETATM   11  C16 UNL     1      28.591  -0.811  53.732  1.00  0.00     0.012 A 
HETATM   12  C17 UNL     1      27.508  -0.225  53.269  1.00  0.00    -0.021 A 
HETATM   13  C18 UNL     1      26.527  -0.811  52.107  1.00  0.00     0.308 C 
ENDROOT
BRANCH   1  14
HETATM   14  N2  UNL     1      24.226   3.358  52.153  1.00  0.00    -0.342 N 
BRANCH  14  15
HETATM   15  C1  UNL     1      23.479   3.961  53.197  1.00  0.00     0.244 C 
HETATM   16  N1  UNL     1      24.061   5.111  53.314  1.00  0.00    -0.311 NA
HETATM   17  H1  UNL     1      24.872   5.375  52.707  1.00  0.00     0.182 HD
ENDBRANCH  14  15
BRANCH  14  18
HETATM   18  C2  UNL     1      23.711   3.368  50.835  1.00  0.00     0.032 A 
HETATM   19  C3  UNL     1      22.970   2.276  50.364  1.00  0.00     0.031 A 
HETATM   20  C4  UNL     1      22.485   2.318  49.075  1.00  0.00     0.021 A 
HETATM   21  C5  UNL     1      22.680   3.369  48.207  1.00  0.00     0.011 A 
HETATM   22 BR1  UNL     1      22.005   3.416  46.424  1.00  0.00    -0.051 Br
HETATM   23  C6  UNL     1      23.410   4.436  48.682  1.00  0.00     0.021 A 
HETATM   24  C7  UNL     1      23.903   4.405  49.978  1.00  0.00     0.031 A 
ENDBRANCH  14  18
ENDBRANCH   1  14
BRANCH   9  25
HETATM   25  O1  UNL     1      29.924   2.578  54.607  1.00  0.00    -0.361 OA
HETATM   26  H11 UNL     1      29.594   3.529  54.783  1.00  0.00     0.217 HD
ENDBRANCH   9  25
TORSDOF 4
ENDMDL
MODEL 5
REMARK VINA RESULT:      -7.9      3.746      6.728
REMARK  4 active torsions:
REMARK  status: ('A' for Active; 'I' for Inactive)
REMARK    1  A    between atoms: C1_2  and  N2_3 
REMARK    2  A    between atoms: N2_3  and  C2_4 
REMARK    3  A    between atoms: N2_3  and  C8_11 
REMARK    4  A    between atoms: C14_19  and  O1_20 
ROOT
HETATM    1  C8  UNL     1      22.703   0.945  53.140  1.00  0.00     0.175 C 
HETATM    2  C9  UNL     1      22.289   0.569  51.675  1.00  0.00     0.147 C 
HETATM    3  N3  UNL     1      23.082   1.340  50.870  1.00  0.00    -0.097 NA
HETATM    4  N4  UNL     1      23.933   2.347  51.455  1.00  0.00     0.064 N 
HETATM    5  C10 UNL     1      24.482   3.093  52.507  1.00  0.00     0.301 A 
HETATM    6  C11 UNL     1      23.506   2.179  52.738  1.00  0.00     0.240 A 
HETATM    7  C12 UNL     1      22.242   2.914  51.947  1.00  0.00    -0.004 A 
HETATM    8  C13 UNL     1      20.782   2.783  52.204  1.00  0.00     0.047 A 
HETATM    9  C14 UNL     1      19.964   3.756  51.758  1.00  0.00     0.066 A 
HETATM   10  C15 UNL     1      20.442   4.849  51.079  1.00  0.00     0.037 A 
HETATM   11  C16 UNL     1      21.740   5.143  50.740  1.00  0.00     0.012 A 
HETATM   12  C17 UNL     1      22.441   4.136  51.216  1.00  0.00    -0.021 A 
HETATM   13  C18 UNL     1      23.871   3.609  50.637  1.00  0.00     0.308 C 
ENDROOT
BRANCH   1  14
HETATM   14  N2  UNL     1      23.545  -0.092  53.615  1.00  0.00    -0.342 N 
BRANCH  14  15
HETATM   15  C1  UNL     1      22.755  -1.144  54.143  1.00  0.00     0.244 C 
HETATM   16  N1  UNL     1      22.045  -0.528  55.033  1.00  0.00    -0.311 NA
HETATM   17  H1  UNL     1      22.152   0.501  55.197  1.00  0.00     0.182 HD
ENDBRANCH  14  15
BRANCH  14  18
HETATM   18  C2  UNL     1      24.955  -0.205  53.634  1.00  0.00     0.032 A 
HETATM   19  C3  UNL     1      25.678   0.215  54.759  1.00  0.00     0.031 A 
HETATM   20  C4  UNL     1      27.050   0.092  54.742  1.00  0.00     0.021 A 
HETATM   21  C5  UNL     1      27.770  -0.421  53.686  1.00  0.00     0.011 A 
HETATM   22 BR1  UNL     1      29.670  -0.585  53.674  1.00  0.00    -0.051 Br
HETATM   23  C6  UNL     1      27.049  -0.830  52.586  1.00  0.00     0.021 A 
HETATM   24  C7  UNL     1      25.666  -0.711  52.592  1.00  0.00     0.031 A 
ENDBRANCH  14  18
ENDBRANCH   1  14
BRANCH   9  25
HETATM   25  O1  UNL     1      18.657   3.490  52.075  1.00  0.00    -0.361 OA
HETATM   26  H11 UNL     1      17.865   3.987  51.662  1.00  0.00     0.217 HD
ENDBRANCH   9  25
TORSDOF 4
ENDMDL
MODEL 6
REMARK VINA RESULT:      -7.7      4.173      7.160
REMARK  4 active torsions:
REMARK  status: ('A' for Active; 'I' for Inactive)
REMARK    1  A    between atoms: C1_2  and  N2_3 
REMARK    2  A    between atoms: N2_3  and  C2_4 
REMARK    3  A    between atoms: N2_3  and  C8_11 
REMARK    4  A    between atoms: C14_19  and  O1_20 
ROOT
HETATM    1  C8  UNL     1      22.560   1.791  51.131  1.00  0.00     0.175 C 
HETATM    2  C9  UNL     1      21.582   2.831  51.780  1.00  0.00     0.147 C 
HETATM    3  N3  UNL     1      21.245   2.295  52.993  1.00  0.00    -0.097 NA
HETATM    4  N4  UNL     1      21.676   0.961  53.332  1.00  0.00     0.064 N 
HETATM    5  C10 UNL     1      22.318  -0.264  53.104  1.00  0.00     0.301 A 
HETATM    6  C11 UNL     1      22.256   0.679  52.131  1.00  0.00     0.240 A 
HETATM    7  C12 UNL     1      20.620   0.675  51.841  1.00  0.00    -0.004 A 
HETATM    8  C13 UNL     1      19.896   1.042  50.593  1.00  0.00     0.047 A 
HETATM    9  C14 UNL     1      18.644   0.576  50.419  1.00  0.00     0.066 A 
HETATM   10  C15 UNL     1      18.030  -0.216  51.356  1.00  0.00     0.037 A 
HETATM   11  C16 UNL     1      18.523  -0.652  52.562  1.00  0.00     0.012 A 
HETATM   12  C17 UNL     1      19.733  -0.140  52.626  1.00  0.00    -0.021 A 
HETATM   13  C18 UNL     1      20.551   0.210  53.993  1.00  0.00     0.308 C 
ENDROOT
BRANCH   1  14
HETATM   14  N2  UNL     1      23.875   2.295  51.294  1.00  0.00    -0.342 N 
BRANCH  14  15
HETATM   15  C1  UNL     1      24.034   3.472  50.521  1.00  0.00     0.244 C 
HETATM   16  N1  UNL     1      24.065   3.001  49.316  1.00  0.00    -0.311 NA
HETATM   17  H1  UNL     1      23.979   1.973  49.131  1.00  0.00     0.182 HD
ENDBRANCH  14  15
BRANCH  14  18
HETATM   18  C2  UNL     1      24.961   1.815  52.062  1.00  0.00     0.032 A 
HETATM   19  C3  UNL     1      25.195   2.330  53.345  1.00  0.00     0.031 A 
HETATM   20  C4  UNL     1      26.264   1.840  54.064  1.00  0.00     0.021 A 
HETATM   21  C5  UNL     1      27.128   0.870  53.607  1.00  0.00     0.011 A 
HETATM   22 BR1  UNL     1      28.604   0.202  54.613  1.00  0.00    -0.051 Br
HETATM   23  C6  UNL     1      26.888   0.373  52.346  1.00  0.00     0.021 A 
HETATM   24  C7  UNL     1      25.815   0.858  51.612  1.00  0.00     0.031 A 
ENDBRANCH  14  18
ENDBRANCH   1  14
BRANCH   9  25
HETATM   25  O1  UNL     1      18.118   0.998  49.225  1.00  0.00    -0.361 OA
HETATM   26  H11 UNL     1      17.154   1.322  49.117  1.00  0.00     0.217 HD
ENDBRANCH   9  25
TORSDOF 4
ENDMDL
MODEL 7
REMARK VINA RESULT:      -7.4      3.076      4.534
REMARK  4 active torsions:
REMARK  status: ('A' for Active; 'I' for Inactive)
REMARK    1  A    between atoms: C1_2  and  N2_3 
REMARK    2  A    between atoms: N2_3  and  C2_4 
REMARK    3  A    between atoms: N2_3  and  C8_11 
REMARK    4  A    between atoms: C14_19  and  O1_20 
ROOT
HETATM    1  C8  UNL     1      23.461   2.640  50.877  1.00  0.00     0.175 C 
HETATM    2  C9  UNL     1      22.997   3.179  52.274  1.00  0.00     0.147 C 
HETATM    3  N3  UNL     1      24.144   3.289  53.013  1.00  0.00    -0.097 NA
HETATM    4  N4  UNL     1      25.390   2.796  52.481  1.00  0.00     0.064 N 
HETATM    5  C10 UNL     1      26.209   2.182  51.523  1.00  0.00     0.301 A 
HETATM    6  C11 UNL     1      24.868   2.268  51.338  1.00  0.00     0.240 A 
HETATM    7  C12 UNL     1      24.352   1.266  52.559  1.00  0.00    -0.004 A 
HETATM    8  C13 UNL     1      23.094   0.477  52.645  1.00  0.00     0.047 A 
HETATM    9  C14 UNL     1      23.055  -0.575  53.487  1.00  0.00     0.066 A 
HETATM   10  C15 UNL     1      24.134  -0.927  54.257  1.00  0.00     0.037 A 
HETATM   11  C16 UNL     1      25.367  -0.325  54.324  1.00  0.00     0.012 A 
HETATM   12  C17 UNL     1      25.291   0.678  53.477  1.00  0.00    -0.021 A 
HETATM   13  C18 UNL     1      26.151   2.061  53.553  1.00  0.00     0.308 C 
ENDROOT
BRANCH   1  14
HETATM   14  N2  UNL     1      23.479   3.744  49.988  1.00  0.00    -0.342 N 
BRANCH  14  15
HETATM   15  C1  UNL     1      22.481   3.575  48.995  1.00  0.00     0.244 C 
HETATM   16  N1  UNL     1      22.846   2.467  48.433  1.00  0.00    -0.311 NA
HETATM   17  H1  UNL     1      23.698   1.948  48.755  1.00  0.00     0.182 HD
ENDBRANCH  14  15
BRANCH  14  18
HETATM   18  C2  UNL     1      24.297   4.898  49.961  1.00  0.00     0.032 A 
HETATM   19  C3  UNL     1      25.436   4.932  49.144  1.00  0.00     0.031 A 
HETATM   20  C4  UNL     1      26.211   6.071  49.144  1.00  0.00     0.021 A 
HETATM   21  C5  UNL     1      25.942   7.192  49.897  1.00  0.00     0.011 A 
HETATM   22 BR1  UNL     1      27.023   8.763  49.888  1.00  0.00    -0.051 Br
HETATM   23  C6  UNL     1      24.820   7.147  50.695  1.00  0.00     0.021 A 
HETATM   24  C7  UNL     1      24.033   6.005  50.704  1.00  0.00     0.031 A 
ENDBRANCH  14  18
ENDBRANCH   1  14
BRANCH   9  25
HETATM   25  O1  UNL     1      21.833  -1.197  53.447  1.00  0.00    -0.361 OA
HETATM   26  H11 UNL     1      21.717  -2.213  53.464  1.00  0.00     0.217 HD
ENDBRANCH   9  25
TORSDOF 4
ENDMDL
MODEL 8
REMARK VINA RESULT:      -7.1      3.152      4.795
REMARK  4 active torsions:
REMARK  status: ('A' for Active; 'I' for Inactive)
REMARK    1  A    between atoms: C1_2  and  N2_3 
REMARK    2  A    between atoms: N2_3  and  C2_4 
REMARK    3  A    between atoms: N2_3  and  C8_11 
REMARK    4  A    between atoms: C14_19  and  O1_20 
ROOT
HETATM    1  C8  UNL     1      23.086   3.149  52.249  1.00  0.00     0.175 C 
HETATM    2  C9  UNL     1      24.008   2.519  51.148  1.00  0.00     0.147 C 
HETATM    3  N3  UNL     1      23.788   1.171  51.227  1.00  0.00    -0.097 NA
HETATM    4  N4  UNL     1      22.972   0.638  52.290  1.00  0.00     0.064 N 
HETATM    5  C10 UNL     1      22.175   0.714  53.441  1.00  0.00     0.301 A 
HETATM    6  C11 UNL     1      22.774   1.822  52.936  1.00  0.00     0.240 A 
HETATM    7  C12 UNL     1      24.365   1.431  53.213  1.00  0.00    -0.004 A 
HETATM    8  C13 UNL     1      25.525   2.342  53.409  1.00  0.00     0.047 A 
HETATM    9  C14 UNL     1      26.619   1.860  54.031  1.00  0.00     0.066 A 
HETATM   10  C15 UNL     1      26.686   0.564  54.478  1.00  0.00     0.037 A 
HETATM   11  C16 UNL     1      25.733  -0.422  54.384  1.00  0.00     0.012 A 
HETATM   12  C17 UNL     1      24.725   0.153  53.765  1.00  0.00    -0.021 A 
HETATM   13  C18 UNL     1      23.607  -0.605  52.852  1.00  0.00     0.308 C 
ENDROOT
BRANCH   1  14
HETATM   14  N2  UNL     1      21.947   3.676  51.591  1.00  0.00    -0.342 N 
BRANCH  14  15
HETATM   15  C1  UNL     1      22.122   5.067  51.374  1.00  0.00     0.244 C 
HETATM   16  N1  UNL     1      22.559   5.465  52.526  1.00  0.00    -0.311 NA
HETATM   17  H1  UNL     1      22.695   4.794  53.319  1.00  0.00     0.182 HD
ENDBRANCH  14  15
BRANCH  14  18
HETATM   18  C2  UNL     1      20.755   3.050  51.158  1.00  0.00     0.032 A 
HETATM   19  C3  UNL     1      20.711   2.412  49.911  1.00  0.00     0.031 A 
HETATM   20  C4  UNL     1      19.532   1.814  49.521  1.00  0.00     0.021 A 
HETATM   21  C5  UNL     1      18.382   1.798  50.278  1.00  0.00     0.011 A 
HETATM   22 BR1  UNL     1      16.757   0.967  49.726  1.00  0.00    -0.051 Br
HETATM   23  C6  UNL     1      18.438   2.428  51.501  1.00  0.00     0.021 A 
HETATM   24  C7  UNL     1      19.620   3.034  51.905  1.00  0.00     0.031 A 
ENDBRANCH  14  18
ENDBRANCH   1  14
BRANCH   9  25
HETATM   25  O1  UNL     1      27.594   2.819  54.136  1.00  0.00    -0.361 OA
HETATM   26  H11 UNL     1      27.400   3.795  54.373  1.00  0.00     0.217 HD
ENDBRANCH   9  25
TORSDOF 4
ENDMDL
MODEL 9
REMARK VINA RESULT:      -7.0      9.157     10.463
REMARK  4 active torsions:
REMARK  status: ('A' for Active; 'I' for Inactive)
REMARK    1  A    between atoms: C1_2  and  N2_3 
REMARK    2  A    between atoms: N2_3  and  C2_4 
REMARK    3  A    between atoms: N2_3  and  C8_11 
REMARK    4  A    between atoms: C14_19  and  O1_20 
ROOT
HETATM    1  C8  UNL     1      32.209   5.854  47.653  1.00  0.00     0.175 C 
HETATM    2  C9  UNL     1      33.640   6.443  47.910  1.00  0.00     0.147 C 
HETATM    3  N3  UNL     1      33.784   7.444  46.988  1.00  0.00    -0.097 NA
HETATM    4  N4  UNL     1      32.778   7.635  45.974  1.00  0.00     0.064 N 
HETATM    5  C10 UNL     1      31.586   7.346  45.295  1.00  0.00     0.301 A 
HETATM    6  C11 UNL     1      32.013   6.559  46.314  1.00  0.00     0.240 A 
HETATM    7  C12 UNL     1      33.383   5.923  45.621  1.00  0.00    -0.004 A 
HETATM    8  C13 UNL     1      34.059   4.630  45.914  1.00  0.00     0.047 A 
HETATM    9  C14 UNL     1      34.879   4.110  44.979  1.00  0.00     0.066 A 
HETATM   10  C15 UNL     1      35.103   4.741  43.782  1.00  0.00     0.037 A 
HETATM   11  C16 UNL     1      34.586   5.933  43.334  1.00  0.00     0.012 A 
HETATM   12  C17 UNL     1      33.814   6.346  44.316  1.00  0.00    -0.021 A 
HETATM   13  C18 UNL     1      33.432   7.896  44.643  1.00  0.00     0.308 C 
ENDROOT
BRANCH   1  14
HETATM   14  N2  UNL     1      31.353   6.383  48.652  1.00  0.00    -0.342 N 
BRANCH  14  15
HETATM   15  C1  UNL     1      32.043   6.444  49.889  1.00  0.00     0.244 C 
HETATM   16  N1  UNL     1      31.488   5.482  50.554  1.00  0.00    -0.311 NA
HETATM   17  H1  UNL     1      30.728   4.897  50.133  1.00  0.00     0.182 HD
ENDBRANCH  14  15
BRANCH  14  18
HETATM   18  C2  UNL     1      30.010   6.821  48.583  1.00  0.00     0.032 A 
HETATM   19  C3  UNL     1      29.696   8.164  48.834  1.00  0.00     0.031 A 
HETATM   20  C4  UNL     1      28.377   8.555  48.759  1.00  0.00     0.021 A 
HETATM   21  C5  UNL     1      27.333   7.711  48.452  1.00  0.00     0.011 A 
HETATM   22 BR1  UNL     1      25.511   8.264  48.353  1.00  0.00    -0.051 Br
HETATM   23  C6  UNL     1      27.655   6.394  48.208  1.00  0.00     0.021 A 
HETATM   24  C7  UNL     1      28.980   5.988  48.280  1.00  0.00     0.031 A 
ENDBRANCH  14  18
ENDBRANCH   1  14
BRANCH   9  25
HETATM   25  O1  UNL     1      35.417   2.921  45.398  1.00  0.00    -0.361 OA
HETATM   26  H11 UNL     1      35.365   2.057  44.853  1.00  0.00     0.217 HD
ENDBRANCH   9  25
TORSDOF 4
ENDMDL
