MODEL 1
REMARK VINA RESULT:      -9.5      0.000      0.000
REMARK  0 active torsions:
REMARK  status: ('A' for Active; 'I' for Inactive)
ROOT
HETATM    1  S1  UNL     1      22.938   4.780  52.708  1.00  0.00    -0.065 SA
HETATM    2  C1  UNL     1      23.372   3.400  51.940  1.00  0.00     0.081 C 
HETATM    3  C2  UNL     1      22.877   3.018  50.623  1.00  0.00     0.096 C 
HETATM    4  C3  UNL     1      22.548   1.581  50.497  1.00  0.00    -0.024 C 
HETATM    5  C4  UNL     1      21.542   0.763  50.247  1.00  0.00    -0.026 C 
HETATM    6  C5  UNL     1      20.114   0.921  49.944  1.00  0.00     0.066 C 
HETATM    7  C6  UNL     1      19.266   0.292  50.959  1.00  0.00    -0.044 A 
HETATM    8  C7  UNL     1      17.956   0.119  50.604  1.00  0.00     0.008 A 
HETATM    9  C8  UNL     1      17.084  -0.453  51.496  1.00  0.00     0.001 A 
HETATM   10  C9  UNL     1      17.370  -0.894  52.758  1.00  0.00     0.001 A 
HETATM   11  C10 UNL     1      18.720  -0.700  53.082  1.00  0.00     0.012 A 
HETATM   12  C11 UNL     1      19.626  -0.129  52.210  1.00  0.00    -0.030 A 
HETATM   13  C12 UNL     1      20.938  -0.092  52.841  1.00  0.00     0.008 C 
HETATM   14  C13 UNL     1      22.148  -0.558  53.065  1.00  0.00    -0.021 C 
HETATM   15  C14 UNL     1      23.231  -0.042  53.931  1.00  0.00     0.068 C 
HETATM   16  C15 UNL     1      24.496   0.241  53.219  1.00  0.00    -0.028 A 
HETATM   17  C16 UNL     1      25.278  -0.892  53.110  1.00  0.00     0.010 A 
HETATM   18  C17 UNL     1      26.516  -0.896  52.505  1.00  0.00     0.001 A 
HETATM   19  C18 UNL     1      27.071   0.239  51.957  1.00  0.00     0.002 A 
HETATM   20  C19 UNL     1      26.249   1.366  52.086  1.00  0.00     0.030 A 
HETATM   21  C20 UNL     1      25.008   1.408  52.684  1.00  0.00     0.039 A 
HETATM   22  N1  UNL     1      24.280   2.638  52.719  1.00  0.00    -0.350 N 
HETATM   23  H19 UNL     1      24.718   2.836  53.636  1.00  0.00     0.166 HD
ENDROOT
TORSDOF 0
ENDMDL
MODEL 2
REMARK VINA RESULT:      -8.6      2.676      6.084
REMARK  0 active torsions:
REMARK  status: ('A' for Active; 'I' for Inactive)
ROOT
HETATM    1  S1  UNL     1      20.768   0.446  50.381  1.00  0.00    -0.065 SA
HETATM    2  C1  UNL     1      21.605   0.916  51.708  1.00  0.00     0.081 C 
HETATM    3  C2  UNL     1      21.561   2.266  52.255  1.00  0.00     0.096 C 
HETATM    4  C3  UNL     1      22.875   2.776  52.705  1.00  0.00    -0.024 C 
HETATM    5  C4  UNL     1      23.748   3.740  52.479  1.00  0.00    -0.026 C 
HETATM    6  C5  UNL     1      23.830   4.887  51.566  1.00  0.00     0.066 C 
HETATM    7  C6  UNL     1      24.980   4.790  50.664  1.00  0.00    -0.044 A 
HETATM    8  C7  UNL     1      25.308   5.943  50.005  1.00  0.00     0.008 A 
HETATM    9  C8  UNL     1      26.366   5.943  49.131  1.00  0.00     0.001 A 
HETATM   10  C9  UNL     1      27.175   4.886  48.818  1.00  0.00     0.001 A 
HETATM   11  C10 UNL     1      26.806   3.726  49.513  1.00  0.00     0.012 A 
HETATM   12  C11 UNL     1      25.748   3.689  50.401  1.00  0.00    -0.030 A 
HETATM   13  C12 UNL     1      25.645   2.350  50.965  1.00  0.00     0.008 C 
HETATM   14  C13 UNL     1      25.861   1.448  51.899  1.00  0.00    -0.021 C 
HETATM   15  C14 UNL     1      25.474   0.022  51.964  1.00  0.00     0.068 C 
HETATM   16  C15 UNL     1      24.650  -0.331  53.141  1.00  0.00    -0.028 A 
HETATM   17  C16 UNL     1      25.436  -0.611  54.242  1.00  0.00     0.010 A 
HETATM   18  C17 UNL     1      24.916  -0.985  55.462  1.00  0.00     0.001 A 
HETATM   19  C18 UNL     1      23.561  -1.107  55.678  1.00  0.00     0.002 A 
HETATM   20  C19 UNL     1      22.797  -0.815  54.540  1.00  0.00     0.030 A 
HETATM   21  C20 UNL     1      23.282  -0.438  53.305  1.00  0.00     0.039 A 
HETATM   22  N1  UNL     1      22.368  -0.153  52.244  1.00  0.00    -0.350 N 
HETATM   23  H19 UNL     1      22.438  -1.146  51.957  1.00  0.00     0.166 HD
ENDROOT
TORSDOF 0
ENDMDL
MODEL 3
REMARK VINA RESULT:      -8.2      1.110      1.324
REMARK  0 active torsions:
REMARK  status: ('A' for Active; 'I' for Inactive)
ROOT
HETATM    1  S1  UNL     1      21.814   5.694  51.483  1.00  0.00    -0.065 SA
HETATM    2  C1  UNL     1      22.466   4.323  50.870  1.00  0.00     0.081 C 
HETATM    3  C2  UNL     1      21.988   3.673  49.656  1.00  0.00     0.096 C 
HETATM    4  C3  UNL     1      21.937   2.197  49.744  1.00  0.00    -0.024 C 
HETATM    5  C4  UNL     1      21.097   1.181  49.682  1.00  0.00    -0.026 C 
HETATM    6  C5  UNL     1      19.652   1.027  49.472  1.00  0.00     0.066 C 
HETATM    7  C6  UNL     1      18.994   0.404  50.622  1.00  0.00    -0.044 A 
HETATM    8  C7  UNL     1      17.726  -0.056  50.395  1.00  0.00     0.008 A 
HETATM    9  C8  UNL     1      17.027  -0.647  51.419  1.00  0.00     0.001 A 
HETATM   10  C9  UNL     1      17.458  -0.843  52.702  1.00  0.00     0.001 A 
HETATM   11  C10 UNL     1      18.760  -0.359  52.893  1.00  0.00     0.012 A 
HETATM   12  C11 UNL     1      19.492   0.239  51.886  1.00  0.00    -0.030 A 
HETATM   13  C12 UNL     1      20.802   0.607  52.403  1.00  0.00     0.008 C 
HETATM   14  C13 UNL     1      22.090   0.409  52.592  1.00  0.00    -0.021 C 
HETATM   15  C14 UNL     1      23.095   1.234  53.297  1.00  0.00     0.068 C 
HETATM   16  C15 UNL     1      24.244   1.641  52.458  1.00  0.00    -0.028 A 
HETATM   17  C16 UNL     1      25.224   0.667  52.438  1.00  0.00     0.010 A 
HETATM   18  C17 UNL     1      26.406   0.805  51.744  1.00  0.00     0.001 A 
HETATM   19  C18 UNL     1      26.703   1.934  51.012  1.00  0.00     0.002 A 
HETATM   20  C19 UNL     1      25.686   2.897  51.057  1.00  0.00     0.030 A 
HETATM   21  C20 UNL     1      24.492   2.794  51.738  1.00  0.00     0.039 A 
HETATM   22  N1  UNL     1      23.543   3.861  51.669  1.00  0.00    -0.350 N 
HETATM   23  H19 UNL     1      23.981   4.265  52.516  1.00  0.00     0.166 HD
ENDROOT
TORSDOF 0
ENDMDL
MODEL 4
REMARK VINA RESULT:      -8.1      3.062      6.479
REMARK  0 active torsions:
REMARK  status: ('A' for Active; 'I' for Inactive)
ROOT
HETATM    1  S1  UNL     1      21.586   1.020  50.144  1.00  0.00    -0.065 SA
HETATM    2  C1  UNL     1      22.519   1.554  51.379  1.00  0.00     0.081 C 
HETATM    3  C2  UNL     1      22.301   2.820  52.068  1.00  0.00     0.096 C 
HETATM    4  C3  UNL     1      23.545   3.559  52.377  1.00  0.00    -0.024 C 
HETATM    5  C4  UNL     1      24.165   4.698  52.132  1.00  0.00    -0.026 C 
HETATM    6  C5  UNL     1      23.871   5.902  51.345  1.00  0.00     0.066 C 
HETATM    7  C6  UNL     1      24.856   6.117  50.283  1.00  0.00    -0.044 A 
HETATM    8  C7  UNL     1      24.842   7.359  49.710  1.00  0.00     0.008 A 
HETATM    9  C8  UNL     1      25.723   7.647  48.698  1.00  0.00     0.001 A 
HETATM   10  C9  UNL     1      26.661   6.809  48.161  1.00  0.00     0.001 A 
HETATM   11  C10 UNL     1      26.644   5.549  48.774  1.00  0.00     0.012 A 
HETATM   12  C11 UNL     1      25.772   5.224  49.795  1.00  0.00    -0.030 A 
HETATM   13  C12 UNL     1      26.026   3.855  50.222  1.00  0.00     0.008 C 
HETATM   14  C13 UNL     1      26.562   2.950  51.014  1.00  0.00    -0.021 C 
HETATM   15  C14 UNL     1      26.477   1.474  50.981  1.00  0.00     0.068 C 
HETATM   16  C15 UNL     1      25.940   0.869  52.220  1.00  0.00    -0.028 A 
HETATM   17  C16 UNL     1      26.934   0.677  53.159  1.00  0.00     0.010 A 
HETATM   18  C17 UNL     1      26.702   0.112  54.394  1.00  0.00     0.001 A 
HETATM   19  C18 UNL     1      25.450  -0.308  54.788  1.00  0.00     0.002 A 
HETATM   20  C19 UNL     1      24.470  -0.097  53.809  1.00  0.00     0.030 A 
HETATM   21  C20 UNL     1      24.664   0.465  52.566  1.00  0.00     0.039 A 
HETATM   22  N1  UNL     1      23.553   0.632  51.683  1.00  0.00    -0.350 N 
HETATM   23  H19 UNL     1      23.768  -0.300  51.285  1.00  0.00     0.166 HD
ENDROOT
TORSDOF 0
ENDMDL
MODEL 5
REMARK VINA RESULT:      -8.0      2.806      6.271
REMARK  0 active torsions:
REMARK  status: ('A' for Active; 'I' for Inactive)
ROOT
HETATM    1  S1  UNL     1      19.331   2.397  49.511  1.00  0.00    -0.065 SA
HETATM    2  C1  UNL     1      20.111   2.556  50.942  1.00  0.00     0.081 C 
HETATM    3  C2  UNL     1      20.393   3.841  51.571  1.00  0.00     0.096 C 
HETATM    4  C3  UNL     1      21.737   3.930  52.181  1.00  0.00    -0.024 C 
HETATM    5  C4  UNL     1      22.869   4.606  52.107  1.00  0.00    -0.026 C 
HETATM    6  C5  UNL     1      23.378   5.711  51.284  1.00  0.00     0.066 C 
HETATM    7  C6  UNL     1      24.547   5.315  50.496  1.00  0.00    -0.044 A 
HETATM    8  C7  UNL     1      25.263   6.345  49.951  1.00  0.00     0.008 A 
HETATM    9  C8  UNL     1      26.370   6.068  49.187  1.00  0.00     0.001 A 
HETATM   10  C9  UNL     1      26.873   4.833  48.885  1.00  0.00     0.001 A 
HETATM   11  C10 UNL     1      26.111   3.807  49.462  1.00  0.00     0.012 A 
HETATM   12  C11 UNL     1      24.994   4.048  50.237  1.00  0.00    -0.030 A 
HETATM   13  C12 UNL     1      24.450   2.778  50.698  1.00  0.00     0.008 C 
HETATM   14  C13 UNL     1      24.291   1.820  51.587  1.00  0.00    -0.021 C 
HETATM   15  C14 UNL     1      23.509   0.567  51.518  1.00  0.00     0.068 C 
HETATM   16  C15 UNL     1      22.490   0.428  52.582  1.00  0.00    -0.028 A 
HETATM   17  C16 UNL     1      23.034  -0.108  53.734  1.00  0.00     0.010 A 
HETATM   18  C17 UNL     1      22.293  -0.357  54.869  1.00  0.00     0.001 A 
HETATM   19  C18 UNL     1      20.944  -0.087  54.941  1.00  0.00     0.002 A 
HETATM   20  C19 UNL     1      20.430   0.455  53.756  1.00  0.00     0.030 A 
HETATM   21  C20 UNL     1      21.139   0.717  52.603  1.00  0.00     0.039 A 
HETATM   22  N1  UNL     1      20.472   1.293  51.478  1.00  0.00    -0.350 N 
HETATM   23  H19 UNL     1      20.287   0.334  51.134  1.00  0.00     0.166 HD
ENDROOT
TORSDOF 0
ENDMDL
MODEL 6
REMARK VINA RESULT:      -7.8      4.890      8.440
REMARK  0 active torsions:
REMARK  status: ('A' for Active; 'I' for Inactive)
ROOT
HETATM    1  S1  UNL     1      21.893   5.040  47.596  1.00  0.00    -0.065 SA
HETATM    2  C1  UNL     1      22.660   5.075  49.043  1.00  0.00     0.081 C 
HETATM    3  C2  UNL     1      22.948   6.302  49.775  1.00  0.00     0.096 C 
HETATM    4  C3  UNL     1      24.286   6.327  50.405  1.00  0.00    -0.024 C 
HETATM    5  C4  UNL     1      25.427   6.992  50.396  1.00  0.00    -0.026 C 
HETATM    6  C5  UNL     1      25.957   8.153  49.670  1.00  0.00     0.066 C 
HETATM    7  C6  UNL     1      27.130   7.807  48.864  1.00  0.00    -0.044 A 
HETATM    8  C7  UNL     1      27.864   8.868  48.411  1.00  0.00     0.008 A 
HETATM    9  C8  UNL     1      28.976   8.640  47.639  1.00  0.00     0.001 A 
HETATM   10  C9  UNL     1      29.469   7.427  47.244  1.00  0.00     0.001 A 
HETATM   11  C10 UNL     1      28.689   6.367  47.729  1.00  0.00     0.012 A 
HETATM   12  C11 UNL     1      27.566   6.560  48.509  1.00  0.00    -0.030 A 
HETATM   13  C12 UNL     1      27.003   5.264  48.862  1.00  0.00     0.008 C 
HETATM   14  C13 UNL     1      26.823   4.240  49.669  1.00  0.00    -0.021 C 
HETATM   15  C14 UNL     1      26.027   3.006  49.493  1.00  0.00     0.068 C 
HETATM   16  C15 UNL     1      24.995   2.794  50.532  1.00  0.00    -0.028 A 
HETATM   17  C16 UNL     1      25.520   2.162  51.642  1.00  0.00     0.010 A 
HETATM   18  C17 UNL     1      24.764   1.832  52.746  1.00  0.00     0.001 A 
HETATM   19  C18 UNL     1      23.418   2.111  52.826  1.00  0.00     0.002 A 
HETATM   20  C19 UNL     1      22.923   2.752  51.683  1.00  0.00     0.030 A 
HETATM   21  C20 UNL     1      23.647   3.098  50.562  1.00  0.00     0.039 A 
HETATM   22  N1  UNL     1      22.999   3.770  49.480  1.00  0.00    -0.350 N 
HETATM   23  H19 UNL     1      22.808   2.843  49.059  1.00  0.00     0.166 HD
ENDROOT
TORSDOF 0
ENDMDL
MODEL 7
REMARK VINA RESULT:      -7.6      1.880      2.127
REMARK  0 active torsions:
REMARK  status: ('A' for Active; 'I' for Inactive)
ROOT
HETATM    1  S1  UNL     1      24.248   5.998  50.864  1.00  0.00    -0.065 SA
HETATM    2  C1  UNL     1      24.378   4.410  50.483  1.00  0.00     0.081 C 
HETATM    3  C2  UNL     1      23.959   3.849  49.205  1.00  0.00     0.096 C 
HETATM    4  C3  UNL     1      23.268   2.546  49.317  1.00  0.00    -0.024 C 
HETATM    5  C4  UNL     1      22.115   1.956  49.063  1.00  0.00    -0.026 C 
HETATM    6  C5  UNL     1      20.831   2.371  48.484  1.00  0.00     0.066 C 
HETATM    7  C6  UNL     1      19.728   2.227  49.436  1.00  0.00    -0.044 A 
HETATM    8  C7  UNL     1      18.473   2.291  48.895  1.00  0.00     0.008 A 
HETATM    9  C8  UNL     1      17.377   2.177  49.714  1.00  0.00     0.001 A 
HETATM   10  C9  UNL     1      17.379   2.000  51.070  1.00  0.00     0.001 A 
HETATM   11  C10 UNL     1      18.682   1.940  51.584  1.00  0.00     0.012 A 
HETATM   12  C11 UNL     1      19.807   2.050  50.790  1.00  0.00    -0.030 A 
HETATM   13  C12 UNL     1      20.993   1.925  51.625  1.00  0.00     0.008 C 
HETATM   14  C13 UNL     1      21.995   1.253  52.152  1.00  0.00    -0.021 C 
HETATM   15  C14 UNL     1      23.066   1.691  53.074  1.00  0.00     0.068 C 
HETATM   16  C15 UNL     1      24.436   1.483  52.557  1.00  0.00    -0.028 A 
HETATM   17  C16 UNL     1      24.886   0.204  52.823  1.00  0.00     0.010 A 
HETATM   18  C17 UNL     1      26.139  -0.242  52.463  1.00  0.00     0.001 A 
HETATM   19  C18 UNL     1      27.045   0.561  51.804  1.00  0.00     0.002 A 
HETATM   20  C19 UNL     1      26.552   1.848  51.552  1.00  0.00     0.030 A 
HETATM   21  C20 UNL     1      25.307   2.329  51.897  1.00  0.00     0.039 A 
HETATM   22  N1  UNL     1      24.943   3.667  51.550  1.00  0.00    -0.350 N 
HETATM   23  H19 UNL     1      25.305   3.972  52.471  1.00  0.00     0.166 HD
ENDROOT
TORSDOF 0
ENDMDL
MODEL 8
REMARK VINA RESULT:      -7.6     10.724     13.243
REMARK  0 active torsions:
REMARK  status: ('A' for Active; 'I' for Inactive)
ROOT
HETATM    1  S1  UNL     1      31.638   9.724  44.406  1.00  0.00    -0.065 SA
HETATM    2  C1  UNL     1      31.416   9.612  46.025  1.00  0.00     0.081 C 
HETATM    3  C2  UNL     1      32.505   9.633  46.993  1.00  0.00     0.096 C 
HETATM    4  C3  UNL     1      32.344   8.666  48.101  1.00  0.00    -0.024 C 
HETATM    5  C4  UNL     1      32.919   7.613  48.653  1.00  0.00    -0.026 C 
HETATM    6  C5  UNL     1      34.127   6.821  48.391  1.00  0.00     0.066 C 
HETATM    7  C6  UNL     1      33.811   5.425  48.079  1.00  0.00    -0.044 A 
HETATM    8  C7  UNL     1      34.868   4.559  48.128  1.00  0.00     0.008 A 
HETATM    9  C8  UNL     1      34.668   3.231  47.840  1.00  0.00     0.001 A 
HETATM   10  C9  UNL     1      33.488   2.634  47.491  1.00  0.00     0.001 A 
HETATM   11  C10 UNL     1      32.431   3.555  47.452  1.00  0.00     0.012 A 
HETATM   12  C11 UNL     1      32.595   4.897  47.737  1.00  0.00    -0.030 A 
HETATM   13  C12 UNL     1      31.308   5.569  47.628  1.00  0.00     0.008 C 
HETATM   14  C13 UNL     1      30.198   6.072  48.126  1.00  0.00    -0.021 C 
HETATM   15  C14 UNL     1      29.062   6.741  47.456  1.00  0.00     0.068 C 
HETATM   16  C15 UNL     1      28.786   8.109  47.948  1.00  0.00    -0.028 A 
HETATM   17  C16 UNL     1      27.969   8.088  49.062  1.00  0.00     0.010 A 
HETATM   18  C17 UNL     1      27.547   9.231  49.705  1.00  0.00     0.001 A 
HETATM   19  C18 UNL     1      27.910  10.490  49.282  1.00  0.00     0.002 A 
HETATM   20  C19 UNL     1      28.737  10.470  48.152  1.00  0.00     0.030 A 
HETATM   21  C20 UNL     1      29.180   9.349  47.483  1.00  0.00     0.039 A 
HETATM   22  N1  UNL     1      30.041   9.493  46.351  1.00  0.00    -0.350 N 
HETATM   23  H19 UNL     1      29.198   9.508  45.750  1.00  0.00     0.166 HD
ENDROOT
TORSDOF 0
ENDMDL
MODEL 9
REMARK VINA RESULT:      -7.3      2.980      5.623
REMARK  0 active torsions:
REMARK  status: ('A' for Active; 'I' for Inactive)
ROOT
HETATM    1  S1  UNL     1      22.582   2.116  47.244  1.00  0.00    -0.065 SA
HETATM    2  C1  UNL     1      23.105   3.108  48.437  1.00  0.00     0.081 C 
HETATM    3  C2  UNL     1      24.288   2.844  49.247  1.00  0.00     0.096 C 
HETATM    4  C3  UNL     1      24.119   3.161  50.682  1.00  0.00    -0.024 C 
HETATM    5  C4  UNL     1      24.138   2.603  51.878  1.00  0.00    -0.026 C 
HETATM    6  C5  UNL     1      24.363   1.249  52.400  1.00  0.00     0.066 C 
HETATM    7  C6  UNL     1      23.191   0.733  53.110  1.00  0.00    -0.044 A 
HETATM    8  C7  UNL     1      23.413  -0.372  53.884  1.00  0.00     0.008 A 
HETATM    9  C8  UNL     1      22.370  -0.932  54.579  1.00  0.00     0.001 A 
HETATM   10  C9  UNL     1      21.071  -0.505  54.596  1.00  0.00     0.001 A 
HETATM   11  C10 UNL     1      20.885   0.629  53.792  1.00  0.00     0.012 A 
HETATM   12  C11 UNL     1      21.912   1.219  53.081  1.00  0.00    -0.030 A 
HETATM   13  C12 UNL     1      21.394   2.379  52.370  1.00  0.00     0.008 C 
HETATM   14  C13 UNL     1      21.172   3.670  52.229  1.00  0.00    -0.021 C 
HETATM   15  C14 UNL     1      20.498   4.415  51.144  1.00  0.00     0.068 C 
HETATM   16  C15 UNL     1      21.339   5.450  50.504  1.00  0.00    -0.028 A 
HETATM   17  C16 UNL     1      21.288   6.642  51.200  1.00  0.00     0.010 A 
HETATM   18  C17 UNL     1      21.969   7.773  50.805  1.00  0.00     0.001 A 
HETATM   19  C18 UNL     1      22.758   7.801  49.676  1.00  0.00     0.002 A 
HETATM   20  C19 UNL     1      22.785   6.575  48.998  1.00  0.00     0.030 A 
HETATM   21  C20 UNL     1      22.119   5.424  49.363  1.00  0.00     0.039 A 
HETATM   22  N1  UNL     1      22.264   4.242  48.574  1.00  0.00    -0.350 N 
HETATM   23  H19 UNL     1      21.434   4.538  48.031  1.00  0.00     0.166 HD
ENDROOT
TORSDOF 0
ENDMDL
