MODEL 1
REMARK VINA RESULT:      -7.8      0.000      0.000
REMARK  8 active torsions:
REMARK  status: ('A' for Active; 'I' for Inactive)
REMARK    1  A    between atoms: N1_3  and  C3_4 
REMARK    2  A    between atoms: C3_4  and  C4_5 
REMARK    3  A    between atoms: C4_5  and  O1_6 
REMARK    4  A    between atoms: C4_5  and  O2_7 
REMARK    5  A    between atoms: O2_7  and  C5_8 
REMARK    6  A    between atoms: C8_11  and  N2_12 
REMARK    7  A    between atoms: N2_12  and  C9_13 
REMARK    8  A    between atoms: C16_24  and  O3_25 
ROOT
HETATM    1  C5  UNL     1      23.921   0.261  52.965  1.00  0.00     0.106 A 
HETATM    2  C6  UNL     1      24.108   1.245  51.984  1.00  0.00     0.057 A 
HETATM    3  C7  UNL     1      23.139   2.176  51.602  1.00  0.00     0.042 A 
HETATM    4  C8  UNL     1      23.319   3.148  50.647  1.00  0.00     0.142 A 
HETATM    5  N3  UNL     1      22.280   3.980  50.398  1.00  0.00    -0.224 NA
HETATM    6  C13 UNL     1      21.106   3.899  51.034  1.00  0.00     0.236 A 
HETATM    7  N4  UNL     1      20.895   2.952  51.980  1.00  0.00    -0.241 NA
HETATM    8  C14 UNL     1      21.910   2.093  52.262  1.00  0.00     0.075 A 
HETATM    9  C15 UNL     1      21.690   1.134  53.235  1.00  0.00     0.072 A 
HETATM   10  C16 UNL     1      22.674   0.227  53.589  1.00  0.00     0.103 A 
ENDROOT
BRANCH   1  11
HETATM   11  O2  UNL     1      25.051  -0.473  53.098  1.00  0.00    -0.316 OA
BRANCH  11  12
HETATM   12  C4  UNL     1      26.039  -0.504  54.052  1.00  0.00     0.283 C 
BRANCH  12  13
HETATM   13  C3  UNL     1      26.788   0.811  54.196  1.00  0.00     0.208 C 
BRANCH  13  14
HETATM   14  N1  UNL     1      27.921   0.574  55.037  1.00  0.00    -0.301 NA
HETATM   15  C2  UNL     1      28.936  -0.035  54.553  1.00  0.00     0.079 C 
HETATM   16  C1  UNL     1      29.792  -0.734  53.561  1.00  0.00     0.056 C 
ENDBRANCH  13  14
ENDBRANCH  12  13
BRANCH  12  17
HETATM   17  O1  UNL     1      25.578  -0.819  55.333  1.00  0.00    -0.369 OA
HETATM   18  H8  UNL     1      26.203  -0.405  55.972  1.00  0.00     0.212 HD
ENDBRANCH  12  17
ENDBRANCH  11  12
ENDBRANCH   1  11
BRANCH  10  19
HETATM   19  O3  UNL     1      22.633  -0.782  54.523  1.00  0.00    -0.353 OA
HETATM   20  C17 UNL     1      21.631  -1.759  54.457  1.00  0.00     0.210 C 
ENDBRANCH  10  19
BRANCH   4  21
HETATM   21  N2  UNL     1      24.571   3.152  49.989  1.00  0.00    -0.338 N 
HETATM   22  H10 UNL     1      25.083   2.246  49.802  1.00  0.00     0.167 HD
BRANCH  21  23
HETATM   23  C9  UNL     1      25.373   4.194  49.454  1.00  0.00     0.076 A 
HETATM   24  C10 UNL     1      25.627   5.386  48.956  1.00  0.00     0.164 A 
HETATM   25  F1  UNL     1      24.714   6.362  48.739  1.00  0.00    -0.202 F 
HETATM   26  C11 UNL     1      27.054   5.079  48.827  1.00  0.00     0.077 A 
HETATM   27 CL1  UNL     1      28.288   6.172  48.183  1.00  0.00    -0.081 Cl
HETATM   28  C12 UNL     1      26.808   3.855  49.338  1.00  0.00     0.059 A 
ENDBRANCH  21  23
ENDBRANCH   4  21
TORSDOF 8
ENDMDL
MODEL 2
REMARK VINA RESULT:      -7.7      3.793      5.885
REMARK  8 active torsions:
REMARK  status: ('A' for Active; 'I' for Inactive)
REMARK    1  A    between atoms: N1_3  and  C3_4 
REMARK    2  A    between atoms: C3_4  and  C4_5 
REMARK    3  A    between atoms: C4_5  and  O1_6 
REMARK    4  A    between atoms: C4_5  and  O2_7 
REMARK    5  A    between atoms: O2_7  and  C5_8 
REMARK    6  A    between atoms: C8_11  and  N2_12 
REMARK    7  A    between atoms: N2_12  and  C9_13 
REMARK    8  A    between atoms: C16_24  and  O3_25 
ROOT
HETATM    1  C5  UNL     1      21.859   3.132  52.197  1.00  0.00     0.106 A 
HETATM    2  C6  UNL     1      22.860   2.205  52.518  1.00  0.00     0.057 A 
HETATM    3  C7  UNL     1      22.623   0.947  53.080  1.00  0.00     0.042 A 
HETATM    4  C8  UNL     1      23.601   0.031  53.389  1.00  0.00     0.142 A 
HETATM    5  N3  UNL     1      23.204  -1.149  53.922  1.00  0.00    -0.224 NA
HETATM    6  C13 UNL     1      21.923  -1.457  54.154  1.00  0.00     0.236 A 
HETATM    7  N4  UNL     1      20.936  -0.577  53.862  1.00  0.00    -0.241 NA
HETATM    8  C14 UNL     1      21.287   0.623  53.326  1.00  0.00     0.075 A 
HETATM    9  C15 UNL     1      20.273   1.514  53.023  1.00  0.00     0.072 A 
HETATM   10  C16 UNL     1      20.543   2.752  52.466  1.00  0.00     0.103 A 
ENDROOT
BRANCH   1  11
HETATM   11  O2  UNL     1      22.418   4.245  51.668  1.00  0.00    -0.316 OA
BRANCH  11  12
HETATM   12  C4  UNL     1      23.692   4.760  51.706  1.00  0.00     0.283 C 
BRANCH  12  13
HETATM   13  C3  UNL     1      24.209   5.206  50.347  1.00  0.00     0.208 C 
BRANCH  13  14
HETATM   14  N1  UNL     1      24.456   4.031  49.571  1.00  0.00    -0.301 NA
HETATM   15  C2  UNL     1      25.397   3.240  49.925  1.00  0.00     0.079 C 
HETATM   16  C1  UNL     1      26.528   2.697  50.718  1.00  0.00     0.056 C 
ENDBRANCH  13  14
ENDBRANCH  12  13
BRANCH  12  17
HETATM   17  O1  UNL     1      23.828   5.869  52.545  1.00  0.00    -0.369 OA
HETATM   18  H8  UNL     1      22.982   6.371  52.496  1.00  0.00     0.212 HD
ENDBRANCH  12  17
ENDBRANCH  11  12
ENDBRANCH   1  11
BRANCH  10  19
HETATM   19  O3  UNL     1      19.673   3.752  52.103  1.00  0.00    -0.353 OA
HETATM   20  C17 UNL     1      18.531   3.450  51.350  1.00  0.00     0.210 C 
ENDBRANCH  10  19
BRANCH   4  21
HETATM   21  N2  UNL     1      24.935   0.437  53.151  1.00  0.00    -0.338 N 
HETATM   22  H10 UNL     1      25.168   1.457  53.006  1.00  0.00     0.167 HD
BRANCH  21  23
HETATM   23  C9  UNL     1      26.158  -0.279  53.071  1.00  0.00     0.076 A 
HETATM   24  C10 UNL     1      26.956  -1.269  52.728  1.00  0.00     0.164 A 
HETATM   25  F1  UNL     1      26.594  -2.368  52.025  1.00  0.00    -0.202 F 
HETATM   26  C11 UNL     1      28.102  -0.631  53.382  1.00  0.00     0.077 A 
HETATM   27 CL1  UNL     1      29.742  -1.292  53.458  1.00  0.00    -0.081 Cl
HETATM   28  C12 UNL     1      27.295   0.389  53.738  1.00  0.00     0.059 A 
ENDBRANCH  21  23
ENDBRANCH   4  21
TORSDOF 8
ENDMDL
MODEL 3
REMARK VINA RESULT:      -7.7      3.518      5.462
REMARK  8 active torsions:
REMARK  status: ('A' for Active; 'I' for Inactive)
REMARK    1  A    between atoms: N1_3  and  C3_4 
REMARK    2  A    between atoms: C3_4  and  C4_5 
REMARK    3  A    between atoms: C4_5  and  O1_6 
REMARK    4  A    between atoms: C4_5  and  O2_7 
REMARK    5  A    between atoms: O2_7  and  C5_8 
REMARK    6  A    between atoms: C8_11  and  N2_12 
REMARK    7  A    between atoms: N2_12  and  C9_13 
REMARK    8  A    between atoms: C16_24  and  O3_25 
ROOT
HETATM    1  C5  UNL     1      22.428   1.630  52.368  1.00  0.00     0.106 A 
HETATM    2  C6  UNL     1      23.807   1.709  52.603  1.00  0.00     0.057 A 
HETATM    3  C7  UNL     1      24.732   2.256  51.708  1.00  0.00     0.042 A 
HETATM    4  C8  UNL     1      26.085   2.344  51.936  1.00  0.00     0.142 A 
HETATM    5  N3  UNL     1      26.845   2.911  50.969  1.00  0.00    -0.224 NA
HETATM    6  C13 UNL     1      26.344   3.384  49.823  1.00  0.00     0.236 A 
HETATM    7  N4  UNL     1      25.015   3.312  49.567  1.00  0.00    -0.241 NA
HETATM    8  C14 UNL     1      24.212   2.749  50.509  1.00  0.00     0.075 A 
HETATM    9  C15 UNL     1      22.855   2.687  50.244  1.00  0.00     0.072 A 
HETATM   10  C16 UNL     1      21.967   2.137  51.153  1.00  0.00     0.103 A 
ENDROOT
BRANCH   1  11
HETATM   11  O2  UNL     1      21.816   1.052  53.429  1.00  0.00    -0.316 OA
BRANCH  11  12
HETATM   12  C4  UNL     1      21.055  -0.084  53.565  1.00  0.00     0.283 C 
BRANCH  12  13
HETATM   13  C3  UNL     1      21.877  -1.355  53.713  1.00  0.00     0.208 C 
BRANCH  13  14
HETATM   14  N1  UNL     1      22.140  -1.540  55.107  1.00  0.00    -0.301 NA
HETATM   15  C2  UNL     1      23.334  -1.386  55.538  1.00  0.00     0.079 C 
HETATM   16  C1  UNL     1      24.792  -1.107  55.516  1.00  0.00     0.056 C 
ENDBRANCH  13  14
ENDBRANCH  12  13
BRANCH  12  17
HETATM   17  O1  UNL     1      20.195  -0.060  54.666  1.00  0.00    -0.369 OA
HETATM   18  H8  UNL     1      20.744   0.166  55.453  1.00  0.00     0.212 HD
ENDBRANCH  12  17
ENDBRANCH  11  12
ENDBRANCH   1  11
BRANCH  10  19
HETATM   19  O3  UNL     1      20.603   1.994  51.060  1.00  0.00    -0.353 OA
HETATM   20  C17 UNL     1      20.051   1.151  50.087  1.00  0.00     0.210 C 
ENDBRANCH  10  19
BRANCH   4  21
HETATM   21  N2  UNL     1      26.550   1.791  53.152  1.00  0.00    -0.338 N 
HETATM   22  H10 UNL     1      26.288   2.231  54.077  1.00  0.00     0.167 HD
BRANCH  21  23
HETATM   23  C9  UNL     1      27.354   0.660  53.448  1.00  0.00     0.076 A 
HETATM   24  C10 UNL     1      28.213  -0.063  54.137  1.00  0.00     0.164 A 
HETATM   25  F1  UNL     1      28.815   0.311  55.290  1.00  0.00    -0.202 F 
HETATM   26  C11 UNL     1      28.130  -1.163  53.172  1.00  0.00     0.077 A 
HETATM   27 CL1  UNL     1      29.024  -2.687  53.270  1.00  0.00    -0.081 Cl
HETATM   28  C12 UNL     1      27.248  -0.434  52.459  1.00  0.00     0.059 A 
ENDBRANCH  21  23
ENDBRANCH   4  21
TORSDOF 8
ENDMDL
MODEL 4
REMARK VINA RESULT:      -7.7      3.588      6.018
REMARK  8 active torsions:
REMARK  status: ('A' for Active; 'I' for Inactive)
REMARK    1  A    between atoms: N1_3  and  C3_4 
REMARK    2  A    between atoms: C3_4  and  C4_5 
REMARK    3  A    between atoms: C4_5  and  O1_6 
REMARK    4  A    between atoms: C4_5  and  O2_7 
REMARK    5  A    between atoms: O2_7  and  C5_8 
REMARK    6  A    between atoms: C8_11  and  N2_12 
REMARK    7  A    between atoms: N2_12  and  C9_13 
REMARK    8  A    between atoms: C16_24  and  O3_25 
ROOT
HETATM    1  C5  UNL     1      23.227   1.740  51.067  1.00  0.00     0.106 A 
HETATM    2  C6  UNL     1      23.866   1.151  52.167  1.00  0.00     0.057 A 
HETATM    3  C7  UNL     1      23.270   0.220  53.023  1.00  0.00     0.042 A 
HETATM    4  C8  UNL     1      23.894  -0.366  54.098  1.00  0.00     0.142 A 
HETATM    5  N3  UNL     1      23.179  -1.258  54.825  1.00  0.00    -0.224 NA
HETATM    6  C13 UNL     1      21.914  -1.588  54.544  1.00  0.00     0.236 A 
HETATM    7  N4  UNL     1      21.270  -1.028  53.493  1.00  0.00    -0.241 NA
HETATM    8  C14 UNL     1      21.948  -0.125  52.734  1.00  0.00     0.075 A 
HETATM    9  C15 UNL     1      21.286   0.436  51.656  1.00  0.00     0.072 A 
HETATM   10  C16 UNL     1      21.907   1.356  50.829  1.00  0.00     0.103 A 
ENDROOT
BRANCH   1  11
HETATM   11  O2  UNL     1      24.077   2.591  50.446  1.00  0.00    -0.316 OA
BRANCH  11  12
HETATM   12  C4  UNL     1      25.182   3.287  50.874  1.00  0.00     0.283 C 
BRANCH  12  13
HETATM   13  C3  UNL     1      26.278   3.395  49.826  1.00  0.00     0.208 C 
BRANCH  13  14
HETATM   14  N1  UNL     1      26.195   4.700  49.245  1.00  0.00    -0.301 NA
HETATM   15  C2  UNL     1      27.233   5.199  48.691  1.00  0.00     0.079 C 
HETATM   16  C1  UNL     1      28.633   5.305  48.208  1.00  0.00     0.056 C 
ENDBRANCH  13  14
ENDBRANCH  12  13
BRANCH  12  17
HETATM   17  O1  UNL     1      24.905   4.599  51.268  1.00  0.00    -0.369 OA
HETATM   18  H8  UNL     1      24.377   5.009  50.545  1.00  0.00     0.212 HD
ENDBRANCH  12  17
ENDBRANCH  11  12
ENDBRANCH   1  11
BRANCH  10  19
HETATM   19  O3  UNL     1      21.410   2.009  49.725  1.00  0.00    -0.353 OA
HETATM   20  C17 UNL     1      21.515   1.423  48.457  1.00  0.00     0.210 C 
ENDBRANCH  10  19
BRANCH   4  21
HETATM   21  N2  UNL     1      25.219   0.056  54.358  1.00  0.00    -0.338 N 
HETATM   22  H10 UNL     1      25.408   0.848  55.033  1.00  0.00     0.167 HD
BRANCH  21  23
HETATM   23  C9  UNL     1      26.481  -0.392  53.888  1.00  0.00     0.076 A 
HETATM   24  C10 UNL     1      27.312  -1.081  53.133  1.00  0.00     0.164 A 
HETATM   25  F1  UNL     1      26.957  -1.941  52.150  1.00  0.00    -0.202 F 
HETATM   26  C11 UNL     1      28.476  -0.510  53.816  1.00  0.00     0.077 A 
HETATM   27 CL1  UNL     1      30.167  -0.891  53.458  1.00  0.00    -0.081 Cl
HETATM   28  C12 UNL     1      27.636   0.201  54.594  1.00  0.00     0.059 A 
ENDBRANCH  21  23
ENDBRANCH   4  21
TORSDOF 8
ENDMDL
MODEL 5
REMARK VINA RESULT:      -7.6      3.893      6.089
REMARK  8 active torsions:
REMARK  status: ('A' for Active; 'I' for Inactive)
REMARK    1  A    between atoms: N1_3  and  C3_4 
REMARK    2  A    between atoms: C3_4  and  C4_5 
REMARK    3  A    between atoms: C4_5  and  O1_6 
REMARK    4  A    between atoms: C4_5  and  O2_7 
REMARK    5  A    between atoms: O2_7  and  C5_8 
REMARK    6  A    between atoms: C8_11  and  N2_12 
REMARK    7  A    between atoms: N2_12  and  C9_13 
REMARK    8  A    between atoms: C16_24  and  O3_25 
ROOT
HETATM    1  C5  UNL     1      26.253   2.843  50.941  1.00  0.00     0.106 A 
HETATM    2  C6  UNL     1      25.019   2.484  51.502  1.00  0.00     0.057 A 
HETATM    3  C7  UNL     1      23.783   2.980  51.078  1.00  0.00     0.042 A 
HETATM    4  C8  UNL     1      22.570   2.626  51.620  1.00  0.00     0.142 A 
HETATM    5  N3  UNL     1      21.460   3.193  51.088  1.00  0.00    -0.224 NA
HETATM    6  C13 UNL     1      21.494   4.065  50.075  1.00  0.00     0.236 A 
HETATM    7  N4  UNL     1      22.673   4.435  49.520  1.00  0.00    -0.241 NA
HETATM    8  C14 UNL     1      23.815   3.893  50.021  1.00  0.00     0.075 A 
HETATM    9  C15 UNL     1      25.014   4.270  49.444  1.00  0.00     0.072 A 
HETATM   10  C16 UNL     1      26.221   3.759  49.889  1.00  0.00     0.103 A 
ENDROOT
BRANCH   1  11
HETATM   11  O2  UNL     1      27.252   2.184  51.575  1.00  0.00    -0.316 OA
BRANCH  11  12
HETATM   12  C4  UNL     1      27.725   2.220  52.865  1.00  0.00     0.283 C 
BRANCH  12  13
HETATM   13  C3  UNL     1      28.053   0.848  53.431  1.00  0.00     0.208 C 
BRANCH  13  14
HETATM   14  N1  UNL     1      27.397   0.735  54.698  1.00  0.00    -0.301 NA
HETATM   15  C2  UNL     1      26.266   0.142  54.760  1.00  0.00     0.079 C 
HETATM   16  C1  UNL     1      25.056  -0.589  54.307  1.00  0.00     0.056 C 
ENDBRANCH  13  14
ENDBRANCH  12  13
BRANCH  12  17
HETATM   17  O1  UNL     1      28.887   2.980  53.019  1.00  0.00    -0.369 OA
HETATM   18  H8  UNL     1      28.856   3.370  53.923  1.00  0.00     0.212 HD
ENDBRANCH  12  17
ENDBRANCH  11  12
ENDBRANCH   1  11
BRANCH  10  19
HETATM   19  O3  UNL     1      27.494   4.016  49.440  1.00  0.00    -0.353 OA
HETATM   20  C17 UNL     1      27.732   5.104  48.590  1.00  0.00     0.210 C 
ENDBRANCH  10  19
BRANCH   4  21
HETATM   21  N2  UNL     1      22.612   1.728  52.711  1.00  0.00    -0.338 N 
HETATM   22  H10 UNL     1      23.462   1.681  53.337  1.00  0.00     0.167 HD
BRANCH  21  23
HETATM   23  C9  UNL     1      21.674   0.793  53.223  1.00  0.00     0.076 A 
HETATM   24  C10 UNL     1      21.137  -0.009  54.118  1.00  0.00     0.164 A 
HETATM   25  F1  UNL     1      21.600  -0.216  55.373  1.00  0.00    -0.202 F 
HETATM   26  C11 UNL     1      20.073  -0.405  53.191  1.00  0.00     0.077 A 
HETATM   27 CL1  UNL     1      18.778  -1.560  53.543  1.00  0.00    -0.081 Cl
HETATM   28  C12 UNL     1      20.613   0.414  52.266  1.00  0.00     0.059 A 
ENDBRANCH  21  23
ENDBRANCH   4  21
TORSDOF 8
ENDMDL
MODEL 6
REMARK VINA RESULT:      -7.5      1.969      2.532
REMARK  8 active torsions:
REMARK  status: ('A' for Active; 'I' for Inactive)
REMARK    1  A    between atoms: N1_3  and  C3_4 
REMARK    2  A    between atoms: C3_4  and  C4_5 
REMARK    3  A    between atoms: C4_5  and  O1_6 
REMARK    4  A    between atoms: C4_5  and  O2_7 
REMARK    5  A    between atoms: O2_7  and  C5_8 
REMARK    6  A    between atoms: C8_11  and  N2_12 
REMARK    7  A    between atoms: N2_12  and  C9_13 
REMARK    8  A    between atoms: C16_24  and  O3_25 
ROOT
HETATM    1  C5  UNL     1      25.346   1.801  53.615  1.00  0.00     0.106 A 
HETATM    2  C6  UNL     1      24.718   2.976  53.178  1.00  0.00     0.057 A 
HETATM    3  C7  UNL     1      23.416   3.037  52.675  1.00  0.00     0.042 A 
HETATM    4  C8  UNL     1      22.792   4.187  52.253  1.00  0.00     0.142 A 
HETATM    5  N3  UNL     1      21.521   4.077  51.798  1.00  0.00    -0.224 NA
HETATM    6  C13 UNL     1      20.857   2.917  51.747  1.00  0.00     0.236 A 
HETATM    7  N4  UNL     1      21.442   1.766  52.154  1.00  0.00    -0.241 NA
HETATM    8  C14 UNL     1      22.720   1.827  52.617  1.00  0.00     0.075 A 
HETATM    9  C15 UNL     1      23.308   0.648  53.039  1.00  0.00     0.072 A 
HETATM   10  C16 UNL     1      24.602   0.624  53.532  1.00  0.00     0.103 A 
ENDROOT
BRANCH   1  11
HETATM   11  O2  UNL     1      26.598   2.084  54.045  1.00  0.00    -0.316 OA
BRANCH  11  12
HETATM   12  C4  UNL     1      27.743   2.479  53.395  1.00  0.00     0.283 C 
BRANCH  12  13
HETATM   13  C3  UNL     1      29.021   2.070  54.110  1.00  0.00     0.208 C 
BRANCH  13  14
HETATM   14  N1  UNL     1      28.734   0.895  54.873  1.00  0.00    -0.301 NA
HETATM   15  C2  UNL     1      29.134  -0.240  54.440  1.00  0.00     0.079 C 
HETATM   16  C1  UNL     1      29.782  -1.234  53.548  1.00  0.00     0.056 C 
ENDBRANCH  13  14
ENDBRANCH  12  13
BRANCH  12  17
HETATM   17  O1  UNL     1      27.858   1.973  52.097  1.00  0.00    -0.369 OA
HETATM   18  H8  UNL     1      27.139   2.383  51.565  1.00  0.00     0.212 HD
ENDBRANCH  12  17
ENDBRANCH  11  12
ENDBRANCH   1  11
BRANCH  10  19
HETATM   19  O3  UNL     1      25.339  -0.442  53.992  1.00  0.00    -0.353 OA
HETATM   20  C17 UNL     1      26.053  -1.242  53.091  1.00  0.00     0.210 C 
ENDBRANCH  10  19
BRANCH   4  21
HETATM   21  N2  UNL     1      23.566   5.370  52.301  1.00  0.00    -0.338 N 
HETATM   22  H10 UNL     1      23.783   5.833  53.226  1.00  0.00     0.167 HD
BRANCH  21  23
HETATM   23  C9  UNL     1      24.195   6.148  51.295  1.00  0.00     0.076 A 
HETATM   24  C10 UNL     1      24.524   7.248  50.650  1.00  0.00     0.164 A 
HETATM   25  F1  UNL     1      24.131   8.502  50.975  1.00  0.00    -0.202 F 
HETATM   26  C11 UNL     1      25.319   6.495  49.677  1.00  0.00     0.077 A 
HETATM   27 CL1  UNL     1      26.202   7.190  48.310  1.00  0.00    -0.081 Cl
HETATM   28  C12 UNL     1      24.991   5.361  50.329  1.00  0.00     0.059 A 
ENDBRANCH  21  23
ENDBRANCH   4  21
TORSDOF 8
ENDMDL
MODEL 7
REMARK VINA RESULT:      -7.5      1.369      1.487
REMARK  8 active torsions:
REMARK  status: ('A' for Active; 'I' for Inactive)
REMARK    1  A    between atoms: N1_3  and  C3_4 
REMARK    2  A    between atoms: C3_4  and  C4_5 
REMARK    3  A    between atoms: C4_5  and  O1_6 
REMARK    4  A    between atoms: C4_5  and  O2_7 
REMARK    5  A    between atoms: O2_7  and  C5_8 
REMARK    6  A    between atoms: C8_11  and  N2_12 
REMARK    7  A    between atoms: N2_12  and  C9_13 
REMARK    8  A    between atoms: C16_24  and  O3_25 
ROOT
HETATM    1  C5  UNL     1      23.693   0.726  52.955  1.00  0.00     0.106 A 
HETATM    2  C6  UNL     1      23.743   1.881  52.162  1.00  0.00     0.057 A 
HETATM    3  C7  UNL     1      22.787   2.224  51.203  1.00  0.00     0.042 A 
HETATM    4  C8  UNL     1      22.827   3.360  50.429  1.00  0.00     0.142 A 
HETATM    5  N3  UNL     1      21.815   3.551  49.548  1.00  0.00    -0.224 NA
HETATM    6  C13 UNL     1      20.795   2.698  49.405  1.00  0.00     0.236 A 
HETATM    7  N4  UNL     1      20.726   1.569  50.151  1.00  0.00    -0.241 NA
HETATM    8  C14 UNL     1      21.721   1.334  51.048  1.00  0.00     0.075 A 
HETATM    9  C15 UNL     1      21.640   0.184  51.813  1.00  0.00     0.072 A 
HETATM   10  C16 UNL     1      22.606  -0.125  52.755  1.00  0.00     0.103 A 
ENDROOT
BRANCH   1  11
HETATM   11  O2  UNL     1      24.764   0.692  53.783  1.00  0.00    -0.316 OA
BRANCH  11  12
HETATM   12  C4  UNL     1      25.973   0.041  53.722  1.00  0.00     0.283 C 
BRANCH  12  13
HETATM   13  C3  UNL     1      26.831   0.232  54.963  1.00  0.00     0.208 C 
BRANCH  13  14
HETATM   14  N1  UNL     1      28.010   0.940  54.568  1.00  0.00    -0.301 NA
HETATM   15  C2  UNL     1      29.003   0.281  54.106  1.00  0.00     0.079 C 
HETATM   16  C1  UNL     1      29.811  -0.884  53.666  1.00  0.00     0.056 C 
ENDBRANCH  13  14
ENDBRANCH  12  13
BRANCH  12  17
HETATM   17  O1  UNL     1      25.861  -1.341  53.549  1.00  0.00    -0.369 OA
HETATM   18  H8  UNL     1      26.251  -1.552  52.670  1.00  0.00     0.212 HD
ENDBRANCH  12  17
ENDBRANCH  11  12
ENDBRANCH   1  11
BRANCH  10  19
HETATM   19  O3  UNL     1      22.686  -1.210  53.595  1.00  0.00    -0.353 OA
HETATM   20  C17 UNL     1      21.648  -1.479  54.496  1.00  0.00     0.210 C 
ENDBRANCH  10  19
BRANCH   4  21
HETATM   21  N2  UNL     1      23.952   4.198  50.607  1.00  0.00    -0.338 N 
HETATM   22  H10 UNL     1      23.943   4.961  51.338  1.00  0.00     0.167 HD
BRANCH  21  23
HETATM   23  C9  UNL     1      25.224   4.245  49.980  1.00  0.00     0.076 A 
HETATM   24  C10 UNL     1      26.372   3.770  49.543  1.00  0.00     0.164 A 
HETATM   25  F1  UNL     1      26.793   2.488  49.660  1.00  0.00    -0.202 F 
HETATM   26  C11 UNL     1      26.771   5.082  49.026  1.00  0.00     0.077 A 
HETATM   27 CL1  UNL     1      28.300   5.447  48.213  1.00  0.00    -0.081 Cl
HETATM   28  C12 UNL     1      25.598   5.581  49.468  1.00  0.00     0.059 A 
ENDBRANCH  21  23
ENDBRANCH   4  21
TORSDOF 8
ENDMDL
MODEL 8
REMARK VINA RESULT:      -7.2      1.915      5.044
REMARK  8 active torsions:
REMARK  status: ('A' for Active; 'I' for Inactive)
REMARK    1  A    between atoms: N1_3  and  C3_4 
REMARK    2  A    between atoms: C3_4  and  C4_5 
REMARK    3  A    between atoms: C4_5  and  O1_6 
REMARK    4  A    between atoms: C4_5  and  O2_7 
REMARK    5  A    between atoms: O2_7  and  C5_8 
REMARK    6  A    between atoms: C8_11  and  N2_12 
REMARK    7  A    between atoms: N2_12  and  C9_13 
REMARK    8  A    between atoms: C16_24  and  O3_25 
ROOT
HETATM    1  C5  UNL     1      22.956   0.657  52.531  1.00  0.00     0.106 A 
HETATM    2  C6  UNL     1      23.835   1.633  52.040  1.00  0.00     0.057 A 
HETATM    3  C7  UNL     1      25.219   1.621  52.235  1.00  0.00     0.042 A 
HETATM    4  C8  UNL     1      26.086   2.571  51.749  1.00  0.00     0.142 A 
HETATM    5  N3  UNL     1      27.403   2.409  52.020  1.00  0.00    -0.224 NA
HETATM    6  C13 UNL     1      27.888   1.382  52.725  1.00  0.00     0.236 A 
HETATM    7  N4  UNL     1      27.061   0.430  53.219  1.00  0.00    -0.241 NA
HETATM    8  C14 UNL     1      25.728   0.550  52.974  1.00  0.00     0.075 A 
HETATM    9  C15 UNL     1      24.890  -0.430  53.474  1.00  0.00     0.072 A 
HETATM   10  C16 UNL     1      23.523  -0.387  53.262  1.00  0.00     0.103 A 
ENDROOT
BRANCH   1  11
HETATM   11  O2  UNL     1      21.687   0.959  52.167  1.00  0.00    -0.316 OA
BRANCH  11  12
HETATM   12  C4  UNL     1      20.639   1.551  52.829  1.00  0.00     0.283 C 
BRANCH  12  13
HETATM   13  C3  UNL     1      19.439   1.836  51.941  1.00  0.00     0.208 C 
BRANCH  13  14
HETATM   14  N1  UNL     1      19.156   3.236  52.032  1.00  0.00    -0.301 NA
HETATM   15  C2  UNL     1      20.038   4.074  51.639  1.00  0.00     0.079 C 
HETATM   16  C1  UNL     1      21.317   4.584  51.084  1.00  0.00     0.056 C 
ENDBRANCH  13  14
ENDBRANCH  12  13
BRANCH  12  17
HETATM   17  O1  UNL     1      20.147   0.794  53.897  1.00  0.00    -0.369 OA
HETATM   18  H8  UNL     1      20.358  -0.148  53.701  1.00  0.00     0.212 HD
ENDBRANCH  12  17
ENDBRANCH  11  12
ENDBRANCH   1  11
BRANCH  10  19
HETATM   19  O3  UNL     1      22.549  -1.264  53.678  1.00  0.00    -0.353 OA
HETATM   20  C17 UNL     1      22.323  -1.464  55.046  1.00  0.00     0.210 C 
ENDBRANCH  10  19
BRANCH   4  21
HETATM   21  N2  UNL     1      25.501   3.648  51.044  1.00  0.00    -0.338 N 
HETATM   22  H10 UNL     1      24.522   3.973  51.275  1.00  0.00     0.167 HD
BRANCH  21  23
HETATM   23  C9  UNL     1      25.978   4.489  50.005  1.00  0.00     0.076 A 
HETATM   24  C10 UNL     1      26.760   4.850  49.008  1.00  0.00     0.164 A 
HETATM   25  F1  UNL     1      27.798   4.133  48.519  1.00  0.00    -0.202 F 
HETATM   26  C11 UNL     1      26.030   6.109  48.832  1.00  0.00     0.077 A 
HETATM   27 CL1  UNL     1      26.403   7.355  47.633  1.00  0.00    -0.081 Cl
HETATM   28  C12 UNL     1      25.221   5.750  49.850  1.00  0.00     0.059 A 
ENDBRANCH  21  23
ENDBRANCH   4  21
TORSDOF 8
ENDMDL
MODEL 9
REMARK VINA RESULT:      -7.1      3.187      6.303
REMARK  8 active torsions:
REMARK  status: ('A' for Active; 'I' for Inactive)
REMARK    1  A    between atoms: N1_3  and  C3_4 
REMARK    2  A    between atoms: C3_4  and  C4_5 
REMARK    3  A    between atoms: C4_5  and  O1_6 
REMARK    4  A    between atoms: C4_5  and  O2_7 
REMARK    5  A    between atoms: O2_7  and  C5_8 
REMARK    6  A    between atoms: C8_11  and  N2_12 
REMARK    7  A    between atoms: N2_12  and  C9_13 
REMARK    8  A    between atoms: C16_24  and  O3_25 
ROOT
HETATM    1  C5  UNL     1      26.327   0.694  52.329  1.00  0.00     0.106 A 
HETATM    2  C6  UNL     1      24.995   0.281  52.480  1.00  0.00     0.057 A 
HETATM    3  C7  UNL     1      24.484  -0.338  53.623  1.00  0.00     0.042 A 
HETATM    4  C8  UNL     1      23.178  -0.738  53.780  1.00  0.00     0.142 A 
HETATM    5  N3  UNL     1      22.839  -1.317  54.956  1.00  0.00    -0.224 NA
HETATM    6  C13 UNL     1      23.705  -1.511  55.956  1.00  0.00     0.236 A 
HETATM    7  N4  UNL     1      24.999  -1.130  55.834  1.00  0.00    -0.241 NA
HETATM    8  C14 UNL     1      25.387  -0.545  54.669  1.00  0.00     0.075 A 
HETATM    9  C15 UNL     1      26.708  -0.150  54.555  1.00  0.00     0.072 A 
HETATM   10  C16 UNL     1      27.181   0.461  53.407  1.00  0.00     0.103 A 
ENDROOT
BRANCH   1  11
HETATM   11  O2  UNL     1      26.495   1.259  51.110  1.00  0.00    -0.316 OA
BRANCH  11  12
HETATM   12  C4  UNL     1      26.578   2.564  50.688  1.00  0.00     0.283 C 
BRANCH  12  13
HETATM   13  C3  UNL     1      25.261   3.319  50.776  1.00  0.00     0.208 C 
BRANCH  13  14
HETATM   14  N1  UNL     1      24.929   3.764  49.458  1.00  0.00    -0.301 NA
HETATM   15  C2  UNL     1      23.802   4.336  49.263  1.00  0.00     0.079 C 
HETATM   16  C1  UNL     1      22.461   4.898  49.563  1.00  0.00     0.056 C 
ENDBRANCH  13  14
ENDBRANCH  12  13
BRANCH  12  17
HETATM   17  O1  UNL     1      27.501   3.332  51.405  1.00  0.00    -0.369 OA
HETATM   18  H8  UNL     1      27.786   2.790  52.177  1.00  0.00     0.212 HD
ENDBRANCH  12  17
ENDBRANCH  11  12
ENDBRANCH   1  11
BRANCH  10  19
HETATM   19  O3  UNL     1      28.447   0.914  53.121  1.00  0.00    -0.353 OA
HETATM   20  C17 UNL     1      29.566   0.241  53.629  1.00  0.00     0.210 C 
ENDBRANCH  10  19
BRANCH   4  21
HETATM   21  N2  UNL     1      22.326  -0.535  52.669  1.00  0.00    -0.338 N 
HETATM   22  H10 UNL     1      22.009  -1.352  52.078  1.00  0.00     0.167 HD
BRANCH  21  23
HETATM   23  C9  UNL     1      21.724   0.627  52.118  1.00  0.00     0.076 A 
HETATM   24  C10 UNL     1      21.484   1.542  51.203  1.00  0.00     0.164 A 
HETATM   25  F1  UNL     1      22.044   1.594  49.971  1.00  0.00    -0.202 F 
HETATM   26  C11 UNL     1      20.540   2.238  52.081  1.00  0.00     0.077 A 
HETATM   27 CL1  UNL     1      19.653   3.715  51.675  1.00  0.00    -0.081 Cl
HETATM   28  C12 UNL     1      20.776   1.306  53.027  1.00  0.00     0.059 A 
ENDBRANCH  21  23
ENDBRANCH   4  21
TORSDOF 8
ENDMDL
