MODEL 1
REMARK VINA RESULT:     -10.4      0.000      0.000
REMARK  6 active torsions:
REMARK  status: ('A' for Active; 'I' for Inactive)
REMARK    1  A    between atoms: O1_2  and  C2_3 
REMARK    2  A    between atoms: C2_3  and  C3_5 
REMARK    3  A    between atoms: C12_14  and  O3_15 
REMARK    4  A    between atoms: O3_15  and  C13_16 
REMARK    5  A    between atoms: C13_16  and  C14_17 
REMARK    6  A    between atoms: C19_22  and  O4_23 
ROOT
HETATM    1  C3  UNL     1      24.370   1.826  52.408  1.00  0.00     0.082 A 
HETATM    2  C4  UNL     1      23.226   2.396  51.921  1.00  0.00    -0.014 A 
HETATM    3  C5  UNL     1      22.013   1.851  52.211  1.00  0.00    -0.009 A 
HETATM    4  C6  UNL     1      21.825   0.705  52.991  1.00  0.00    -0.012 A 
HETATM    5  C7  UNL     1      20.629   0.116  53.309  1.00  0.00     0.013 A 
HETATM    6  C8  UNL     1      20.545  -1.016  54.090  1.00  0.00     0.001 A 
HETATM    7  C9  UNL     1      21.693  -1.596  54.582  1.00  0.00     0.001 A 
HETATM    8  C10 UNL     1      22.892  -1.003  54.263  1.00  0.00     0.015 A 
HETATM    9  C11 UNL     1      22.979   0.120  53.488  1.00  0.00     0.009 A 
HETATM   10  C12 UNL     1      24.200   0.699  53.180  1.00  0.00     0.096 A 
HETATM   11  C20 UNL     1      21.178   2.869  51.591  1.00  0.00    -0.029 C 
HETATM   12  C21 UNL     1      20.141   3.536  51.089  1.00  0.00     0.064 C 
HETATM   13  C22 UNL     1      20.248   4.900  50.526  1.00  0.00     0.183 C 
HETATM   14  O5  UNL     1      19.239   5.479  50.061  1.00  0.00    -0.288 OA
HETATM   15  C23 UNL     1      21.611   5.411  50.597  1.00  0.00     0.021 A 
HETATM   16  C24 UNL     1      21.627   6.771  50.301  1.00  0.00     0.016 A 
HETATM   17  C25 UNL     1      22.788   7.521  50.512  1.00  0.00     0.001 A 
HETATM   18  C26 UNL     1      23.888   6.832  51.023  1.00  0.00     0.001 A 
HETATM   19  C27 UNL     1      23.876   5.471  51.318  1.00  0.00     0.009 A 
HETATM   20  C28 UNL     1      22.719   4.766  51.093  1.00  0.00    -0.031 A 
HETATM   21  C29 UNL     1      22.475   3.347  51.123  1.00  0.00     0.088 C 
ENDROOT
BRANCH  10  22
HETATM   22  O3  UNL     1      25.346   0.071  53.709  1.00  0.00    -0.349 OA
BRANCH  22  23
HETATM   23  C13 UNL     1      25.962  -0.895  52.878  1.00  0.00     0.182 C 
BRANCH  23  24
HETATM   24  C14 UNL     1      27.461  -0.706  52.773  1.00  0.00     0.039 C 
HETATM   25  C15 UNL     1      28.097  -2.065  52.972  1.00  0.00     0.009 C 
HETATM   26  C16 UNL     1      29.514  -1.968  53.459  1.00  0.00     0.001 C 
HETATM   27  C17 UNL     1      30.151  -0.619  53.238  1.00  0.00     0.002 C 
HETATM   28  C18 UNL     1      29.360   0.517  53.849  1.00  0.00     0.032 C 
HETATM   29  C19 UNL     1      27.884   0.190  53.921  1.00  0.00     0.124 C 
BRANCH  29  30
HETATM   30  O4  UNL     1      27.589  -0.518  55.084  1.00  0.00    -0.395 OA
HETATM   31  H20 UNL     1      27.734  -1.487  54.961  1.00  0.00     0.210 HD
ENDBRANCH  29  30
ENDBRANCH  23  24
ENDBRANCH  22  23
ENDBRANCH  10  22
BRANCH   1  32
HETATM   32  C2  UNL     1      25.718   2.311  52.173  1.00  0.00     0.296 C 
HETATM   33  O2  UNL     1      26.542   2.924  52.899  1.00  0.00    -0.259 OA
BRANCH  32  34
HETATM   34  O1  UNL     1      26.458   2.203  51.011  1.00  0.00    -0.322 OA
HETATM   35  C1  UNL     1      26.417   3.287  50.073  1.00  0.00     0.213 C 
ENDBRANCH  32  34
ENDBRANCH   1  32
TORSDOF 6
ENDMDL
MODEL 2
REMARK VINA RESULT:     -10.1      1.723      1.797
REMARK  6 active torsions:
REMARK  status: ('A' for Active; 'I' for Inactive)
REMARK    1  A    between atoms: O1_2  and  C2_3 
REMARK    2  A    between atoms: C2_3  and  C3_5 
REMARK    3  A    between atoms: C12_14  and  O3_15 
REMARK    4  A    between atoms: O3_15  and  C13_16 
REMARK    5  A    between atoms: C13_16  and  C14_17 
REMARK    6  A    between atoms: C19_22  and  O4_23 
ROOT
HETATM    1  C3  UNL     1      24.173   1.680  51.392  1.00  0.00     0.082 A 
HETATM    2  C4  UNL     1      23.061   1.827  50.608  1.00  0.00    -0.014 A 
HETATM    3  C5  UNL     1      21.891   1.229  50.961  1.00  0.00    -0.009 A 
HETATM    4  C6  UNL     1      21.718   0.438  52.102  1.00  0.00    -0.012 A 
HETATM    5  C7  UNL     1      20.565  -0.188  52.500  1.00  0.00     0.013 A 
HETATM    6  C8  UNL     1      20.492  -0.948  53.646  1.00  0.00     0.001 A 
HETATM    7  C9  UNL     1      21.607  -1.101  54.439  1.00  0.00     0.001 A 
HETATM    8  C10 UNL     1      22.763  -0.472  54.039  1.00  0.00     0.015 A 
HETATM    9  C11 UNL     1      22.838   0.283  52.902  1.00  0.00     0.009 A 
HETATM   10  C12 UNL     1      24.016   0.906  52.520  1.00  0.00     0.096 A 
HETATM   11  C20 UNL     1      21.050   1.788  49.913  1.00  0.00    -0.029 C 
HETATM   12  C21 UNL     1      20.035   2.037  49.089  1.00  0.00     0.064 C 
HETATM   13  C22 UNL     1      20.068   3.093  48.054  1.00  0.00     0.183 C 
HETATM   14  O5  UNL     1      19.085   3.278  47.300  1.00  0.00    -0.288 OA
HETATM   15  C23 UNL     1      21.332   3.818  48.060  1.00  0.00     0.021 A 
HETATM   16  C24 UNL     1      21.234   4.955  47.262  1.00  0.00     0.016 A 
HETATM   17  C25 UNL     1      22.249   5.916  47.282  1.00  0.00     0.001 A 
HETATM   18  C26 UNL     1      23.328   5.662  48.130  1.00  0.00     0.001 A 
HETATM   19  C27 UNL     1      23.430   4.525  48.927  1.00  0.00     0.009 A 
HETATM   20  C28 UNL     1      22.415   3.601  48.877  1.00  0.00    -0.031 A 
HETATM   21  C29 UNL     1      22.340   2.274  49.431  1.00  0.00     0.088 C 
ENDROOT
BRANCH  10  22
HETATM   22  O3  UNL     1      25.129   0.723  53.365  1.00  0.00    -0.349 OA
BRANCH  22  23
HETATM   23  C13 UNL     1      25.871  -0.465  53.163  1.00  0.00     0.182 C 
BRANCH  23  24
HETATM   24  C14 UNL     1      27.359  -0.212  53.039  1.00  0.00     0.039 C 
HETATM   25  C15 UNL     1      28.045  -1.561  53.069  1.00  0.00     0.009 C 
HETATM   26  C16 UNL     1      29.473  -1.467  53.524  1.00  0.00     0.001 C 
HETATM   27  C17 UNL     1      30.057  -0.080  53.436  1.00  0.00     0.002 C 
HETATM   28  C18 UNL     1      29.250   0.952  54.191  1.00  0.00     0.032 C 
HETATM   29  C19 UNL     1      27.787   0.568  54.267  1.00  0.00     0.124 C 
BRANCH  29  30
HETATM   30  O4  UNL     1      27.552  -0.274  55.352  1.00  0.00    -0.395 OA
HETATM   31  H20 UNL     1      28.032   0.037  56.158  1.00  0.00     0.210 HD
ENDBRANCH  29  30
ENDBRANCH  23  24
ENDBRANCH  22  23
ENDBRANCH  10  22
BRANCH   1  32
HETATM   32  C2  UNL     1      25.473   2.267  51.125  1.00  0.00     0.296 C 
HETATM   33  O2  UNL     1      26.332   2.809  51.867  1.00  0.00    -0.259 OA
BRANCH  32  34
HETATM   34  O1  UNL     1      26.112   2.372  49.905  1.00  0.00    -0.322 OA
HETATM   35  C1  UNL     1      26.732   3.619  49.565  1.00  0.00     0.213 C 
ENDBRANCH  32  34
ENDBRANCH   1  32
TORSDOF 6
ENDMDL
MODEL 3
REMARK VINA RESULT:     -10.1      1.986      4.714
REMARK  6 active torsions:
REMARK  status: ('A' for Active; 'I' for Inactive)
REMARK    1  A    between atoms: O1_2  and  C2_3 
REMARK    2  A    between atoms: C2_3  and  C3_5 
REMARK    3  A    between atoms: C12_14  and  O3_15 
REMARK    4  A    between atoms: O3_15  and  C13_16 
REMARK    5  A    between atoms: C13_16  and  C14_17 
REMARK    6  A    between atoms: C19_22  and  O4_23 
ROOT
HETATM    1  C3  UNL     1      22.703   0.991  52.643  1.00  0.00     0.082 A 
HETATM    2  C4  UNL     1      21.865   1.579  51.734  1.00  0.00    -0.014 A 
HETATM    3  C5  UNL     1      22.372   2.334  50.723  1.00  0.00    -0.009 A 
HETATM    4  C6  UNL     1      23.735   2.580  50.525  1.00  0.00    -0.012 A 
HETATM    5  C7  UNL     1      24.297   3.334  49.528  1.00  0.00     0.013 A 
HETATM    6  C8  UNL     1      25.657   3.517  49.414  1.00  0.00     0.001 A 
HETATM    7  C9  UNL     1      26.507   2.930  50.325  1.00  0.00     0.001 A 
HETATM    8  C10 UNL     1      25.942   2.173  51.324  1.00  0.00     0.015 A 
HETATM    9  C11 UNL     1      24.592   1.990  51.441  1.00  0.00     0.009 A 
HETATM   10  C12 UNL     1      24.047   1.222  52.458  1.00  0.00     0.096 A 
HETATM   11  C20 UNL     1      21.128   2.592  50.015  1.00  0.00    -0.029 C 
HETATM   12  C21 UNL     1      20.213   3.077  49.178  1.00  0.00     0.064 C 
HETATM   13  C22 UNL     1      18.809   2.612  49.149  1.00  0.00     0.183 C 
HETATM   14  O5  UNL     1      17.989   3.110  48.344  1.00  0.00    -0.288 OA
HETATM   15  C23 UNL     1      18.564   1.567  50.135  1.00  0.00     0.021 A 
HETATM   16  C24 UNL     1      17.322   0.980  49.909  1.00  0.00     0.016 A 
HETATM   17  C25 UNL     1      16.962  -0.184  50.595  1.00  0.00     0.001 A 
HETATM   18  C26 UNL     1      17.904  -0.697  51.487  1.00  0.00     0.001 A 
HETATM   19  C27 UNL     1      19.146  -0.111  51.716  1.00  0.00     0.009 A 
HETATM   20  C28 UNL     1      19.463   1.035  51.028  1.00  0.00    -0.031 A 
HETATM   21  C29 UNL     1      20.568   1.944  51.197  1.00  0.00     0.088 C 
ENDROOT
BRANCH  10  22
HETATM   22  O3  UNL     1      24.956   0.640  53.364  1.00  0.00    -0.349 OA
BRANCH  22  23
HETATM   23  C13 UNL     1      25.663  -0.492  52.892  1.00  0.00     0.182 C 
BRANCH  23  24
HETATM   24  C14 UNL     1      27.163  -0.288  52.893  1.00  0.00     0.039 C 
HETATM   25  C15 UNL     1      27.800  -1.661  52.885  1.00  0.00     0.009 C 
HETATM   26  C16 UNL     1      29.192  -1.650  53.449  1.00  0.00     0.001 C 
HETATM   27  C17 UNL     1      29.827  -0.283  53.494  1.00  0.00     0.002 C 
HETATM   28  C18 UNL     1      29.000   0.731  54.253  1.00  0.00     0.032 C 
HETATM   29  C19 UNL     1      27.524   0.397  54.197  1.00  0.00     0.124 C 
BRANCH  29  30
HETATM   30  O4  UNL     1      27.180  -0.501  55.205  1.00  0.00    -0.395 OA
HETATM   31  H20 UNL     1      26.205  -0.506  55.364  1.00  0.00     0.210 HD
ENDBRANCH  29  30
ENDBRANCH  23  24
ENDBRANCH  22  23
ENDBRANCH  10  22
BRANCH   1  32
HETATM   32  C2  UNL     1      22.285   0.164  53.760  1.00  0.00     0.296 C 
HETATM   33  O2  UNL     1      21.498   0.363  54.720  1.00  0.00    -0.259 OA
BRANCH  32  34
HETATM   34  O1  UNL     1      22.687  -1.127  54.045  1.00  0.00    -0.322 OA
HETATM   35  C1  UNL     1      23.010  -1.456  55.402  1.00  0.00     0.213 C 
ENDBRANCH  32  34
ENDBRANCH   1  32
TORSDOF 6
ENDMDL
MODEL 4
REMARK VINA RESULT:      -9.7      3.039      8.369
REMARK  6 active torsions:
REMARK  status: ('A' for Active; 'I' for Inactive)
REMARK    1  A    between atoms: O1_2  and  C2_3 
REMARK    2  A    between atoms: C2_3  and  C3_5 
REMARK    3  A    between atoms: C12_14  and  O3_15 
REMARK    4  A    between atoms: O3_15  and  C13_16 
REMARK    5  A    between atoms: C13_16  and  C14_17 
REMARK    6  A    between atoms: C19_22  and  O4_23 
ROOT
HETATM    1  C3  UNL     1      20.483   1.947  51.749  1.00  0.00     0.082 A 
HETATM    2  C4  UNL     1      21.375   1.241  52.510  1.00  0.00    -0.014 A 
HETATM    3  C5  UNL     1      20.992   0.087  53.120  1.00  0.00    -0.009 A 
HETATM    4  C6  UNL     1      19.707  -0.462  53.041  1.00  0.00    -0.012 A 
HETATM    5  C7  UNL     1      19.270  -1.616  53.637  1.00  0.00     0.013 A 
HETATM    6  C8  UNL     1      17.980  -2.079  53.498  1.00  0.00     0.001 A 
HETATM    7  C9  UNL     1      17.077  -1.374  52.736  1.00  0.00     0.001 A 
HETATM    8  C10 UNL     1      17.517  -0.217  52.137  1.00  0.00     0.015 A 
HETATM    9  C11 UNL     1      18.796   0.246  52.274  1.00  0.00     0.009 A 
HETATM   10  C12 UNL     1      19.215   1.417  51.660  1.00  0.00     0.096 A 
HETATM   11  C20 UNL     1      22.287  -0.302  53.656  1.00  0.00    -0.029 C 
HETATM   12  C21 UNL     1      23.255  -0.912  54.336  1.00  0.00     0.064 C 
HETATM   13  C22 UNL     1      24.686  -0.558  54.210  1.00  0.00     0.183 C 
HETATM   14  O5  UNL     1      25.554  -1.163  54.880  1.00  0.00    -0.288 OA
HETATM   15  C23 UNL     1      24.894   0.524  53.256  1.00  0.00     0.021 A 
HETATM   16  C24 UNL     1      26.250   0.657  52.973  1.00  0.00     0.016 A 
HETATM   17  C25 UNL     1      26.670   1.487  51.929  1.00  0.00     0.001 A 
HETATM   18  C26 UNL     1      25.669   2.146  51.217  1.00  0.00     0.001 A 
HETATM   19  C27 UNL     1      24.311   2.017  51.499  1.00  0.00     0.009 A 
HETATM   20  C28 UNL     1      23.936   1.198  52.535  1.00  0.00    -0.031 A 
HETATM   21  C29 UNL     1      22.651   1.023  53.163  1.00  0.00     0.088 C 
ENDROOT
BRANCH  10  22
HETATM   22  O3  UNL     1      18.256   2.102  50.888  1.00  0.00    -0.349 OA
BRANCH  22  23
HETATM   23  C13 UNL     1      17.564   3.147  51.546  1.00  0.00     0.182 C 
BRANCH  23  24
HETATM   24  C14 UNL     1      16.060   3.007  51.444  1.00  0.00     0.039 C 
HETATM   25  C15 UNL     1      15.571   4.099  50.517  1.00  0.00     0.009 C 
HETATM   26  C16 UNL     1      14.132   4.454  50.757  1.00  0.00     0.001 C 
HETATM   27  C17 UNL     1      13.359   3.408  51.520  1.00  0.00     0.002 C 
HETATM   28  C18 UNL     1      13.990   3.056  52.849  1.00  0.00     0.032 C 
HETATM   29  C19 UNL     1      15.489   3.265  52.825  1.00  0.00     0.124 C 
BRANCH  29  30
HETATM   30  O4  UNL     1      15.810   4.587  53.128  1.00  0.00    -0.395 OA
HETATM   31  H20 UNL     1      15.360   4.885  53.955  1.00  0.00     0.210 HD
ENDBRANCH  29  30
ENDBRANCH  23  24
ENDBRANCH  22  23
ENDBRANCH  10  22
BRANCH   1  32
HETATM   32  C2  UNL     1      20.770   3.185  51.049  1.00  0.00     0.296 C 
HETATM   33  O2  UNL     1      20.903   4.374  51.439  1.00  0.00    -0.259 OA
BRANCH  32  34
HETATM   34  O1  UNL     1      20.978   3.355  49.694  1.00  0.00    -0.322 OA
HETATM   35  C1  UNL     1      21.596   2.289  48.960  1.00  0.00     0.213 C 
ENDBRANCH  32  34
ENDBRANCH   1  32
TORSDOF 6
ENDMDL
MODEL 5
REMARK VINA RESULT:      -9.6      2.146      3.163
REMARK  6 active torsions:
REMARK  status: ('A' for Active; 'I' for Inactive)
REMARK    1  A    between atoms: O1_2  and  C2_3 
REMARK    2  A    between atoms: C2_3  and  C3_5 
REMARK    3  A    between atoms: C12_14  and  O3_15 
REMARK    4  A    between atoms: O3_15  and  C13_16 
REMARK    5  A    between atoms: C13_16  and  C14_17 
REMARK    6  A    between atoms: C19_22  and  O4_23 
ROOT
HETATM    1  C3  UNL     1      22.898   1.567  51.234  1.00  0.00     0.082 A 
HETATM    2  C4  UNL     1      21.593   1.220  51.012  1.00  0.00    -0.014 A 
HETATM    3  C5  UNL     1      20.972   0.331  51.833  1.00  0.00    -0.009 A 
HETATM    4  C6  UNL     1      21.580  -0.294  52.928  1.00  0.00    -0.012 A 
HETATM    5  C7  UNL     1      21.002  -1.198  53.782  1.00  0.00     0.013 A 
HETATM    6  C8  UNL     1      21.684  -1.760  54.839  1.00  0.00     0.001 A 
HETATM    7  C9  UNL     1      22.997  -1.417  55.067  1.00  0.00     0.001 A 
HETATM    8  C10 UNL     1      23.575  -0.510  54.210  1.00  0.00     0.015 A 
HETATM    9  C11 UNL     1      22.902   0.050  53.160  1.00  0.00     0.009 A 
HETATM   10  C12 UNL     1      23.508   0.962  52.310  1.00  0.00     0.096 A 
HETATM   11  C20 UNL     1      19.638   0.418  51.260  1.00  0.00    -0.029 C 
HETATM   12  C21 UNL     1      18.361   0.193  50.961  1.00  0.00     0.064 C 
HETATM   13  C22 UNL     1      17.583   1.034  50.025  1.00  0.00     0.183 C 
HETATM   14  O5  UNL     1      16.384   0.771  49.776  1.00  0.00    -0.288 OA
HETATM   15  C23 UNL     1      18.383   2.128  49.488  1.00  0.00     0.021 A 
HETATM   16  C24 UNL     1      17.564   3.036  48.823  1.00  0.00     0.016 A 
HETATM   17  C25 UNL     1      18.076   4.269  48.409  1.00  0.00     0.001 A 
HETATM   18  C26 UNL     1      19.418   4.514  48.701  1.00  0.00     0.001 A 
HETATM   19  C27 UNL     1      20.240   3.607  49.363  1.00  0.00     0.009 A 
HETATM   20  C28 UNL     1      19.704   2.404  49.751  1.00  0.00    -0.031 A 
HETATM   21  C29 UNL     1      20.346   1.224  50.270  1.00  0.00     0.088 C 
ENDROOT
BRANCH  10  22
HETATM   22  O3  UNL     1      24.851   1.283  52.585  1.00  0.00    -0.349 OA
BRANCH  22  23
HETATM   23  C13 UNL     1      25.813   0.328  52.177  1.00  0.00     0.182 C 
BRANCH  23  24
HETATM   24  C14 UNL     1      27.216   0.682  52.625  1.00  0.00     0.039 C 
HETATM   25  C15 UNL     1      27.656  -0.387  53.602  1.00  0.00     0.009 C 
HETATM   26  C16 UNL     1      28.726   0.098  54.537  1.00  0.00     0.001 C 
HETATM   27  C17 UNL     1      29.442   1.337  54.064  1.00  0.00     0.002 C 
HETATM   28  C18 UNL     1      28.506   2.490  53.777  1.00  0.00     0.032 C 
HETATM   29  C19 UNL     1      27.132   2.002  53.368  1.00  0.00     0.124 C 
BRANCH  29  30
HETATM   30  O4  UNL     1      26.339   1.758  54.487  1.00  0.00    -0.395 OA
HETATM   31  H20 UNL     1      26.305   0.793  54.699  1.00  0.00     0.210 HD
ENDBRANCH  29  30
ENDBRANCH  23  24
ENDBRANCH  22  23
ENDBRANCH  10  22
BRANCH   1  32
HETATM   32  C2  UNL     1      23.667   2.502  50.434  1.00  0.00     0.296 C 
HETATM   33  O2  UNL     1      23.910   2.571  49.202  1.00  0.00    -0.259 OA
BRANCH  32  34
HETATM   34  O1  UNL     1      24.359   3.614  50.875  1.00  0.00    -0.322 OA
HETATM   35  C1  UNL     1      25.502   4.047  50.126  1.00  0.00     0.213 C 
ENDBRANCH  32  34
ENDBRANCH   1  32
TORSDOF 6
ENDMDL
MODEL 6
REMARK VINA RESULT:      -9.5      2.376      7.658
REMARK  6 active torsions:
REMARK  status: ('A' for Active; 'I' for Inactive)
REMARK    1  A    between atoms: O1_2  and  C2_3 
REMARK    2  A    between atoms: C2_3  and  C3_5 
REMARK    3  A    between atoms: C12_14  and  O3_15 
REMARK    4  A    between atoms: O3_15  and  C13_16 
REMARK    5  A    between atoms: C13_16  and  C14_17 
REMARK    6  A    between atoms: C19_22  and  O4_23 
ROOT
HETATM    1  C3  UNL     1      21.734   1.697  51.191  1.00  0.00     0.082 A 
HETATM    2  C4  UNL     1      22.265   1.023  52.258  1.00  0.00    -0.014 A 
HETATM    3  C5  UNL     1      21.501   0.142  52.959  1.00  0.00    -0.009 A 
HETATM    4  C6  UNL     1      20.161  -0.144  52.677  1.00  0.00    -0.012 A 
HETATM    5  C7  UNL     1      19.349  -1.018  53.352  1.00  0.00     0.013 A 
HETATM    6  C8  UNL     1      18.036  -1.235  52.997  1.00  0.00     0.001 A 
HETATM    7  C9  UNL     1      17.495  -0.560  51.926  1.00  0.00     0.001 A 
HETATM    8  C10 UNL     1      18.311   0.316  51.249  1.00  0.00     0.015 A 
HETATM    9  C11 UNL     1      19.614   0.534  51.599  1.00  0.00     0.009 A 
HETATM   10  C12 UNL     1      20.417   1.423  50.901  1.00  0.00     0.096 A 
HETATM   11  C20 UNL     1      22.535  -0.362  53.850  1.00  0.00    -0.029 C 
HETATM   12  C21 UNL     1      23.177  -0.979  54.839  1.00  0.00     0.064 C 
HETATM   13  C22 UNL     1      24.648  -0.955  54.995  1.00  0.00     0.183 C 
HETATM   14  O5  UNL     1      25.197  -1.548  55.952  1.00  0.00    -0.288 OA
HETATM   15  C23 UNL     1      25.292  -0.186  53.938  1.00  0.00     0.021 A 
HETATM   16  C24 UNL     1      26.668  -0.395  53.967  1.00  0.00     0.016 A 
HETATM   17  C25 UNL     1      27.470   0.069  52.920  1.00  0.00     0.001 A 
HETATM   18  C26 UNL     1      26.814   0.731  51.882  1.00  0.00     0.001 A 
HETATM   19  C27 UNL     1      25.439   0.944  51.851  1.00  0.00     0.009 A 
HETATM   20  C28 UNL     1      24.684   0.478  52.900  1.00  0.00    -0.031 A 
HETATM   21  C29 UNL     1      23.300   0.713  53.225  1.00  0.00     0.088 C 
ENDROOT
BRANCH  10  22
HETATM   22  O3  UNL     1      19.820   2.088  49.811  1.00  0.00    -0.349 OA
BRANCH  22  23
HETATM   23  C13 UNL     1      19.191   3.321  50.107  1.00  0.00     0.182 C 
BRANCH  23  24
HETATM   24  C14 UNL     1      18.700   4.039  48.867  1.00  0.00     0.039 C 
HETATM   25  C15 UNL     1      18.831   3.073  47.710  1.00  0.00     0.009 C 
HETATM   26  C16 UNL     1      18.939   3.775  46.387  1.00  0.00     0.001 C 
HETATM   27  C17 UNL     1      18.468   5.207  46.409  1.00  0.00     0.002 C 
HETATM   28  C18 UNL     1      19.174   6.047  47.451  1.00  0.00     0.032 C 
HETATM   29  C19 UNL     1      19.637   5.206  48.622  1.00  0.00     0.124 C 
BRANCH  29  30
HETATM   30  O4  UNL     1      20.886   4.642  48.364  1.00  0.00    -0.395 OA
HETATM   31  H20 UNL     1      20.928   3.707  48.678  1.00  0.00     0.210 HD
ENDBRANCH  29  30
ENDBRANCH  23  24
ENDBRANCH  22  23
ENDBRANCH  10  22
BRANCH   1  32
HETATM   32  C2  UNL     1      22.444   2.657  50.366  1.00  0.00     0.296 C 
HETATM   33  O2  UNL     1      22.997   2.569  49.240  1.00  0.00    -0.259 OA
BRANCH  32  34
HETATM   34  O1  UNL     1      22.693   3.986  50.650  1.00  0.00    -0.322 OA
HETATM   35  C1  UNL     1      22.176   4.531  51.871  1.00  0.00     0.213 C 
ENDBRANCH  32  34
ENDBRANCH   1  32
TORSDOF 6
ENDMDL
MODEL 7
REMARK VINA RESULT:      -9.5      2.247      8.754
REMARK  6 active torsions:
REMARK  status: ('A' for Active; 'I' for Inactive)
REMARK    1  A    between atoms: O1_2  and  C2_3 
REMARK    2  A    between atoms: C2_3  and  C3_5 
REMARK    3  A    between atoms: C12_14  and  O3_15 
REMARK    4  A    between atoms: O3_15  and  C13_16 
REMARK    5  A    between atoms: C13_16  and  C14_17 
REMARK    6  A    between atoms: C19_22  and  O4_23 
ROOT
HETATM    1  C3  UNL     1      22.239   3.311  50.320  1.00  0.00     0.082 A 
HETATM    2  C4  UNL     1      23.111   2.414  50.874  1.00  0.00    -0.014 A 
HETATM    3  C5  UNL     1      24.453   2.590  50.738  1.00  0.00    -0.009 A 
HETATM    4  C6  UNL     1      25.047   3.651  50.044  1.00  0.00    -0.012 A 
HETATM    5  C7  UNL     1      26.389   3.872  49.874  1.00  0.00     0.013 A 
HETATM    6  C8  UNL     1      26.879   4.951  49.173  1.00  0.00     0.001 A 
HETATM    7  C9  UNL     1      26.007   5.857  48.611  1.00  0.00     0.001 A 
HETATM    8  C10 UNL     1      24.661   5.634  48.783  1.00  0.00     0.015 A 
HETATM    9  C11 UNL     1      24.171   4.564  49.478  1.00  0.00     0.009 A 
HETATM   10  C12 UNL     1      22.809   4.362  49.637  1.00  0.00     0.096 A 
HETATM   11  C20 UNL     1      24.892   1.490  51.582  1.00  0.00    -0.029 C 
HETATM   12  C21 UNL     1      25.633   0.571  52.197  1.00  0.00     0.064 C 
HETATM   13  C22 UNL     1      25.088  -0.384  53.187  1.00  0.00     0.183 C 
HETATM   14  O5  UNL     1      25.832  -1.234  53.730  1.00  0.00    -0.288 OA
HETATM   15  C23 UNL     1      23.661  -0.186  53.402  1.00  0.00     0.021 A 
HETATM   16  C24 UNL     1      23.239  -0.916  54.510  1.00  0.00     0.016 A 
HETATM   17  C25 UNL     1      21.958  -0.717  55.034  1.00  0.00     0.001 A 
HETATM   18  C26 UNL     1      21.164   0.232  54.392  1.00  0.00     0.001 A 
HETATM   19  C27 UNL     1      21.581   0.962  53.282  1.00  0.00     0.009 A 
HETATM   20  C28 UNL     1      22.844   0.736  52.791  1.00  0.00    -0.031 A 
HETATM   21  C29 UNL     1      23.463   1.193  51.573  1.00  0.00     0.088 C 
ENDROOT
BRANCH  10  22
HETATM   22  O3  UNL     1      21.957   5.316  49.047  1.00  0.00    -0.349 OA
BRANCH  22  23
HETATM   23  C13 UNL     1      21.755   6.507  49.785  1.00  0.00     0.182 C 
BRANCH  23  24
HETATM   24  C14 UNL     1      20.874   7.502  49.060  1.00  0.00     0.039 C 
HETATM   25  C15 UNL     1      20.418   8.522  50.082  1.00  0.00     0.009 C 
HETATM   26  C16 UNL     1      19.139   9.201  49.684  1.00  0.00     0.001 C 
HETATM   27  C17 UNL     1      18.808   9.078  48.218  1.00  0.00     0.002 C 
HETATM   28  C18 UNL     1      18.752   7.643  47.741  1.00  0.00     0.032 C 
HETATM   29  C19 UNL     1      19.655   6.749  48.564  1.00  0.00     0.124 C 
BRANCH  29  30
HETATM   30  O4  UNL     1      18.997   6.297  49.706  1.00  0.00    -0.395 OA
HETATM   31  H20 UNL     1      18.221   5.731  49.473  1.00  0.00     0.210 HD
ENDBRANCH  29  30
ENDBRANCH  23  24
ENDBRANCH  22  23
ENDBRANCH  10  22
BRANCH   1  32
HETATM   32  C2  UNL     1      20.792   3.235  50.398  1.00  0.00     0.296 C 
HETATM   33  O2  UNL     1      19.946   3.810  51.129  1.00  0.00    -0.259 OA
BRANCH  32  34
HETATM   34  O1  UNL     1      19.950   2.454  49.629  1.00  0.00    -0.322 OA
HETATM   35  C1  UNL     1      19.654   1.124  50.078  1.00  0.00     0.213 C 
ENDBRANCH  32  34
ENDBRANCH   1  32
TORSDOF 6
ENDMDL
MODEL 8
REMARK VINA RESULT:      -9.4      2.774      7.451
REMARK  6 active torsions:
REMARK  status: ('A' for Active; 'I' for Inactive)
REMARK    1  A    between atoms: O1_2  and  C2_3 
REMARK    2  A    between atoms: C2_3  and  C3_5 
REMARK    3  A    between atoms: C12_14  and  O3_15 
REMARK    4  A    between atoms: O3_15  and  C13_16 
REMARK    5  A    between atoms: C13_16  and  C14_17 
REMARK    6  A    between atoms: C19_22  and  O4_23 
ROOT
HETATM    1  C3  UNL     1      22.897   2.453  50.617  1.00  0.00     0.082 A 
HETATM    2  C4  UNL     1      23.087   1.642  51.703  1.00  0.00    -0.014 A 
HETATM    3  C5  UNL     1      22.085   0.828  52.133  1.00  0.00    -0.009 A 
HETATM    4  C6  UNL     1      20.819   0.749  51.541  1.00  0.00    -0.012 A 
HETATM    5  C7  UNL     1      19.777  -0.049  51.937  1.00  0.00     0.013 A 
HETATM    6  C8  UNL     1      18.563  -0.058  51.286  1.00  0.00     0.001 A 
HETATM    7  C9  UNL     1      18.364   0.757  50.194  1.00  0.00     0.001 A 
HETATM    8  C10 UNL     1      19.411   1.556  49.799  1.00  0.00     0.015 A 
HETATM    9  C11 UNL     1      20.617   1.568  50.442  1.00  0.00     0.009 A 
HETATM   10  C12 UNL     1      21.657   2.384  50.023  1.00  0.00     0.096 A 
HETATM   11  C20 UNL     1      22.822   0.127  53.173  1.00  0.00    -0.029 C 
HETATM   12  C21 UNL     1      23.144  -0.639  54.213  1.00  0.00     0.064 C 
HETATM   13  C22 UNL     1      24.533  -0.828  54.686  1.00  0.00     0.183 C 
HETATM   14  O5  UNL     1      24.777  -1.555  55.676  1.00  0.00    -0.288 OA
HETATM   15  C23 UNL     1      25.487  -0.085  53.873  1.00  0.00     0.021 A 
HETATM   16  C24 UNL     1      26.786  -0.483  54.178  1.00  0.00     0.016 A 
HETATM   17  C25 UNL     1      27.854  -0.063  53.379  1.00  0.00     0.001 A 
HETATM   18  C26 UNL     1      27.535   0.753  52.294  1.00  0.00     0.001 A 
HETATM   19  C27 UNL     1      26.238   1.155  51.987  1.00  0.00     0.009 A 
HETATM   20  C28 UNL     1      25.215   0.726  52.797  1.00  0.00    -0.031 A 
HETATM   21  C29 UNL     1      23.831   1.126  52.836  1.00  0.00     0.088 C 
ENDROOT
BRANCH  10  22
HETATM   22  O3  UNL     1      21.406   3.197  48.901  1.00  0.00    -0.349 OA
BRANCH  22  23
HETATM   23  C13 UNL     1      21.626   2.596  47.638  1.00  0.00     0.182 C 
BRANCH  23  24
HETATM   24  C14 UNL     1      21.998   3.600  46.568  1.00  0.00     0.039 C 
HETATM   25  C15 UNL     1      22.302   4.907  47.269  1.00  0.00     0.009 C 
HETATM   26  C16 UNL     1      22.123   6.095  46.368  1.00  0.00     0.001 C 
HETATM   27  C17 UNL     1      22.116   5.759  44.899  1.00  0.00     0.002 C 
HETATM   28  C18 UNL     1      21.075   4.724  44.532  1.00  0.00     0.032 C 
HETATM   29  C19 UNL     1      20.775   3.802  45.695  1.00  0.00     0.124 C 
BRANCH  29  30
HETATM   30  O4  UNL     1      19.801   4.353  46.526  1.00  0.00    -0.395 OA
HETATM   31  H20 UNL     1      19.505   5.235  46.195  1.00  0.00     0.210 HD
ENDBRANCH  29  30
ENDBRANCH  23  24
ENDBRANCH  22  23
ENDBRANCH  10  22
BRANCH   1  32
HETATM   32  C2  UNL     1      23.884   3.360  50.063  1.00  0.00     0.296 C 
HETATM   33  O2  UNL     1      24.782   3.215  49.194  1.00  0.00    -0.259 OA
BRANCH  32  34
HETATM   34  O1  UNL     1      24.078   4.690  50.386  1.00  0.00    -0.322 OA
HETATM   35  C1  UNL     1      23.300   5.253  51.450  1.00  0.00     0.213 C 
ENDBRANCH  32  34
ENDBRANCH   1  32
TORSDOF 6
ENDMDL
MODEL 9
REMARK VINA RESULT:      -9.3      2.506      8.661
REMARK  6 active torsions:
REMARK  status: ('A' for Active; 'I' for Inactive)
REMARK    1  A    between atoms: O1_2  and  C2_3 
REMARK    2  A    between atoms: C2_3  and  C3_5 
REMARK    3  A    between atoms: C12_14  and  O3_15 
REMARK    4  A    between atoms: O3_15  and  C13_16 
REMARK    5  A    between atoms: C13_16  and  C14_17 
REMARK    6  A    between atoms: C19_22  and  O4_23 
ROOT
HETATM    1  C3  UNL     1      22.304   2.302  50.592  1.00  0.00     0.082 A 
HETATM    2  C4  UNL     1      23.391   1.729  51.194  1.00  0.00    -0.014 A 
HETATM    3  C5  UNL     1      24.627   2.273  51.035  1.00  0.00    -0.009 A 
HETATM    4  C6  UNL     1      24.899   3.413  50.271  1.00  0.00    -0.012 A 
HETATM    5  C7  UNL     1      26.124   3.998  50.076  1.00  0.00     0.013 A 
HETATM    6  C8  UNL     1      26.291   5.127  49.304  1.00  0.00     0.001 A 
HETATM    7  C9  UNL     1      25.203   5.708  48.694  1.00  0.00     0.001 A 
HETATM    8  C10 UNL     1      23.975   5.121  48.892  1.00  0.00     0.015 A 
HETATM    9  C11 UNL     1      23.805   4.001  49.656  1.00  0.00     0.009 A 
HETATM   10  C12 UNL     1      22.556   3.427  49.839  1.00  0.00     0.096 A 
HETATM   11  C20 UNL     1      25.355   1.399  51.943  1.00  0.00    -0.029 C 
HETATM   12  C21 UNL     1      26.321   0.771  52.608  1.00  0.00     0.064 C 
HETATM   13  C22 UNL     1      26.063  -0.237  53.660  1.00  0.00     0.183 C 
HETATM   14  O5  UNL     1      27.013  -0.802  54.249  1.00  0.00    -0.288 OA
HETATM   15  C23 UNL     1      24.636  -0.442  53.875  1.00  0.00     0.021 A 
HETATM   16  C24 UNL     1      24.430  -1.191  55.030  1.00  0.00     0.016 A 
HETATM   17  C25 UNL     1      23.141  -1.335  55.552  1.00  0.00     0.001 A 
HETATM   18  C26 UNL     1      22.114  -0.695  54.858  1.00  0.00     0.001 A 
HETATM   19  C27 UNL     1      22.317   0.053  53.701  1.00  0.00     0.009 A 
HETATM   20  C28 UNL     1      23.596   0.168  53.215  1.00  0.00    -0.031 A 
HETATM   21  C29 UNL     1      24.070   0.705  51.965  1.00  0.00     0.088 C 
ENDROOT
BRANCH  10  22
HETATM   22  O3  UNL     1      21.473   4.059  49.197  1.00  0.00    -0.349 OA
BRANCH  22  23
HETATM   23  C13 UNL     1      21.319   3.779  47.819  1.00  0.00     0.182 C 
BRANCH  23  24
HETATM   24  C14 UNL     1      20.062   4.387  47.234  1.00  0.00     0.039 C 
HETATM   25  C15 UNL     1      19.344   5.098  48.361  1.00  0.00     0.009 C 
HETATM   26  C16 UNL     1      17.872   5.244  48.101  1.00  0.00     0.001 C 
HETATM   27  C17 UNL     1      17.482   5.072  46.655  1.00  0.00     0.002 C 
HETATM   28  C18 UNL     1      17.939   3.753  46.070  1.00  0.00     0.032 C 
HETATM   29  C19 UNL     1      19.187   3.243  46.759  1.00  0.00     0.124 C 
BRANCH  29  30
HETATM   30  O4  UNL     1      18.859   2.516  47.903  1.00  0.00    -0.395 OA
HETATM   31  H20 UNL     1      19.276   2.908  48.708  1.00  0.00     0.210 HD
ENDBRANCH  29  30
ENDBRANCH  23  24
ENDBRANCH  22  23
ENDBRANCH  10  22
BRANCH   1  32
HETATM   32  C2  UNL     1      20.938   1.820  50.686  1.00  0.00     0.296 C 
HETATM   33  O2  UNL     1      20.232   1.105  49.930  1.00  0.00    -0.259 OA
BRANCH  32  34
HETATM   34  O1  UNL     1      20.034   2.053  51.705  1.00  0.00    -0.322 OA
HETATM   35  C1  UNL     1      18.963   2.976  51.468  1.00  0.00     0.213 C 
ENDBRANCH  32  34
ENDBRANCH   1  32
TORSDOF 6
ENDMDL
