MODEL 1
REMARK VINA RESULT:      -8.2      0.000      0.000
REMARK  3 active torsions:
REMARK  status: ('A' for Active; 'I' for Inactive)
REMARK    1  A    between atoms: P1_2  and  C2_3 
REMARK    2  A    between atoms: C2_3  and  C3_4 
REMARK    3  A    between atoms: C10_12  and  C11_13 
ROOT
HETATM    1  C3  UNL     1      25.997   2.370  52.087  1.00  0.00     0.040 C 
HETATM    2  C4  UNL     1      27.440   2.099  52.035  1.00  0.00     0.078 C 
HETATM    3  C5  UNL     1      28.309   2.305  53.188  1.00  0.00     0.173 C 
HETATM    4  O1  UNL     1      28.286   1.731  54.369  1.00  0.00    -0.390 OA
HETATM    5  C6  UNL     1      28.418   0.400  54.615  1.00  0.00     0.178 C 
HETATM    6  C7  UNL     1      27.229  -0.338  54.030  1.00  0.00    -0.005 A 
HETATM    7  C8  UNL     1      26.255   0.295  54.748  1.00  0.00     0.012 A 
HETATM    8  C9  UNL     1      24.898   0.294  54.601  1.00  0.00     0.006 A 
HETATM    9  C10 UNL     1      25.251  -0.524  53.565  1.00  0.00    -0.017 A 
HETATM   10  C11 UNL     1      26.207  -1.156  52.853  1.00  0.00     0.012 A 
HETATM   11  C12 UNL     1      27.562  -1.162  53.004  1.00  0.00     0.008 A 
HETATM   12  C13 UNL     1      23.936  -0.478  52.868  1.00  0.00     0.060 C 
HETATM   13  C14 UNL     1      22.850  -1.072  53.663  1.00  0.00     0.280 C 
HETATM   14  N1  UNL     1      21.554  -0.496  53.272  1.00  0.00     0.087 N 
HETATM   15  C15 UNL     1      21.648   0.004  51.896  1.00  0.00     0.297 C 
HETATM   16  C16 UNL     1      22.474   1.236  51.990  1.00  0.00     0.014 C 
HETATM   17  C17 UNL     1      23.665   0.969  52.500  1.00  0.00    -0.002 C 
HETATM   18  C18 UNL     1      24.709   2.003  52.737  1.00  0.00     0.192 C 
HETATM   19  O2  UNL     1      24.655   2.877  53.681  1.00  0.00    -0.287 OA
HETATM   20  H17 UNL     1      21.430   0.347  53.875  1.00  0.00     0.316 HD
ENDROOT
BRANCH   1  21
HETATM   21  C2  UNL     1      25.529   3.294  51.238  1.00  0.00    -0.108 C 
BRANCH  21  22
HETATM   22  P1  UNL     1      25.182   4.410  50.050  1.00  0.00    -0.007 P 
HETATM   23  C1  UNL     1      26.618   4.980  48.989  1.00  0.00     0.063 C 
ENDBRANCH  21  22
ENDBRANCH   1  21
TORSDOF 3
ENDMDL
MODEL 2
REMARK VINA RESULT:      -8.0      2.568      5.536
REMARK  3 active torsions:
REMARK  status: ('A' for Active; 'I' for Inactive)
REMARK    1  A    between atoms: P1_2  and  C2_3 
REMARK    2  A    between atoms: C2_3  and  C3_4 
REMARK    3  A    between atoms: C10_12  and  C11_13 
ROOT
HETATM    1  C3  UNL     1      24.628   0.481  52.876  1.00  0.00     0.040 C 
HETATM    2  C4  UNL     1      23.539  -0.490  53.044  1.00  0.00     0.078 C 
HETATM    3  C5  UNL     1      22.434  -0.263  53.968  1.00  0.00     0.173 C 
HETATM    4  O1  UNL     1      21.530   0.690  53.976  1.00  0.00    -0.390 OA
HETATM    5  C6  UNL     1      20.642   0.959  52.981  1.00  0.00     0.178 C 
HETATM    6  C7  UNL     1      21.394   1.433  51.752  1.00  0.00    -0.005 A 
HETATM    7  C8  UNL     1      21.990   2.525  52.316  1.00  0.00     0.012 A 
HETATM    8  C9  UNL     1      22.991   3.329  51.856  1.00  0.00     0.006 A 
HETATM    9  C10 UNL     1      22.895   2.448  50.816  1.00  0.00    -0.017 A 
HETATM   10  C11 UNL     1      22.310   1.373  50.250  1.00  0.00     0.012 A 
HETATM   11  C12 UNL     1      21.305   0.573  50.706  1.00  0.00     0.008 A 
HETATM   12  C13 UNL     1      24.186   2.819  50.173  1.00  0.00     0.060 C 
HETATM   13  C14 UNL     1      24.202   4.207  49.687  1.00  0.00     0.280 C 
HETATM   14  N1  UNL     1      25.581   4.716  49.633  1.00  0.00     0.087 N 
HETATM   15  C15 UNL     1      26.505   3.584  49.500  1.00  0.00     0.297 C 
HETATM   16  C16 UNL     1      26.510   2.931  50.835  1.00  0.00     0.014 C 
HETATM   17  C17 UNL     1      25.292   2.538  51.173  1.00  0.00    -0.002 C 
HETATM   18  C18 UNL     1      24.973   1.869  52.464  1.00  0.00     0.192 C 
HETATM   19  O2  UNL     1      24.942   2.475  53.600  1.00  0.00    -0.287 OA
HETATM   20  H17 UNL     1      25.766   5.125  50.576  1.00  0.00     0.316 HD
ENDROOT
BRANCH   1  21
HETATM   21  C2  UNL     1      25.864   0.054  53.166  1.00  0.00    -0.108 C 
BRANCH  21  22
HETATM   22  P1  UNL     1      27.461  -0.410  53.270  1.00  0.00    -0.007 P 
HETATM   23  C1  UNL     1      28.398   0.145  54.797  1.00  0.00     0.063 C 
ENDBRANCH  21  22
ENDBRANCH   1  21
TORSDOF 3
ENDMDL
MODEL 3
REMARK VINA RESULT:      -7.0      9.856     11.227
REMARK  3 active torsions:
REMARK  status: ('A' for Active; 'I' for Inactive)
REMARK    1  A    between atoms: P1_2  and  C2_3 
REMARK    2  A    between atoms: C2_3  and  C3_4 
REMARK    3  A    between atoms: C10_12  and  C11_13 
ROOT
HETATM    1  C3  UNL     1      32.915   6.370  44.934  1.00  0.00     0.040 C 
HETATM    2  C4  UNL     1      33.194   5.118  44.217  1.00  0.00     0.078 C 
HETATM    3  C5  UNL     1      34.530   4.535  44.169  1.00  0.00     0.173 C 
HETATM    4  O1  UNL     1      35.290   4.097  45.146  1.00  0.00    -0.390 OA
HETATM    5  C6  UNL     1      34.979   3.099  46.016  1.00  0.00     0.178 C 
HETATM    6  C7  UNL     1      33.807   3.532  46.877  1.00  0.00    -0.005 A 
HETATM    7  C8  UNL     1      34.392   4.632  47.435  1.00  0.00     0.012 A 
HETATM    8  C9  UNL     1      33.854   5.652  48.165  1.00  0.00     0.006 A 
HETATM    9  C10 UNL     1      32.731   4.910  47.926  1.00  0.00    -0.017 A 
HETATM   10  C11 UNL     1      32.147   3.824  47.382  1.00  0.00     0.012 A 
HETATM   11  C12 UNL     1      32.684   2.801  46.658  1.00  0.00     0.008 A 
HETATM   12  C13 UNL     1      31.756   5.965  48.319  1.00  0.00     0.060 C 
HETATM   13  C14 UNL     1      31.855   6.329  49.741  1.00  0.00     0.280 C 
HETATM   14  N1  UNL     1      31.370   7.702  49.954  1.00  0.00     0.087 N 
HETATM   15  C15 UNL     1      30.434   8.051  48.880  1.00  0.00     0.297 C 
HETATM   16  C16 UNL     1      31.284   8.248  47.677  1.00  0.00     0.014 C 
HETATM   17  C17 UNL     1      31.969   7.151  47.397  1.00  0.00    -0.002 C 
HETATM   18  C18 UNL     1      32.924   7.045  46.260  1.00  0.00     0.192 C 
HETATM   19  O2  UNL     1      34.083   7.606  46.240  1.00  0.00    -0.287 OA
HETATM   20  H17 UNL     1      32.203   8.317  49.818  1.00  0.00     0.316 HD
ENDROOT
BRANCH   1  21
HETATM   21  C2  UNL     1      32.437   7.386  44.204  1.00  0.00    -0.108 C 
BRANCH  21  22
HETATM   22  P1  UNL     1      31.886   8.801  43.518  1.00  0.00    -0.007 P 
HETATM   23  C1  UNL     1      31.963  10.338  44.588  1.00  0.00     0.063 C 
ENDBRANCH  21  22
ENDBRANCH   1  21
TORSDOF 3
ENDMDL
MODEL 4
REMARK VINA RESULT:      -6.8      2.345      5.195
REMARK  3 active torsions:
REMARK  status: ('A' for Active; 'I' for Inactive)
REMARK    1  A    between atoms: P1_2  and  C2_3 
REMARK    2  A    between atoms: C2_3  and  C3_4 
REMARK    3  A    between atoms: C10_12  and  C11_13 
ROOT
HETATM    1  C3  UNL     1      24.160   2.487  52.495  1.00  0.00     0.040 C 
HETATM    2  C4  UNL     1      23.851   3.836  52.003  1.00  0.00     0.078 C 
HETATM    3  C5  UNL     1      23.697   4.127  50.582  1.00  0.00     0.173 C 
HETATM    4  O1  UNL     1      22.823   3.658  49.721  1.00  0.00    -0.390 OA
HETATM    5  C6  UNL     1      21.471   3.779  49.805  1.00  0.00     0.178 C 
HETATM    6  C7  UNL     1      20.973   3.003  51.010  1.00  0.00    -0.005 A 
HETATM    7  C8  UNL     1      21.427   1.773  50.631  1.00  0.00     0.012 A 
HETATM    8  C9  UNL     1      21.525   0.606  51.331  1.00  0.00     0.006 A 
HETATM    9  C10 UNL     1      21.007   1.421  52.297  1.00  0.00    -0.017 A 
HETATM   10  C11 UNL     1      20.553   2.633  52.678  1.00  0.00     0.012 A 
HETATM   11  C12 UNL     1      20.447   3.798  51.977  1.00  0.00     0.008 A 
HETATM   12  C13 UNL     1      21.298   0.518  53.444  1.00  0.00     0.060 C 
HETATM   13  C14 UNL     1      20.557  -0.751  53.372  1.00  0.00     0.280 C 
HETATM   14  N1  UNL     1      21.272  -1.806  54.105  1.00  0.00     0.087 N 
HETATM   15  C15 UNL     1      22.126  -1.187  55.125  1.00  0.00     0.297 C 
HETATM   16  C16 UNL     1      23.248  -0.574  54.368  1.00  0.00     0.014 C 
HETATM   17  C17 UNL     1      22.801   0.313  53.493  1.00  0.00    -0.002 C 
HETATM   18  C18 UNL     1      23.685   1.078  52.573  1.00  0.00     0.192 C 
HETATM   19  O2  UNL     1      24.269   0.568  51.545  1.00  0.00    -0.287 OA
HETATM   20  H17 UNL     1      21.924  -2.236  53.411  1.00  0.00     0.316 HD
ENDROOT
BRANCH   1  21
HETATM   21  C2  UNL     1      25.299   2.345  53.183  1.00  0.00    -0.108 C 
BRANCH  21  22
HETATM   22  P1  UNL     1      26.735   1.925  53.918  1.00  0.00    -0.007 P 
HETATM   23  C1  UNL     1      26.850   0.183  54.602  1.00  0.00     0.063 C 
ENDBRANCH  21  22
ENDBRANCH   1  21
TORSDOF 3
ENDMDL
MODEL 5
REMARK VINA RESULT:      -6.8      3.571      6.947
REMARK  3 active torsions:
REMARK  status: ('A' for Active; 'I' for Inactive)
REMARK    1  A    between atoms: P1_2  and  C2_3 
REMARK    2  A    between atoms: C2_3  and  C3_4 
REMARK    3  A    between atoms: C10_12  and  C11_13 
ROOT
HETATM    1  C3  UNL     1      22.090   1.109  51.412  1.00  0.00     0.040 C 
HETATM    2  C4  UNL     1      20.949   0.610  50.634  1.00  0.00     0.078 C 
HETATM    3  C5  UNL     1      19.677   1.322  50.582  1.00  0.00     0.173 C 
HETATM    4  O1  UNL     1      19.406   2.525  50.129  1.00  0.00    -0.390 OA
HETATM    5  C6  UNL     1      19.608   2.966  48.859  1.00  0.00     0.178 C 
HETATM    6  C7  UNL     1      21.096   2.992  48.568  1.00  0.00    -0.005 A 
HETATM    7  C8  UNL     1      21.457   3.865  49.554  1.00  0.00     0.012 A 
HETATM    8  C9  UNL     1      22.687   4.204  50.035  1.00  0.00     0.006 A 
HETATM    9  C10 UNL     1      23.047   3.294  49.083  1.00  0.00    -0.017 A 
HETATM   10  C11 UNL     1      22.700   2.432  48.105  1.00  0.00     0.012 A 
HETATM   11  C12 UNL     1      21.471   2.098  47.617  1.00  0.00     0.008 A 
HETATM   12  C13 UNL     1      24.445   3.106  49.559  1.00  0.00     0.060 C 
HETATM   13  C14 UNL     1      25.253   4.331  49.449  1.00  0.00     0.280 C 
HETATM   14  N1  UNL     1      26.349   4.313  50.430  1.00  0.00     0.087 N 
HETATM   15  C15 UNL     1      26.658   2.921  50.777  1.00  0.00     0.297 C 
HETATM   16  C16 UNL     1      25.525   2.475  51.629  1.00  0.00     0.014 C 
HETATM   17  C17 UNL     1      24.376   2.579  50.980  1.00  0.00    -0.002 C 
HETATM   18  C18 UNL     1      23.059   2.227  51.579  1.00  0.00     0.192 C 
HETATM   19  O2  UNL     1      22.460   2.938  52.469  1.00  0.00    -0.287 OA
HETATM   20  H17 UNL     1      25.955   4.742  51.297  1.00  0.00     0.316 HD
ENDROOT
BRANCH   1  21
HETATM   21  C2  UNL     1      22.545   0.313  52.389  1.00  0.00    -0.108 C 
BRANCH  21  22
HETATM   22  P1  UNL     1      22.916  -0.563  53.757  1.00  0.00    -0.007 P 
HETATM   23  C1  UNL     1      21.550  -1.633  54.465  1.00  0.00     0.063 C 
ENDBRANCH  21  22
ENDBRANCH   1  21
TORSDOF 3
ENDMDL
MODEL 6
REMARK VINA RESULT:      -6.7      2.826      5.532
REMARK  3 active torsions:
REMARK  status: ('A' for Active; 'I' for Inactive)
REMARK    1  A    between atoms: P1_2  and  C2_3 
REMARK    2  A    between atoms: C2_3  and  C3_4 
REMARK    3  A    between atoms: C10_12  and  C11_13 
ROOT
HETATM    1  C3  UNL     1      21.332   3.278  51.805  1.00  0.00     0.040 C 
HETATM    2  C4  UNL     1      19.979   3.080  52.341  1.00  0.00     0.078 C 
HETATM    3  C5  UNL     1      18.982   2.270  51.650  1.00  0.00     0.173 C 
HETATM    4  O1  UNL     1      19.004   0.992  51.345  1.00  0.00    -0.390 OA
HETATM    5  C6  UNL     1      19.106  -0.039  52.226  1.00  0.00     0.178 C 
HETATM    6  C7  UNL     1      20.464   0.011  52.900  1.00  0.00    -0.005 A 
HETATM    7  C8  UNL     1      21.227  -0.105  51.774  1.00  0.00     0.012 A 
HETATM    8  C9  UNL     1      22.567   0.074  51.585  1.00  0.00     0.006 A 
HETATM    9  C10 UNL     1      22.475   0.351  52.920  1.00  0.00    -0.017 A 
HETATM   10  C11 UNL     1      21.729   0.463  54.037  1.00  0.00     0.012 A 
HETATM   11  C12 UNL     1      20.392   0.277  54.230  1.00  0.00     0.008 A 
HETATM   12  C13 UNL     1      23.816   0.985  53.045  1.00  0.00     0.060 C 
HETATM   13  C14 UNL     1      24.917   0.047  52.776  1.00  0.00     0.280 C 
HETATM   14  N1  UNL     1      26.110   0.773  52.315  1.00  0.00     0.087 N 
HETATM   15  C15 UNL     1      26.051   2.153  52.810  1.00  0.00     0.297 C 
HETATM   16  C16 UNL     1      25.001   2.812  51.992  1.00  0.00     0.014 C 
HETATM   17  C17 UNL     1      23.839   2.191  52.124  1.00  0.00    -0.002 C 
HETATM   18  C18 UNL     1      22.600   2.604  51.412  1.00  0.00     0.192 C 
HETATM   19  O2  UNL     1      22.397   2.420  50.154  1.00  0.00    -0.287 OA
HETATM   20  H17 UNL     1      26.014   0.839  51.277  1.00  0.00     0.316 HD
ENDROOT
BRANCH   1  21
HETATM   21  C2  UNL     1      21.692   4.539  51.537  1.00  0.00    -0.108 C 
BRANCH  21  22
HETATM   22  P1  UNL     1      22.287   6.000  51.001  1.00  0.00    -0.007 P 
HETATM   23  C1  UNL     1      24.138   6.259  51.150  1.00  0.00     0.063 C 
ENDBRANCH  21  22
ENDBRANCH   1  21
TORSDOF 3
ENDMDL
MODEL 7
REMARK VINA RESULT:      -6.5      3.760      6.389
REMARK  3 active torsions:
REMARK  status: ('A' for Active; 'I' for Inactive)
REMARK    1  A    between atoms: P1_2  and  C2_3 
REMARK    2  A    between atoms: C2_3  and  C3_4 
REMARK    3  A    between atoms: C10_12  and  C11_13 
ROOT
HETATM    1  C3  UNL     1      19.795   2.362  51.020  1.00  0.00     0.040 C 
HETATM    2  C4  UNL     1      19.742   3.202  49.817  1.00  0.00     0.078 C 
HETATM    3  C5  UNL     1      19.837   4.656  49.882  1.00  0.00     0.173 C 
HETATM    4  O1  UNL     1      20.817   5.414  50.318  1.00  0.00    -0.390 OA
HETATM    5  C6  UNL     1      22.087   5.439  49.832  1.00  0.00     0.178 C 
HETATM    6  C7  UNL     1      22.754   4.104  50.105  1.00  0.00    -0.005 A 
HETATM    7  C8  UNL     1      22.648   4.126  51.466  1.00  0.00     0.012 A 
HETATM    8  C9  UNL     1      22.852   3.143  52.390  1.00  0.00     0.006 A 
HETATM    9  C10 UNL     1      23.120   2.452  51.243  1.00  0.00    -0.017 A 
HETATM   10  C11 UNL     1      23.231   2.422  49.899  1.00  0.00     0.012 A 
HETATM   11  C12 UNL     1      23.035   3.405  48.975  1.00  0.00     0.008 A 
HETATM   12  C13 UNL     1      23.061   1.096  51.855  1.00  0.00     0.060 C 
HETATM   13  C14 UNL     1      24.113   0.878  52.860  1.00  0.00     0.280 C 
HETATM   14  N1  UNL     1      23.692  -0.141  53.833  1.00  0.00     0.087 N 
HETATM   15  C15 UNL     1      22.689  -1.012  53.210  1.00  0.00     0.297 C 
HETATM   16  C16 UNL     1      21.456  -0.186  53.132  1.00  0.00     0.014 C 
HETATM   17  C17 UNL     1      21.666   0.912  52.423  1.00  0.00    -0.002 C 
HETATM   18  C18 UNL     1      20.625   1.948  52.185  1.00  0.00     0.192 C 
HETATM   19  O2  UNL     1      20.213   2.775  53.082  1.00  0.00    -0.287 OA
HETATM   20  H17 UNL     1      23.189   0.380  54.585  1.00  0.00     0.316 HD
ENDROOT
BRANCH   1  21
HETATM   21  C2  UNL     1      18.723   1.598  51.267  1.00  0.00    -0.108 C 
BRANCH  21  22
HETATM   22  P1  UNL     1      17.564   0.440  51.572  1.00  0.00    -0.007 P 
HETATM   23  C1  UNL     1      18.016  -0.894  52.808  1.00  0.00     0.063 C 
ENDBRANCH  21  22
ENDBRANCH   1  21
TORSDOF 3
ENDMDL
MODEL 8
REMARK VINA RESULT:      -6.4     10.251     12.731
REMARK  3 active torsions:
REMARK  status: ('A' for Active; 'I' for Inactive)
REMARK    1  A    between atoms: P1_2  and  C2_3 
REMARK    2  A    between atoms: C2_3  and  C3_4 
REMARK    3  A    between atoms: C10_12  and  C11_13 
ROOT
HETATM    1  C3  UNL     1      33.767   6.967  46.803  1.00  0.00     0.040 C 
HETATM    2  C4  UNL     1      34.007   6.174  48.016  1.00  0.00     0.078 C 
HETATM    3  C5  UNL     1      32.969   5.344  48.617  1.00  0.00     0.173 C 
HETATM    4  O1  UNL     1      32.327   4.313  48.119  1.00  0.00    -0.390 OA
HETATM    5  C6  UNL     1      32.889   3.150  47.692  1.00  0.00     0.178 C 
HETATM    6  C7  UNL     1      33.754   3.429  46.478  1.00  0.00    -0.005 A 
HETATM    7  C8  UNL     1      32.775   3.936  45.672  1.00  0.00     0.012 A 
HETATM    8  C9  UNL     1      32.856   4.598  44.482  1.00  0.00     0.006 A 
HETATM    9  C10 UNL     1      34.183   4.390  44.730  1.00  0.00    -0.017 A 
HETATM   10  C11 UNL     1      35.156   3.889  45.518  1.00  0.00     0.012 A 
HETATM   11  C12 UNL     1      35.077   3.220  46.704  1.00  0.00     0.008 A 
HETATM   12  C13 UNL     1      34.690   5.357  43.718  1.00  0.00     0.060 C 
HETATM   13  C14 UNL     1      34.345   4.972  42.341  1.00  0.00     0.280 C 
HETATM   14  N1  UNL     1      34.298   6.158  41.472  1.00  0.00     0.087 N 
HETATM   15  C15 UNL     1      35.144   7.208  42.050  1.00  0.00     0.297 C 
HETATM   16  C16 UNL     1      34.389   7.706  43.229  1.00  0.00     0.014 C 
HETATM   17  C17 UNL     1      34.158   6.729  44.090  1.00  0.00    -0.002 C 
HETATM   18  C18 UNL     1      33.405   6.913  45.361  1.00  0.00     0.192 C 
HETATM   19  O2  UNL     1      32.130   7.080  45.423  1.00  0.00    -0.287 OA
HETATM   20  H17 UNL     1      33.318   6.514  41.536  1.00  0.00     0.316 HD
ENDROOT
BRANCH   1  21
HETATM   21  C2  UNL     1      33.922   8.293  46.913  1.00  0.00    -0.108 C 
BRANCH  21  22
HETATM   22  P1  UNL     1      33.924   9.958  46.856  1.00  0.00    -0.007 P 
HETATM   23  C1  UNL     1      33.121  10.748  45.358  1.00  0.00     0.063 C 
ENDBRANCH  21  22
ENDBRANCH   1  21
TORSDOF 3
ENDMDL
MODEL 9
REMARK VINA RESULT:      -6.4      3.127      5.069
REMARK  3 active torsions:
REMARK  status: ('A' for Active; 'I' for Inactive)
REMARK    1  A    between atoms: P1_2  and  C2_3 
REMARK    2  A    between atoms: C2_3  and  C3_4 
REMARK    3  A    between atoms: C10_12  and  C11_13 
ROOT
HETATM    1  C3  UNL     1      22.293   0.693  52.784  1.00  0.00     0.040 C 
HETATM    2  C4  UNL     1      23.203   0.047  53.738  1.00  0.00     0.078 C 
HETATM    3  C5  UNL     1      24.297  -0.814  53.304  1.00  0.00     0.173 C 
HETATM    4  O1  UNL     1      25.343  -0.532  52.561  1.00  0.00    -0.390 OA
HETATM    5  C6  UNL     1      26.297   0.395  52.841  1.00  0.00     0.178 C 
HETATM    6  C7  UNL     1      25.676   1.778  52.813  1.00  0.00    -0.005 A 
HETATM    7  C8  UNL     1      25.245   1.755  51.517  1.00  0.00     0.012 A 
HETATM    8  C9  UNL     1      24.404   2.593  50.844  1.00  0.00     0.006 A 
HETATM    9  C10 UNL     1      24.393   3.183  52.076  1.00  0.00    -0.017 A 
HETATM   10  C11 UNL     1      24.817   3.215  53.356  1.00  0.00     0.012 A 
HETATM   11  C12 UNL     1      25.663   2.383  54.028  1.00  0.00     0.008 A 
HETATM   12  C13 UNL     1      23.203   4.044  51.831  1.00  0.00     0.060 C 
HETATM   13  C14 UNL     1      23.429   5.039  50.772  1.00  0.00     0.280 C 
HETATM   14  N1  UNL     1      22.154   5.426  50.150  1.00  0.00     0.087 N 
HETATM   15  C15 UNL     1      21.065   5.189  51.104  1.00  0.00     0.297 C 
HETATM   16  C16 UNL     1      20.907   3.713  51.150  1.00  0.00     0.014 C 
HETATM   17  C17 UNL     1      22.031   3.128  51.530  1.00  0.00    -0.002 C 
HETATM   18  C18 UNL     1      22.192   1.653  51.651  1.00  0.00     0.192 C 
HETATM   19  O2  UNL     1      22.280   0.854  50.645  1.00  0.00    -0.287 OA
HETATM   20  H17 UNL     1      22.004   4.745  49.372  1.00  0.00     0.316 HD
ENDROOT
BRANCH   1  21
HETATM   21  C2  UNL     1      20.995   0.380  52.887  1.00  0.00    -0.108 C 
BRANCH  21  22
HETATM   22  P1  UNL     1      19.441  -0.223  52.859  1.00  0.00    -0.007 P 
HETATM   23  C1  UNL     1      18.249   0.584  51.659  1.00  0.00     0.063 C 
ENDBRANCH  21  22
ENDBRANCH   1  21
TORSDOF 3
ENDMDL
