MODEL 1
REMARK VINA RESULT:      -8.3      0.000      0.000
REMARK  2 active torsions:
REMARK  status: ('A' for Active; 'I' for Inactive)
REMARK    1  A    between atoms: N2_10  and  C9_11 
REMARK    2  A    between atoms: C10_13  and  O1_14 
ROOT
HETATM    1  C1  UNL     1      21.358   0.247  51.154  1.00  0.00     0.016 C 
HETATM    2  C2  UNL     1      22.098   0.885  52.025  1.00  0.00    -0.068 C 
HETATM    3  C3  UNL     1      21.813   0.949  53.444  1.00  0.00     0.061 C 
HETATM    4  C4  UNL     1      20.902  -0.149  53.853  1.00  0.00    -0.026 C 
HETATM    5  C5  UNL     1      21.568  -0.993  54.610  1.00  0.00    -0.025 C 
HETATM    6  C6  UNL     1      22.664  -1.606  55.348  1.00  0.00     0.083 C 
HETATM    7  C7  UNL     1      23.989  -0.945  55.056  1.00  0.00     0.032 C 
HETATM    8  C8  UNL     1      25.039  -0.941  56.113  1.00  0.00     0.068 C 
HETATM    9  N1  UNL     1      24.048  -0.543  53.870  1.00  0.00    -0.179 NA
HETATM   10  N2  UNL     1      24.902   0.086  53.051  1.00  0.00    -0.245 N 
HETATM   11  C12 UNL     1      24.514   0.558  51.764  1.00  0.00     0.176 C 
HETATM   12  C13 UNL     1      23.396   1.578  51.764  1.00  0.00     0.038 A 
HETATM   13  C14 UNL     1      23.275   2.193  50.403  1.00  0.00    -0.005 A 
HETATM   14  C15 UNL     1      23.414   3.528  50.452  1.00  0.00     0.021 A 
HETATM   15  C16 UNL     1      23.636   3.858  51.870  1.00  0.00     0.031 A 
HETATM   16 CL1  UNL     1      23.857   5.537  52.305  1.00  0.00    -0.085 Cl
HETATM   17  C17 UNL     1      23.625   2.748  52.605  1.00  0.00     0.017 A 
ENDROOT
BRANCH  10  18
HETATM   18  C9  UNL     1      26.329   0.373  53.348  1.00  0.00     0.191 A 
HETATM   19  N3  UNL     1      27.075  -0.509  53.467  1.00  0.00    -0.198 NA
HETATM   20  C10 UNL     1      28.411  -0.349  53.716  1.00  0.00     0.171 A 
HETATM   21  C11 UNL     1      28.918   0.955  53.835  1.00  0.00     0.111 A 
HETATM   22  S1  UNL     1      27.356   1.959  53.568  1.00  0.00    -0.058 SA
BRANCH  20  23
HETATM   23  O1  UNL     1      29.314  -1.423  53.861  1.00  0.00    -0.344 OA
HETATM   24  H12 UNL     1      29.022  -2.380  53.785  1.00  0.00     0.219 HD
ENDBRANCH  20  23
ENDBRANCH  10  18
TORSDOF 2
ENDMDL
MODEL 2
REMARK VINA RESULT:      -8.1      4.762      6.556
REMARK  2 active torsions:
REMARK  status: ('A' for Active; 'I' for Inactive)
REMARK    1  A    between atoms: N2_10  and  C9_11 
REMARK    2  A    between atoms: C10_13  and  O1_14 
ROOT
HETATM    1  C1  UNL     1      24.255   2.538  53.077  1.00  0.00     0.016 C 
HETATM    2  C2  UNL     1      23.417   1.948  52.261  1.00  0.00    -0.068 C 
HETATM    3  C3  UNL     1      23.184   0.519  52.227  1.00  0.00     0.061 C 
HETATM    4  C4  UNL     1      23.616  -0.122  53.495  1.00  0.00    -0.026 C 
HETATM    5  C5  UNL     1      22.552  -0.544  54.140  1.00  0.00    -0.025 C 
HETATM    6  C6  UNL     1      21.157  -0.811  54.463  1.00  0.00     0.083 C 
HETATM    7  C7  UNL     1      20.209  -0.110  53.521  1.00  0.00     0.032 C 
HETATM    8  C8  UNL     1      18.881  -0.726  53.245  1.00  0.00     0.068 C 
HETATM    9  N1  UNL     1      20.669   0.995  53.148  1.00  0.00    -0.179 NA
HETATM   10  N2  UNL     1      20.328   2.025  52.361  1.00  0.00    -0.245 N 
HETATM   11  C12 UNL     1      21.246   3.063  52.027  1.00  0.00     0.176 C 
HETATM   12  C13 UNL     1      22.489   2.610  51.294  1.00  0.00     0.038 A 
HETATM   13  C14 UNL     1      23.223   3.802  50.761  1.00  0.00    -0.005 A 
HETATM   14  C15 UNL     1      23.381   3.728  49.429  1.00  0.00     0.021 A 
HETATM   15  C16 UNL     1      22.749   2.463  49.019  1.00  0.00     0.031 A 
HETATM   16 CL1  UNL     1      22.773   2.037  47.323  1.00  0.00    -0.085 Cl
HETATM   17  C17 UNL     1      22.247   1.837  50.080  1.00  0.00     0.017 A 
ENDROOT
BRANCH  10  18
HETATM   18  C9  UNL     1      18.994   2.235  51.743  1.00  0.00     0.191 A 
HETATM   19  N3  UNL     1      18.413   3.217  51.962  1.00  0.00    -0.198 NA
HETATM   20  C10 UNL     1      17.191   3.515  51.423  1.00  0.00     0.171 A 
HETATM   21  C11 UNL     1      16.598   2.586  50.553  1.00  0.00     0.111 A 
HETATM   22  S1  UNL     1      17.902   1.238  50.547  1.00  0.00    -0.058 SA
BRANCH  20  23
HETATM   23  O1  UNL     1      16.488   4.708  51.691  1.00  0.00    -0.344 OA
HETATM   24  H12 UNL     1      16.828   5.605  51.396  1.00  0.00     0.219 HD
ENDBRANCH  20  23
ENDBRANCH  10  18
TORSDOF 2
ENDMDL
MODEL 3
REMARK VINA RESULT:      -7.6      2.077      2.766
REMARK  2 active torsions:
REMARK  status: ('A' for Active; 'I' for Inactive)
REMARK    1  A    between atoms: N2_10  and  C9_11 
REMARK    2  A    between atoms: C10_13  and  O1_14 
ROOT
HETATM    1  C1  UNL     1      20.970   1.827  48.977  1.00  0.00     0.016 C 
HETATM    2  C2  UNL     1      21.393   2.263  50.137  1.00  0.00    -0.068 C 
HETATM    3  C3  UNL     1      20.551   2.417  51.304  1.00  0.00     0.061 C 
HETATM    4  C4  UNL     1      19.318   1.599  51.184  1.00  0.00    -0.026 C 
HETATM    5  C5  UNL     1      19.371   0.621  52.062  1.00  0.00    -0.025 C 
HETATM    6  C6  UNL     1      19.860  -0.245  53.125  1.00  0.00     0.083 C 
HETATM    7  C7  UNL     1      21.298   0.045  53.481  1.00  0.00     0.032 C 
HETATM    8  C8  UNL     1      21.759  -0.209  54.875  1.00  0.00     0.068 C 
HETATM    9  N1  UNL     1      21.955   0.403  52.475  1.00  0.00    -0.179 NA
HETATM   10  N2  UNL     1      23.202   0.777  52.156  1.00  0.00    -0.245 N 
HETATM   11  C12 UNL     1      23.530   1.317  50.878  1.00  0.00     0.176 C 
HETATM   12  C13 UNL     1      22.802   2.591  50.513  1.00  0.00     0.038 A 
HETATM   13  C14 UNL     1      23.428   3.198  49.295  1.00  0.00    -0.005 A 
HETATM   14  C15 UNL     1      23.849   4.452  49.530  1.00  0.00     0.021 A 
HETATM   15  C16 UNL     1      23.512   4.732  50.936  1.00  0.00     0.031 A 
HETATM   16 CL1  UNL     1      23.921   6.302  51.589  1.00  0.00    -0.085 Cl
HETATM   17  C17 UNL     1      22.920   3.673  51.484  1.00  0.00     0.017 A 
ENDROOT
BRANCH  10  18
HETATM   18  C9  UNL     1      24.386   0.688  53.049  1.00  0.00     0.191 A 
HETATM   19  N3  UNL     1      25.088   1.608  53.157  1.00  0.00    -0.198 NA
HETATM   20  C10 UNL     1      26.187   1.636  53.970  1.00  0.00     0.171 A 
HETATM   21  C11 UNL     1      26.492   0.490  54.723  1.00  0.00     0.111 A 
HETATM   22  S1  UNL     1      25.099  -0.650  54.196  1.00  0.00    -0.058 SA
BRANCH  20  23
HETATM   23  O1  UNL     1      27.037   2.754  54.099  1.00  0.00    -0.344 OA
HETATM   24  H12 UNL     1      28.030   2.660  54.207  1.00  0.00     0.219 HD
ENDBRANCH  20  23
ENDBRANCH  10  18
TORSDOF 2
ENDMDL
MODEL 4
REMARK VINA RESULT:      -7.3      4.272      6.397
REMARK  2 active torsions:
REMARK  status: ('A' for Active; 'I' for Inactive)
REMARK    1  A    between atoms: N2_10  and  C9_11 
REMARK    2  A    between atoms: C10_13  and  O1_14 
ROOT
HETATM    1  C1  UNL     1      20.985   1.344  51.731  1.00  0.00     0.016 C 
HETATM    2  C2  UNL     1      22.031   1.759  51.060  1.00  0.00    -0.068 C 
HETATM    3  C3  UNL     1      22.210   1.572  49.636  1.00  0.00     0.061 C 
HETATM    4  C4  UNL     1      20.913   1.305  48.965  1.00  0.00    -0.026 C 
HETATM    5  C5  UNL     1      20.607   2.336  48.209  1.00  0.00    -0.025 C 
HETATM    6  C6  UNL     1      20.692   3.638  47.561  1.00  0.00     0.083 C 
HETATM    7  C7  UNL     1      21.813   4.481  48.118  1.00  0.00     0.032 C 
HETATM    8  C8  UNL     1      22.475   5.476  47.229  1.00  0.00     0.068 C 
HETATM    9  N1  UNL     1      21.981   4.267  49.342  1.00  0.00    -0.179 NA
HETATM   10  N2  UNL     1      22.769   4.675  50.346  1.00  0.00    -0.245 N 
HETATM   11  C12 UNL     1      22.780   4.027  51.616  1.00  0.00     0.176 C 
HETATM   12  C13 UNL     1      23.172   2.566  51.588  1.00  0.00     0.038 A 
HETATM   13  C14 UNL     1      23.415   2.082  52.985  1.00  0.00    -0.005 A 
HETATM   14  C15 UNL     1      24.656   1.587  53.126  1.00  0.00     0.021 A 
HETATM   15  C16 UNL     1      25.296   1.724  51.808  1.00  0.00     0.031 A 
HETATM   16 CL1  UNL     1      26.944   1.167  51.625  1.00  0.00    -0.085 Cl
HETATM   17  C17 UNL     1      24.450   2.279  50.943  1.00  0.00     0.017 A 
ENDROOT
BRANCH  10  18
HETATM   18  C9  UNL     1      23.713   5.820  50.293  1.00  0.00     0.191 A 
HETATM   19  N3  UNL     1      24.822   5.632  49.998  1.00  0.00    -0.198 NA
HETATM   20  C10 UNL     1      25.762   6.620  49.896  1.00  0.00     0.171 A 
HETATM   21  C11 UNL     1      25.372   7.944  50.161  1.00  0.00     0.111 A 
HETATM   22  S1  UNL     1      23.559   7.695  50.573  1.00  0.00    -0.058 SA
BRANCH  20  23
HETATM   23  O1  UNL     1      27.105   6.388  49.538  1.00  0.00    -0.344 OA
HETATM   24  H12 UNL     1      27.581   5.537  49.773  1.00  0.00     0.219 HD
ENDBRANCH  20  23
ENDBRANCH  10  18
TORSDOF 2
ENDMDL
MODEL 5
REMARK VINA RESULT:      -7.3      2.964      5.027
REMARK  2 active torsions:
REMARK  status: ('A' for Active; 'I' for Inactive)
REMARK    1  A    between atoms: N2_10  and  C9_11 
REMARK    2  A    between atoms: C10_13  and  O1_14 
ROOT
HETATM    1  C1  UNL     1      23.934   5.406  51.262  1.00  0.00     0.016 C 
HETATM    2  C2  UNL     1      23.611   4.185  50.917  1.00  0.00    -0.068 C 
HETATM    3  C3  UNL     1      24.472   3.298  50.161  1.00  0.00     0.061 C 
HETATM    4  C4  UNL     1      25.889   3.735  50.242  1.00  0.00    -0.026 C 
HETATM    5  C5  UNL     1      26.564   2.854  50.947  1.00  0.00    -0.025 C 
HETATM    6  C6  UNL     1      26.865   1.677  51.750  1.00  0.00     0.083 C 
HETATM    7  C7  UNL     1      25.617   0.945  52.180  1.00  0.00     0.032 C 
HETATM    8  C8  UNL     1      25.685  -0.527  52.397  1.00  0.00     0.068 C 
HETATM    9  N1  UNL     1      24.668   1.739  52.382  1.00  0.00    -0.179 NA
HETATM   10  N2  UNL     1      23.381   1.710  52.756  1.00  0.00    -0.245 N 
HETATM   11  C12 UNL     1      22.542   2.860  52.682  1.00  0.00     0.176 C 
HETATM   12  C13 UNL     1      22.371   3.442  51.296  1.00  0.00     0.038 A 
HETATM   13  C14 UNL     1      21.266   4.454  51.307  1.00  0.00    -0.005 A 
HETATM   14  C15 UNL     1      20.303   4.141  50.424  1.00  0.00     0.021 A 
HETATM   15  C16 UNL     1      20.737   2.890  49.781  1.00  0.00     0.031 A 
HETATM   16 CL1  UNL     1      19.706   2.186  48.556  1.00  0.00    -0.085 Cl
HETATM   17  C17 UNL     1      21.908   2.501  50.281  1.00  0.00     0.017 A 
ENDROOT
BRANCH  10  18
HETATM   18  C9  UNL     1      22.661   0.524  53.285  1.00  0.00     0.191 A 
HETATM   19  N3  UNL     1      23.092  -0.040  54.205  1.00  0.00    -0.198 NA
HETATM   20  C10 UNL     1      22.494  -1.127  54.782  1.00  0.00     0.171 A 
HETATM   21  C11 UNL     1      21.287  -1.594  54.237  1.00  0.00     0.111 A 
HETATM   22  S1  UNL     1      21.050  -0.377  52.829  1.00  0.00    -0.058 SA
BRANCH  20  23
HETATM   23  O1  UNL     1      23.019  -1.808  55.899  1.00  0.00    -0.344 OA
HETATM   24  H12 UNL     1      23.591  -1.349  56.584  1.00  0.00     0.219 HD
ENDBRANCH  20  23
ENDBRANCH  10  18
TORSDOF 2
ENDMDL
MODEL 6
REMARK VINA RESULT:      -7.1     10.088     12.318
REMARK  2 active torsions:
REMARK  status: ('A' for Active; 'I' for Inactive)
REMARK    1  A    between atoms: N2_10  and  C9_11 
REMARK    2  A    between atoms: C10_13  and  O1_14 
ROOT
HETATM    1  C1  UNL     1      32.095   5.807  49.475  1.00  0.00     0.016 C 
HETATM    2  C2  UNL     1      31.713   6.568  48.480  1.00  0.00    -0.068 C 
HETATM    3  C3  UNL     1      30.707   6.192  47.508  1.00  0.00     0.061 C 
HETATM    4  C4  UNL     1      29.845   5.101  48.028  1.00  0.00    -0.026 C 
HETATM    5  C5  UNL     1      28.638   5.579  48.239  1.00  0.00    -0.025 C 
HETATM    6  C6  UNL     1      27.525   6.515  48.314  1.00  0.00     0.083 C 
HETATM    7  C7  UNL     1      27.961   7.941  48.083  1.00  0.00     0.032 C 
HETATM    8  C8  UNL     1      26.996   8.900  47.478  1.00  0.00     0.068 C 
HETATM    9  N1  UNL     1      29.114   8.145  48.533  1.00  0.00    -0.179 NA
HETATM   10  N2  UNL     1      30.005   9.141  48.631  1.00  0.00    -0.245 N 
HETATM   11  C12 UNL     1      31.346   8.922  49.062  1.00  0.00     0.176 C 
HETATM   12  C13 UNL     1      32.150   7.970  48.203  1.00  0.00     0.038 A 
HETATM   13  C14 UNL     1      33.595   8.040  48.589  1.00  0.00    -0.005 A 
HETATM   14  C15 UNL     1      34.370   8.371  47.542  1.00  0.00     0.021 A 
HETATM   15  C16 UNL     1      33.454   8.536  46.401  1.00  0.00     0.031 A 
HETATM   16 CL1  UNL     1      34.133   8.971  44.849  1.00  0.00    -0.085 Cl
HETATM   17  C17 UNL     1      32.200   8.307  46.784  1.00  0.00     0.017 A 
ENDROOT
BRANCH  10  18
HETATM   18  C9  UNL     1      29.743  10.569  48.318  1.00  0.00     0.191 A 
HETATM   19  N3  UNL     1      29.152  11.219  49.078  1.00  0.00    -0.198 NA
HETATM   20  C10 UNL     1      28.879  12.547  48.895  1.00  0.00     0.171 A 
HETATM   21  C11 UNL     1      29.339  13.169  47.722  1.00  0.00     0.111 A 
HETATM   22  S1  UNL     1      30.195  11.728  46.879  1.00  0.00    -0.058 SA
BRANCH  20  23
HETATM   23  O1  UNL     1      28.162  13.333  49.820  1.00  0.00    -0.344 OA
HETATM   24  H12 UNL     1      27.741  12.940  50.641  1.00  0.00     0.219 HD
ENDBRANCH  20  23
ENDBRANCH  10  18
TORSDOF 2
ENDMDL
MODEL 7
REMARK VINA RESULT:      -7.1      1.962      3.029
REMARK  2 active torsions:
REMARK  status: ('A' for Active; 'I' for Inactive)
REMARK    1  A    between atoms: N2_10  and  C9_11 
REMARK    2  A    between atoms: C10_13  and  O1_14 
ROOT
HETATM    1  C1  UNL     1      20.933   2.107  48.356  1.00  0.00     0.016 C 
HETATM    2  C2  UNL     1      21.276   2.560  49.536  1.00  0.00    -0.068 C 
HETATM    3  C3  UNL     1      20.368   2.672  50.659  1.00  0.00     0.061 C 
HETATM    4  C4  UNL     1      19.183   1.797  50.476  1.00  0.00    -0.026 C 
HETATM    5  C5  UNL     1      19.236   0.821  51.355  1.00  0.00    -0.025 C 
HETATM    6  C6  UNL     1      19.710  -0.024  52.443  1.00  0.00     0.083 C 
HETATM    7  C7  UNL     1      21.112   0.332  52.872  1.00  0.00     0.032 C 
HETATM    8  C8  UNL     1      21.513   0.097  54.288  1.00  0.00     0.068 C 
HETATM    9  N1  UNL     1      21.803   0.722  51.901  1.00  0.00    -0.179 NA
HETATM   10  N2  UNL     1      23.046   1.155  51.646  1.00  0.00    -0.245 N 
HETATM   11  C12 UNL     1      23.414   1.712  50.387  1.00  0.00     0.176 C 
HETATM   12  C13 UNL     1      22.646   2.952  49.984  1.00  0.00     0.038 A 
HETATM   13  C14 UNL     1      23.305   3.590  48.800  1.00  0.00    -0.005 A 
HETATM   14  C15 UNL     1      23.654   4.862  49.056  1.00  0.00     0.021 A 
HETATM   15  C16 UNL     1      23.233   5.123  50.443  1.00  0.00     0.031 A 
HETATM   16 CL1  UNL     1      23.534   6.709  51.116  1.00  0.00    -0.085 Cl
HETATM   17  C17 UNL     1      22.664   4.037  50.960  1.00  0.00     0.017 A 
ENDROOT
BRANCH  10  18
HETATM   18  C9  UNL     1      24.185   1.120  52.599  1.00  0.00     0.191 A 
HETATM   19  N3  UNL     1      24.648   0.096  52.895  1.00  0.00    -0.198 NA
HETATM   20  C10 UNL     1      25.712  -0.041  53.744  1.00  0.00     0.171 A 
HETATM   21  C11 UNL     1      26.285   1.118  54.292  1.00  0.00     0.111 A 
HETATM   22  S1  UNL     1      25.201   2.438  53.518  1.00  0.00    -0.058 SA
BRANCH  20  23
HETATM   23  O1  UNL     1      26.272  -1.285  54.101  1.00  0.00    -0.344 OA
HETATM   24  H12 UNL     1      26.044  -2.133  53.616  1.00  0.00     0.219 HD
ENDBRANCH  20  23
ENDBRANCH  10  18
TORSDOF 2
ENDMDL
MODEL 8
REMARK VINA RESULT:      -7.1     10.390     12.719
REMARK  2 active torsions:
REMARK  status: ('A' for Active; 'I' for Inactive)
REMARK    1  A    between atoms: N2_10  and  C9_11 
REMARK    2  A    between atoms: C10_13  and  O1_14 
ROOT
HETATM    1  C1  UNL     1      34.736   8.550  47.486  1.00  0.00     0.016 C 
HETATM    2  C2  UNL     1      33.562   8.494  46.908  1.00  0.00    -0.068 C 
HETATM    3  C3  UNL     1      33.043   7.321  46.235  1.00  0.00     0.061 C 
HETATM    4  C4  UNL     1      33.751   6.095  46.677  1.00  0.00    -0.026 C 
HETATM    5  C5  UNL     1      32.920   5.354  47.376  1.00  0.00    -0.025 C 
HETATM    6  C6  UNL     1      31.705   4.913  48.048  1.00  0.00     0.083 C 
HETATM    7  C7  UNL     1      30.653   5.993  48.092  1.00  0.00     0.032 C 
HETATM    8  C8  UNL     1      29.217   5.599  48.106  1.00  0.00     0.068 C 
HETATM    9  N1  UNL     1      31.170   7.131  48.199  1.00  0.00    -0.179 NA
HETATM   10  N2  UNL     1      30.794   8.415  48.282  1.00  0.00    -0.245 N 
HETATM   11  C12 UNL     1      31.728   9.488  48.197  1.00  0.00     0.176 C 
HETATM   12  C13 UNL     1      32.512   9.556  46.904  1.00  0.00     0.038 A 
HETATM   13  C14 UNL     1      33.240  10.863  46.825  1.00  0.00    -0.005 A 
HETATM   14  C15 UNL     1      32.899  11.550  45.721  1.00  0.00     0.021 A 
HETATM   15  C16 UNL     1      31.916  10.713  45.014  1.00  0.00     0.031 A 
HETATM   16 CL1  UNL     1      31.252  11.308  43.509  1.00  0.00    -0.085 Cl
HETATM   17  C17 UNL     1      31.703   9.587  45.690  1.00  0.00     0.017 A 
ENDROOT
BRANCH  10  18
HETATM   18  C9  UNL     1      29.402   8.896  48.471  1.00  0.00     0.191 A 
HETATM   19  N3  UNL     1      29.001   9.074  49.548  1.00  0.00    -0.198 NA
HETATM   20  C10 UNL     1      27.745   9.538  49.826  1.00  0.00     0.171 A 
HETATM   21  C11 UNL     1      26.883   9.820  48.754  1.00  0.00     0.111 A 
HETATM   22  S1  UNL     1      27.982   9.376  47.300  1.00  0.00    -0.058 SA
BRANCH  20  23
HETATM   23  O1  UNL     1      27.263   9.754  51.133  1.00  0.00    -0.344 OA
HETATM   24  H12 UNL     1      26.868  10.631  51.419  1.00  0.00     0.219 HD
ENDBRANCH  20  23
ENDBRANCH  10  18
TORSDOF 2
ENDMDL
MODEL 9
REMARK VINA RESULT:      -6.8      4.289      6.550
REMARK  2 active torsions:
REMARK  status: ('A' for Active; 'I' for Inactive)
REMARK    1  A    between atoms: N2_10  and  C9_11 
REMARK    2  A    between atoms: C10_13  and  O1_14 
ROOT
HETATM    1  C1  UNL     1      25.310   5.931  49.721  1.00  0.00     0.016 C 
HETATM    2  C2  UNL     1      24.671   4.838  49.385  1.00  0.00    -0.068 C 
HETATM    3  C3  UNL     1      25.288   3.531  49.292  1.00  0.00     0.061 C 
HETATM    4  C4  UNL     1      26.557   3.485  50.061  1.00  0.00    -0.026 C 
HETATM    5  C5  UNL     1      26.393   2.699  51.102  1.00  0.00    -0.025 C 
HETATM    6  C6  UNL     1      25.762   1.801  52.059  1.00  0.00     0.083 C 
HETATM    7  C7  UNL     1      24.274   1.687  51.840  1.00  0.00     0.032 C 
HETATM    8  C8  UNL     1      23.586   0.419  52.211  1.00  0.00     0.068 C 
HETATM    9  N1  UNL     1      23.788   2.768  51.429  1.00  0.00    -0.179 NA
HETATM   10  N2  UNL     1      22.602   3.278  51.071  1.00  0.00    -0.245 N 
HETATM   11  C12 UNL     1      22.480   4.555  50.448  1.00  0.00     0.176 C 
HETATM   12  C13 UNL     1      23.206   4.698  49.129  1.00  0.00     0.038 A 
HETATM   13  C14 UNL     1      22.777   5.964  48.453  1.00  0.00    -0.005 A 
HETATM   14  C15 UNL     1      22.268   5.723  47.233  1.00  0.00     0.021 A 
HETATM   15  C16 UNL     1      22.340   4.264  47.048  1.00  0.00     0.031 A 
HETATM   16 CL1  UNL     1      21.756   3.590  45.543  1.00  0.00    -0.085 Cl
HETATM   17  C17 UNL     1      22.872   3.692  48.125  1.00  0.00     0.017 A 
ENDROOT
BRANCH  10  18
HETATM   18  C9  UNL     1      21.285   2.618  51.261  1.00  0.00     0.191 A 
HETATM   19  N3  UNL     1      20.681   2.273  50.331  1.00  0.00    -0.198 NA
HETATM   20  C10 UNL     1      19.472   1.635  50.400  1.00  0.00     0.171 A 
HETATM   21  C11 UNL     1      18.923   1.380  51.667  1.00  0.00     0.111 A 
HETATM   22  S1  UNL     1      20.248   2.113  52.773  1.00  0.00    -0.058 SA
BRANCH  20  23
HETATM   23  O1  UNL     1      18.743   1.217  49.269  1.00  0.00    -0.344 OA
HETATM   24  H12 UNL     1      19.052   1.407  48.333  1.00  0.00     0.219 HD
ENDBRANCH  20  23
ENDBRANCH  10  18
TORSDOF 2
ENDMDL
