MODEL 1
REMARK VINA RESULT:      -8.2      0.000      0.000
REMARK  4 active torsions:
REMARK  status: ('A' for Active; 'I' for Inactive)
REMARK    1  A    between atoms: C4_4  and  N1_5 
REMARK    2  A    between atoms: C5_6  and  C7_8 
REMARK    3  A    between atoms: C7_8  and  C8_9 
REMARK    4  A    between atoms: C8_9  and  C9_10 
ROOT
HETATM    1  C9  UNL     1      24.909   2.167  51.576  1.00  0.00     0.048 A 
HETATM    2  N2  UNL     1      24.851   2.895  50.484  1.00  0.00    -0.246 NA
HETATM    3  C10 UNL     1      23.866   3.009  49.600  1.00  0.00     0.234 A 
HETATM    4  N3  UNL     1      22.757   2.286  49.830  1.00  0.00    -0.241 NA
HETATM    5  C11 UNL     1      22.670   1.480  50.927  1.00  0.00     0.070 A 
HETATM    6  C12 UNL     1      21.484   0.793  51.042  1.00  0.00     0.033 A 
HETATM    7  C13 UNL     1      21.359  -0.034  52.136  1.00  0.00     0.009 A 
HETATM    8  C14 UNL     1      22.389  -0.143  53.045  1.00  0.00    -0.061 A 
HETATM    9  C15 UNL     1      22.228  -1.050  54.225  1.00  0.00     0.048 C 
HETATM   10  C16 UNL     1      23.530   0.578  52.848  1.00  0.00     0.022 A 
HETATM   11  C17 UNL     1      23.747   1.428  51.789  1.00  0.00     0.018 A 
ENDROOT
BRANCH   1  12
HETATM   12  C8  UNL     1      25.898   1.950  52.617  1.00  0.00     0.061 C 
BRANCH  12  13
HETATM   13  C7  UNL     1      27.055   1.087  52.350  1.00  0.00     0.022 C 
BRANCH  13  14
HETATM   14  C5  UNL     1      27.349  -0.067  53.249  1.00  0.00     0.013 A 
HETATM   15  C2  UNL     1      28.631  -0.187  53.864  1.00  0.00    -0.075 A 
HETATM   16  C1  UNL     1      29.981  -0.519  53.321  1.00  0.00     0.044 C 
HETATM   17  C3  UNL     1      28.218   0.089  55.043  1.00  0.00     0.012 A 
HETATM   18  C4  UNL     1      26.839   0.262  54.628  1.00  0.00     0.253 A 
HETATM   19  C6  UNL     1      26.720  -1.407  52.838  1.00  0.00     0.022 C 
BRANCH  18  20
HETATM   20  N1  UNL     1      25.892  -0.687  55.186  1.00  0.00     0.087 N 
HETATM   21  H6  UNL     1      26.304  -1.623  55.338  1.00  0.00     0.313 HD
HETATM   22  H7  UNL     1      24.965  -0.688  54.710  1.00  0.00     0.313 HD
ENDBRANCH  18  20
ENDBRANCH  13  14
ENDBRANCH  12  13
ENDBRANCH   1  12
TORSDOF 4
ENDMDL
MODEL 2
REMARK VINA RESULT:      -7.8      2.215      4.244
REMARK  4 active torsions:
REMARK  status: ('A' for Active; 'I' for Inactive)
REMARK    1  A    between atoms: C4_4  and  N1_5 
REMARK    2  A    between atoms: C5_6  and  C7_8 
REMARK    3  A    between atoms: C7_8  and  C8_9 
REMARK    4  A    between atoms: C8_9  and  C9_10 
ROOT
HETATM    1  C9  UNL     1      25.488   2.293  51.422  1.00  0.00     0.048 A 
HETATM    2  N2  UNL     1      24.270   2.109  51.876  1.00  0.00    -0.246 NA
HETATM    3  C10 UNL     1      23.161   2.792  51.611  1.00  0.00     0.234 A 
HETATM    4  N3  UNL     1      23.273   3.825  50.760  1.00  0.00    -0.241 NA
HETATM    5  C11 UNL     1      24.479   4.139  50.205  1.00  0.00     0.070 A 
HETATM    6  C12 UNL     1      24.456   5.219  49.355  1.00  0.00     0.033 A 
HETATM    7  C13 UNL     1      25.657   5.570  48.777  1.00  0.00     0.009 A 
HETATM    8  C14 UNL     1      26.799   4.852  49.061  1.00  0.00    -0.061 A 
HETATM    9  C15 UNL     1      28.091   5.255  48.421  1.00  0.00     0.048 C 
HETATM   10  C16 UNL     1      26.725   3.795  49.919  1.00  0.00     0.022 A 
HETATM   11  C17 UNL     1      25.575   3.369  50.542  1.00  0.00     0.018 A 
ENDROOT
BRANCH   1  12
HETATM   12  C8  UNL     1      26.769   1.637  51.618  1.00  0.00     0.061 C 
BRANCH  12  13
HETATM   13  C7  UNL     1      26.807   0.239  52.066  1.00  0.00     0.022 C 
BRANCH  13  14
HETATM   14  C5  UNL     1      27.586  -0.134  53.281  1.00  0.00     0.013 A 
HETATM   15  C2  UNL     1      28.583  -1.153  53.208  1.00  0.00    -0.075 A 
HETATM   16  C1  UNL     1      28.498  -2.635  53.048  1.00  0.00     0.044 C 
HETATM   17  C3  UNL     1      29.573  -0.353  53.329  1.00  0.00     0.012 A 
HETATM   18  C4  UNL     1      28.737   0.828  53.424  1.00  0.00     0.253 A 
HETATM   19  C6  UNL     1      26.806  -0.111  54.605  1.00  0.00     0.022 C 
BRANCH  18  20
HETATM   20  N1  UNL     1      28.800   1.542  54.687  1.00  0.00     0.087 N 
HETATM   21  H6  UNL     1      29.766   1.784  54.964  1.00  0.00     0.313 HD
HETATM   22  H7  UNL     1      28.220   1.118  55.442  1.00  0.00     0.313 HD
ENDBRANCH  18  20
ENDBRANCH  13  14
ENDBRANCH  12  13
ENDBRANCH   1  12
TORSDOF 4
ENDMDL
MODEL 3
REMARK VINA RESULT:      -7.6      2.171      5.470
REMARK  4 active torsions:
REMARK  status: ('A' for Active; 'I' for Inactive)
REMARK    1  A    between atoms: C4_4  and  N1_5 
REMARK    2  A    between atoms: C5_6  and  C7_8 
REMARK    3  A    between atoms: C7_8  and  C8_9 
REMARK    4  A    between atoms: C8_9  and  C9_10 
ROOT
HETATM    1  C9  UNL     1      27.041   2.046  52.042  1.00  0.00     0.048 A 
HETATM    2  N2  UNL     1      28.190   2.435  52.546  1.00  0.00    -0.246 NA
HETATM    3  C10 UNL     1      28.747   2.125  53.711  1.00  0.00     0.234 A 
HETATM    4  N3  UNL     1      28.057   1.295  54.511  1.00  0.00    -0.241 NA
HETATM    5  C11 UNL     1      26.844   0.806  54.124  1.00  0.00     0.070 A 
HETATM    6  C12 UNL     1      26.243  -0.029  55.035  1.00  0.00     0.033 A 
HETATM    7  C13 UNL     1      25.014  -0.540  54.681  1.00  0.00     0.009 A 
HETATM    8  C14 UNL     1      24.449  -0.209  53.468  1.00  0.00    -0.061 A 
HETATM    9  C15 UNL     1      23.111  -0.777  53.108  1.00  0.00     0.048 C 
HETATM   10  C16 UNL     1      25.120   0.629  52.627  1.00  0.00     0.022 A 
HETATM   11  C17 UNL     1      26.348   1.187  52.892  1.00  0.00     0.018 A 
ENDROOT
BRANCH   1  12
HETATM   12  C8  UNL     1      26.322   2.298  50.806  1.00  0.00     0.061 C 
BRANCH  12  13
HETATM   13  C7  UNL     1      26.128   3.679  50.348  1.00  0.00     0.022 C 
BRANCH  13  14
HETATM   14  C5  UNL     1      24.759   4.270  50.319  1.00  0.00     0.013 A 
HETATM   15  C2  UNL     1      23.631   3.452  50.012  1.00  0.00    -0.075 A 
HETATM   16  C1  UNL     1      23.167   2.811  48.746  1.00  0.00     0.044 C 
HETATM   17  C3  UNL     1      23.157   3.460  51.200  1.00  0.00     0.012 A 
HETATM   18  C4  UNL     1      24.220   4.294  51.726  1.00  0.00     0.253 A 
HETATM   19  C6  UNL     1      24.665   5.703  49.772  1.00  0.00     0.022 C 
BRANCH  18  20
HETATM   20  N1  UNL     1      23.812   5.599  52.216  1.00  0.00     0.087 N 
HETATM   21  H6  UNL     1      23.651   5.611  53.237  1.00  0.00     0.313 HD
HETATM   22  H7  UNL     1      23.062   6.047  51.647  1.00  0.00     0.313 HD
ENDBRANCH  18  20
ENDBRANCH  13  14
ENDBRANCH  12  13
ENDBRANCH   1  12
TORSDOF 4
ENDMDL
MODEL 4
REMARK VINA RESULT:      -7.6      2.113      3.441
REMARK  4 active torsions:
REMARK  status: ('A' for Active; 'I' for Inactive)
REMARK    1  A    between atoms: C4_4  and  N1_5 
REMARK    2  A    between atoms: C5_6  and  C7_8 
REMARK    3  A    between atoms: C7_8  and  C8_9 
REMARK    4  A    between atoms: C8_9  and  C9_10 
ROOT
HETATM    1  C9  UNL     1      23.444  -0.278  53.284  1.00  0.00     0.048 A 
HETATM    2  N2  UNL     1      23.218  -0.822  54.459  1.00  0.00    -0.246 NA
HETATM    3  C10 UNL     1      22.063  -1.149  55.026  1.00  0.00     0.234 A 
HETATM    4  N3  UNL     1      20.947  -0.899  54.320  1.00  0.00    -0.241 NA
HETATM    5  C11 UNL     1      21.022  -0.335  53.081  1.00  0.00     0.070 A 
HETATM    6  C12 UNL     1      19.809  -0.130  52.468  1.00  0.00     0.033 A 
HETATM    7  C13 UNL     1      19.843   0.441  51.215  1.00  0.00     0.009 A 
HETATM    8  C14 UNL     1      21.050   0.776  50.639  1.00  0.00    -0.061 A 
HETATM    9  C15 UNL     1      21.059   1.397  49.277  1.00  0.00     0.048 C 
HETATM   10  C16 UNL     1      22.204   0.535  51.323  1.00  0.00     0.022 A 
HETATM   11  C17 UNL     1      22.271  -0.030  52.575  1.00  0.00     0.018 A 
ENDROOT
BRANCH   1  12
HETATM   12  C8  UNL     1      24.629   0.124  52.547  1.00  0.00     0.061 C 
BRANCH  12  13
HETATM   13  C7  UNL     1      25.908  -0.548  52.808  1.00  0.00     0.022 C 
BRANCH  13  14
HETATM   14  C5  UNL     1      26.937   0.112  53.661  1.00  0.00     0.013 A 
HETATM   15  C2  UNL     1      28.325  -0.068  53.380  1.00  0.00    -0.075 A 
HETATM   16  C1  UNL     1      29.237  -1.240  53.527  1.00  0.00     0.044 C 
HETATM   17  C3  UNL     1      28.512   1.125  52.958  1.00  0.00     0.012 A 
HETATM   18  C4  UNL     1      27.133   1.523  53.168  1.00  0.00     0.253 A 
HETATM   19  C6  UNL     1      26.605   0.196  55.159  1.00  0.00     0.022 C 
BRANCH  18  20
HETATM   20  N1  UNL     1      26.924   2.565  54.157  1.00  0.00     0.087 N 
HETATM   21  H6  UNL     1      27.766   2.751  54.728  1.00  0.00     0.313 HD
HETATM   22  H7  UNL     1      26.040   2.461  54.699  1.00  0.00     0.313 HD
ENDBRANCH  18  20
ENDBRANCH  13  14
ENDBRANCH  12  13
ENDBRANCH   1  12
TORSDOF 4
ENDMDL
MODEL 5
REMARK VINA RESULT:      -7.5      1.985      5.449
REMARK  4 active torsions:
REMARK  status: ('A' for Active; 'I' for Inactive)
REMARK    1  A    between atoms: C4_4  and  N1_5 
REMARK    2  A    between atoms: C5_6  and  C7_8 
REMARK    3  A    between atoms: C7_8  and  C8_9 
REMARK    4  A    between atoms: C8_9  and  C9_10 
ROOT
HETATM    1  C9  UNL     1      25.274   0.881  52.672  1.00  0.00     0.048 A 
HETATM    2  N2  UNL     1      26.561   0.884  52.940  1.00  0.00    -0.246 NA
HETATM    3  C10 UNL     1      27.217   0.273  53.920  1.00  0.00     0.234 A 
HETATM    4  N3  UNL     1      26.486  -0.459  54.777  1.00  0.00    -0.241 NA
HETATM    5  C11 UNL     1      25.134  -0.557  54.627  1.00  0.00     0.070 A 
HETATM    6  C12 UNL     1      24.506  -1.334  55.572  1.00  0.00     0.033 A 
HETATM    7  C13 UNL     1      23.139  -1.455  55.455  1.00  0.00     0.009 A 
HETATM    8  C14 UNL     1      22.471  -0.815  54.433  1.00  0.00    -0.061 A 
HETATM    9  C15 UNL     1      20.984  -0.962  54.331  1.00  0.00     0.048 C 
HETATM   10  C16 UNL     1      23.178  -0.065  53.542  1.00  0.00     0.022 A 
HETATM   11  C17 UNL     1      24.542   0.114  53.576  1.00  0.00     0.018 A 
ENDROOT
BRANCH   1  12
HETATM   12  C8  UNL     1      24.434   1.487  51.655  1.00  0.00     0.061 C 
BRANCH  12  13
HETATM   13  C7  UNL     1      24.416   2.947  51.505  1.00  0.00     0.022 C 
BRANCH  13  14
HETATM   14  C5  UNL     1      24.801   3.569  50.205  1.00  0.00     0.013 A 
HETATM   15  C2  UNL     1      23.817   3.784  49.194  1.00  0.00    -0.075 A 
HETATM   16  C1  UNL     1      23.070   2.850  48.301  1.00  0.00     0.044 C 
HETATM   17  C3  UNL     1      23.800   5.057  49.321  1.00  0.00     0.012 A 
HETATM   18  C4  UNL     1      24.798   5.066  50.373  1.00  0.00     0.253 A 
HETATM   19  C6  UNL     1      26.184   3.175  49.664  1.00  0.00     0.022 C 
BRANCH  18  20
HETATM   20  N1  UNL     1      26.046   5.734  50.049  1.00  0.00     0.087 N 
HETATM   21  H6  UNL     1      26.857   5.093  50.058  1.00  0.00     0.313 HD
HETATM   22  H7  UNL     1      26.189   6.632  50.559  1.00  0.00     0.313 HD
ENDBRANCH  18  20
ENDBRANCH  13  14
ENDBRANCH  12  13
ENDBRANCH   1  12
TORSDOF 4
ENDMDL
MODEL 6
REMARK VINA RESULT:      -7.2      2.632      4.753
REMARK  4 active torsions:
REMARK  status: ('A' for Active; 'I' for Inactive)
REMARK    1  A    between atoms: C4_4  and  N1_5 
REMARK    2  A    between atoms: C5_6  and  C7_8 
REMARK    3  A    between atoms: C7_8  and  C8_9 
REMARK    4  A    between atoms: C8_9  and  C9_10 
ROOT
HETATM    1  C9  UNL     1      21.543   0.752  51.393  1.00  0.00     0.048 A 
HETATM    2  N2  UNL     1      20.239   0.716  51.235  1.00  0.00    -0.246 NA
HETATM    3  C10 UNL     1      19.311   0.176  52.017  1.00  0.00     0.234 A 
HETATM    4  N3  UNL     1      19.739  -0.429  53.137  1.00  0.00    -0.241 NA
HETATM    5  C11 UNL     1      21.069  -0.474  53.437  1.00  0.00     0.070 A 
HETATM    6  C12 UNL     1      21.372  -1.124  54.610  1.00  0.00     0.033 A 
HETATM    7  C13 UNL     1      22.706  -1.193  54.946  1.00  0.00     0.009 A 
HETATM    8  C14 UNL     1      23.657  -0.627  54.125  1.00  0.00    -0.061 A 
HETATM    9  C15 UNL     1      25.101  -0.717  54.512  1.00  0.00     0.048 C 
HETATM   10  C16 UNL     1      23.262  -0.002  52.980  1.00  0.00     0.022 A 
HETATM   11  C17 UNL     1      21.957   0.118  52.561  1.00  0.00     0.018 A 
ENDROOT
BRANCH   1  12
HETATM   12  C8  UNL     1      22.656   1.299  50.637  1.00  0.00     0.061 C 
BRANCH  12  13
HETATM   13  C7  UNL     1      22.872   2.751  50.613  1.00  0.00     0.022 C 
BRANCH  13  14
HETATM   14  C5  UNL     1      24.048   3.342  51.315  1.00  0.00     0.013 A 
HETATM   15  C2  UNL     1      25.363   2.858  51.042  1.00  0.00    -0.075 A 
HETATM   16  C1  UNL     1      26.053   1.578  51.378  1.00  0.00     0.044 C 
HETATM   17  C3  UNL     1      25.741   3.904  50.411  1.00  0.00     0.012 A 
HETATM   18  C4  UNL     1      24.471   4.584  50.574  1.00  0.00     0.253 A 
HETATM   19  C6  UNL     1      23.816   3.742  52.779  1.00  0.00     0.022 C 
BRANCH  18  20
HETATM   20  N1  UNL     1      24.507   5.801  51.365  1.00  0.00     0.087 N 
HETATM   21  H6  UNL     1      23.616   6.324  51.338  1.00  0.00     0.313 HD
HETATM   22  H7  UNL     1      25.361   6.379  51.212  1.00  0.00     0.313 HD
ENDBRANCH  18  20
ENDBRANCH  13  14
ENDBRANCH  12  13
ENDBRANCH   1  12
TORSDOF 4
ENDMDL
MODEL 7
REMARK VINA RESULT:      -7.0      2.437      4.318
REMARK  4 active torsions:
REMARK  status: ('A' for Active; 'I' for Inactive)
REMARK    1  A    between atoms: C4_4  and  N1_5 
REMARK    2  A    between atoms: C5_6  and  C7_8 
REMARK    3  A    between atoms: C7_8  and  C8_9 
REMARK    4  A    between atoms: C8_9  and  C9_10 
ROOT
HETATM    1  C9  UNL     1      23.800   3.305  51.672  1.00  0.00     0.048 A 
HETATM    2  N2  UNL     1      22.674   3.756  52.177  1.00  0.00    -0.246 NA
HETATM    3  C10 UNL     1      22.086   4.934  52.004  1.00  0.00     0.234 A 
HETATM    4  N3  UNL     1      22.711   5.813  51.202  1.00  0.00    -0.241 NA
HETATM    5  C11 UNL     1      23.893   5.487  50.604  1.00  0.00     0.070 A 
HETATM    6  C12 UNL     1      24.428   6.476  49.812  1.00  0.00     0.033 A 
HETATM    7  C13 UNL     1      25.624   6.185  49.193  1.00  0.00     0.009 A 
HETATM    8  C14 UNL     1      26.222   4.959  49.383  1.00  0.00    -0.061 A 
HETATM    9  C15 UNL     1      27.522   4.669  48.699  1.00  0.00     0.048 C 
HETATM   10  C16 UNL     1      25.617   4.039  50.187  1.00  0.00     0.022 A 
HETATM   11  C17 UNL     1      24.426   4.236  50.845  1.00  0.00     0.018 A 
ENDROOT
BRANCH   1  12
HETATM   12  C8  UNL     1      24.548   2.064  51.769  1.00  0.00     0.061 C 
BRANCH  12  13
HETATM   13  C7  UNL     1      25.136   1.671  53.055  1.00  0.00     0.022 C 
BRANCH  13  14
HETATM   14  C5  UNL     1      26.382   0.852  53.087  1.00  0.00     0.013 A 
HETATM   15  C2  UNL     1      27.527   1.314  53.803  1.00  0.00    -0.075 A 
HETATM   16  C1  UNL     1      28.495   2.421  53.545  1.00  0.00     0.044 C 
HETATM   17  C3  UNL     1      27.432   0.450  54.741  1.00  0.00     0.012 A 
HETATM   18  C4  UNL     1      26.250  -0.176  54.181  1.00  0.00     0.253 A 
HETATM   19  C6  UNL     1      26.714   0.096  51.791  1.00  0.00     0.022 C 
BRANCH  18  20
HETATM   20  N1  UNL     1      26.409  -1.558  53.762  1.00  0.00     0.087 N 
HETATM   21  H6  UNL     1      27.132  -2.060  54.304  1.00  0.00     0.313 HD
HETATM   22  H7  UNL     1      26.468  -1.681  52.729  1.00  0.00     0.313 HD
ENDBRANCH  18  20
ENDBRANCH  13  14
ENDBRANCH  12  13
ENDBRANCH   1  12
TORSDOF 4
ENDMDL
MODEL 8
REMARK VINA RESULT:      -7.0      3.301      5.529
REMARK  4 active torsions:
REMARK  status: ('A' for Active; 'I' for Inactive)
REMARK    1  A    between atoms: C4_4  and  N1_5 
REMARK    2  A    between atoms: C5_6  and  C7_8 
REMARK    3  A    between atoms: C7_8  and  C8_9 
REMARK    4  A    between atoms: C8_9  and  C9_10 
ROOT
HETATM    1  C9  UNL     1      22.887   0.053  53.165  1.00  0.00     0.048 A 
HETATM    2  N2  UNL     1      23.313  -0.577  54.236  1.00  0.00    -0.246 NA
HETATM    3  C10 UNL     1      22.635  -1.336  55.090  1.00  0.00     0.234 A 
HETATM    4  N3  UNL     1      21.323  -1.498  54.849  1.00  0.00    -0.241 NA
HETATM    5  C11 UNL     1      20.737  -0.903  53.772  1.00  0.00     0.070 A 
HETATM    6  C12 UNL     1      19.390  -1.147  53.642  1.00  0.00     0.033 A 
HETATM    7  C13 UNL     1      18.761  -0.560  52.566  1.00  0.00     0.009 A 
HETATM    8  C14 UNL     1      19.477   0.225  51.689  1.00  0.00    -0.061 A 
HETATM    9  C15 UNL     1      18.769   0.853  50.529  1.00  0.00     0.048 C 
HETATM   10  C16 UNL     1      20.811   0.412  51.898  1.00  0.00     0.022 A 
HETATM   11  C17 UNL     1      21.525  -0.132  52.940  1.00  0.00     0.018 A 
ENDROOT
BRANCH   1  12
HETATM   12  C8  UNL     1      23.503   0.899  52.157  1.00  0.00     0.061 C 
BRANCH  12  13
HETATM   13  C7  UNL     1      23.969   2.242  52.523  1.00  0.00     0.022 C 
BRANCH  13  14
HETATM   14  C5  UNL     1      23.805   3.375  51.567  1.00  0.00     0.013 A 
HETATM   15  C2  UNL     1      22.660   3.436  50.718  1.00  0.00    -0.075 A 
HETATM   16  C1  UNL     1      22.243   2.631  49.531  1.00  0.00     0.044 C 
HETATM   17  C3  UNL     1      22.117   4.419  51.328  1.00  0.00     0.012 A 
HETATM   18  C4  UNL     1      23.184   4.534  52.303  1.00  0.00     0.253 A 
HETATM   19  C6  UNL     1      25.099   3.889  50.917  1.00  0.00     0.022 C 
BRANCH  18  20
HETATM   20  N1  UNL     1      23.939   5.774  52.265  1.00  0.00     0.087 N 
HETATM   21  H6  UNL     1      23.747   6.335  51.418  1.00  0.00     0.313 HD
HETATM   22  H7  UNL     1      24.949   5.661  52.498  1.00  0.00     0.313 HD
ENDBRANCH  18  20
ENDBRANCH  13  14
ENDBRANCH  12  13
ENDBRANCH   1  12
TORSDOF 4
ENDMDL
MODEL 9
REMARK VINA RESULT:      -7.0      2.182      6.396
REMARK  4 active torsions:
REMARK  status: ('A' for Active; 'I' for Inactive)
REMARK    1  A    between atoms: C4_4  and  N1_5 
REMARK    2  A    between atoms: C5_6  and  C7_8 
REMARK    3  A    between atoms: C7_8  and  C8_9 
REMARK    4  A    between atoms: C8_9  and  C9_10 
ROOT
HETATM    1  C9  UNL     1      22.149   0.748  53.151  1.00  0.00     0.048 A 
HETATM    2  N2  UNL     1      21.489   0.008  54.013  1.00  0.00    -0.246 NA
HETATM    3  C10 UNL     1      21.945  -0.911  54.856  1.00  0.00     0.234 A 
HETATM    4  N3  UNL     1      23.269  -1.139  54.847  1.00  0.00    -0.241 NA
HETATM    5  C11 UNL     1      24.087  -0.447  54.003  1.00  0.00     0.070 A 
HETATM    6  C12 UNL     1      25.418  -0.778  54.093  1.00  0.00     0.033 A 
HETATM    7  C13 UNL     1      26.276  -0.102  53.253  1.00  0.00     0.009 A 
HETATM    8  C14 UNL     1      25.788   0.849  52.383  1.00  0.00    -0.061 A 
HETATM    9  C15 UNL     1      26.741   1.568  51.481  1.00  0.00     0.048 C 
HETATM   10  C16 UNL     1      24.450   1.111  52.365  1.00  0.00     0.022 A 
HETATM   11  C17 UNL     1      23.518   0.490  53.163  1.00  0.00     0.018 A 
ENDROOT
BRANCH   1  12
HETATM   12  C8  UNL     1      21.790   1.774  52.188  1.00  0.00     0.061 C 
BRANCH  12  13
HETATM   13  C7  UNL     1      21.399   1.386  50.827  1.00  0.00     0.022 C 
BRANCH  13  14
HETATM   14  C5  UNL     1      21.482   2.377  49.716  1.00  0.00     0.013 A 
HETATM   15  C2  UNL     1      22.710   2.564  49.013  1.00  0.00    -0.075 A 
HETATM   16  C1  UNL     1      24.008   3.188  49.404  1.00  0.00     0.044 C 
HETATM   17  C3  UNL     1      22.308   2.011  47.932  1.00  0.00     0.012 A 
HETATM   18  C4  UNL     1      20.986   1.720  48.453  1.00  0.00     0.253 A 
HETATM   19  C6  UNL     1      20.666   3.664  49.910  1.00  0.00     0.022 C 
BRANCH  18  20
HETATM   20  N1  UNL     1      19.886   2.396  47.789  1.00  0.00     0.087 N 
HETATM   21  H6  UNL     1      20.096   3.385  47.571  1.00  0.00     0.313 HD
HETATM   22  H7  UNL     1      18.958   2.232  48.235  1.00  0.00     0.313 HD
ENDBRANCH  18  20
ENDBRANCH  13  14
ENDBRANCH  12  13
ENDBRANCH   1  12
TORSDOF 4
ENDMDL
