MODEL 1
REMARK VINA RESULT:     -10.4      0.000      0.000
REMARK  0 active torsions:
REMARK  status: ('A' for Active; 'I' for Inactive)
ROOT
HETATM    1  C1  UNL     1      23.735   1.600  51.355  1.00  0.00     0.123 C 
HETATM    2  N1  UNL     1      24.675   1.663  52.269  1.00  0.00    -0.250 NA
HETATM    3  C2  UNL     1      25.870   0.874  52.134  1.00  0.00     0.140 A 
HETATM    4  N2  UNL     1      26.990   0.303  51.935  1.00  0.00    -0.172 NA
HETATM    5  C3  UNL     1      27.400  -0.441  53.113  1.00  0.00     0.238 A 
HETATM    6  N3  UNL     1      26.667  -1.662  52.849  1.00  0.00    -0.341 N 
HETATM    7  C4  UNL     1      25.845  -0.530  52.721  1.00  0.00     0.199 A 
HETATM    8  C5  UNL     1      24.738  -0.621  53.402  1.00  0.00     0.007 C 
HETATM    9  C6  UNL     1      25.460  -0.199  54.660  1.00  0.00     0.051 C 
HETATM   10  C7  UNL     1      26.793   0.037  54.408  1.00  0.00     0.119 C 
HETATM   11  O1  UNL     1      27.880   0.640  55.033  1.00  0.00    -0.324 OA
HETATM   12  C8  UNL     1      29.074   0.009  54.543  1.00  0.00     0.349 C 
HETATM   13  O2  UNL     1      28.726  -0.518  53.301  1.00  0.00    -0.318 OA
HETATM   14  C9  UNL     1      23.441  -0.766  53.965  1.00  0.00    -0.023 A 
HETATM   15  C10 UNL     1      22.673  -1.080  55.006  1.00  0.00     0.012 A 
HETATM   16  C11 UNL     1      21.349  -0.671  54.806  1.00  0.00     0.003 A 
HETATM   17  C12 UNL     1      20.813  -0.019  53.715  1.00  0.00     0.031 A 
HETATM   18  C13 UNL     1      21.529   0.342  52.608  1.00  0.00     0.055 A 
HETATM   19  C14 UNL     1      22.713  -0.148  53.024  1.00  0.00     0.043 A 
HETATM   20  N4  UNL     1      21.391   1.088  51.429  1.00  0.00    -0.256 N 
HETATM   21  N5  UNL     1      20.241   0.787  50.742  1.00  0.00    -0.183 NA
HETATM   22  C15 UNL     1      20.340   1.218  49.496  1.00  0.00     0.143 C 
HETATM   23  P1  UNL     1      21.994   2.048  49.196  1.00  0.00    -0.053 P 
HETATM   24  C16 UNL     1      22.416   2.116  51.002  1.00  0.00     0.181 C 
HETATM   25  H2  UNL     1      27.260  -2.464  52.943  1.00  0.00     0.160 HD
HETATM   26  H11 UNL     1      22.903   1.155  48.542  1.00  0.00     0.065 HD
ENDROOT
TORSDOF 0
ENDMDL
MODEL 2
REMARK VINA RESULT:      -9.7      1.833      3.359
REMARK  0 active torsions:
REMARK  status: ('A' for Active; 'I' for Inactive)
ROOT
HETATM    1  C1  UNL     1      23.107  -0.229  53.026  1.00  0.00     0.123 C 
HETATM    2  N1  UNL     1      24.349  -0.621  52.859  1.00  0.00    -0.250 NA
HETATM    3  C2  UNL     1      25.323  -0.401  53.893  1.00  0.00     0.140 A 
HETATM    4  N2  UNL     1      26.143  -0.350  54.867  1.00  0.00    -0.172 NA
HETATM    5  C3  UNL     1      27.406   0.224  54.440  1.00  0.00     0.238 A 
HETATM    6  N3  UNL     1      27.057   1.621  54.589  1.00  0.00    -0.341 N 
HETATM    7  C4  UNL     1      26.079   0.920  53.864  1.00  0.00     0.199 A 
HETATM    8  C5  UNL     1      25.767   1.495  52.738  1.00  0.00     0.007 C 
HETATM    9  C6  UNL     1      26.979   0.883  52.075  1.00  0.00     0.051 C 
HETATM   10  C7  UNL     1      27.690   0.108  52.963  1.00  0.00     0.119 C 
HETATM   11  O1  UNL     1      28.696  -0.852  52.935  1.00  0.00    -0.324 OA
HETATM   12  C8  UNL     1      29.394  -0.794  54.189  1.00  0.00     0.349 C 
HETATM   13  O2  UNL     1      28.486  -0.239  55.088  1.00  0.00    -0.318 OA
HETATM   14  C9  UNL     1      25.260   2.189  51.606  1.00  0.00    -0.023 A 
HETATM   15  C10 UNL     1      25.483   2.847  50.470  1.00  0.00     0.012 A 
HETATM   16  C11 UNL     1      24.306   3.005  49.730  1.00  0.00     0.003 A 
HETATM   17  C12 UNL     1      23.035   2.572  50.046  1.00  0.00     0.031 A 
HETATM   18  C13 UNL     1      22.718   1.889  51.188  1.00  0.00     0.055 A 
HETATM   19  C14 UNL     1      23.961   1.873  51.707  1.00  0.00     0.043 A 
HETATM   20  N4  UNL     1      21.644   1.202  51.771  1.00  0.00    -0.256 N 
HETATM   21  N5  UNL     1      20.469   1.909  51.717  1.00  0.00    -0.183 NA
HETATM   22  C15 UNL     1      19.607   1.409  52.585  1.00  0.00     0.143 C 
HETATM   23  P1  UNL     1      20.347  -0.042  53.515  1.00  0.00    -0.053 P 
HETATM   24  C16 UNL     1      21.803  -0.178  52.372  1.00  0.00     0.181 C 
HETATM   25  H2  UNL     1      27.760   2.114  55.106  1.00  0.00     0.160 HD
HETATM   26  H11 UNL     1      20.810   0.363  54.808  1.00  0.00     0.065 HD
ENDROOT
TORSDOF 0
ENDMDL
MODEL 3
REMARK VINA RESULT:      -9.1      3.669      6.063
REMARK  0 active torsions:
REMARK  status: ('A' for Active; 'I' for Inactive)
ROOT
HETATM    1  C1  UNL     1      26.792   1.842  51.947  1.00  0.00     0.123 C 
HETATM    2  N1  UNL     1      26.035   2.134  50.915  1.00  0.00    -0.250 NA
HETATM    3  C2  UNL     1      25.569   3.480  50.716  1.00  0.00     0.140 A 
HETATM    4  N2  UNL     1      25.292   4.694  50.453  1.00  0.00    -0.172 NA
HETATM    5  C3  UNL     1      23.877   4.842  50.161  1.00  0.00     0.238 A 
HETATM    6  N3  UNL     1      23.401   4.970  51.522  1.00  0.00    -0.341 N 
HETATM    7  C4  UNL     1      24.254   3.864  51.378  1.00  0.00     0.199 A 
HETATM    8  C5  UNL     1      23.747   2.761  51.850  1.00  0.00     0.007 C 
HETATM    9  C6  UNL     1      22.953   2.566  50.579  1.00  0.00     0.051 C 
HETATM   10  C7  UNL     1      23.192   3.586  49.686  1.00  0.00     0.119 C 
HETATM   11  O1  UNL     1      22.981   3.863  48.339  1.00  0.00    -0.324 OA
HETATM   12  C8  UNL     1      22.891   5.289  48.192  1.00  0.00     0.349 C 
HETATM   13  O2  UNL     1      23.579   5.813  49.285  1.00  0.00    -0.318 OA
HETATM   14  C9  UNL     1      23.314   1.588  52.527  1.00  0.00    -0.023 A 
HETATM   15  C10 UNL     1      22.361   0.692  52.771  1.00  0.00     0.012 A 
HETATM   16  C11 UNL     1      22.870  -0.428  53.438  1.00  0.00     0.003 A 
HETATM   17  C12 UNL     1      24.171  -0.669  53.832  1.00  0.00     0.031 A 
HETATM   18  C13 UNL     1      25.209   0.195  53.621  1.00  0.00     0.055 A 
HETATM   19  C14 UNL     1      24.490   1.151  53.000  1.00  0.00     0.043 A 
HETATM   20  N4  UNL     1      26.605   0.254  53.738  1.00  0.00    -0.256 N 
HETATM   21  N5  UNL     1      27.055  -0.186  54.958  1.00  0.00    -0.183 NA
HETATM   22  C15 UNL     1      28.292   0.232  55.155  1.00  0.00     0.143 C 
HETATM   23  P1  UNL     1      28.906   1.242  53.698  1.00  0.00    -0.053 P 
HETATM   24  C16 UNL     1      27.488   0.742  52.610  1.00  0.00     0.181 C 
HETATM   25  H2  UNL     1      22.792   5.761  51.618  1.00  0.00     0.160 HD
HETATM   26  H11 UNL     1      28.809   2.644  53.971  1.00  0.00     0.065 HD
ENDROOT
TORSDOF 0
ENDMDL
MODEL 4
REMARK VINA RESULT:      -9.0      3.737      6.153
REMARK  0 active torsions:
REMARK  status: ('A' for Active; 'I' for Inactive)
ROOT
HETATM    1  C1  UNL     1      26.040   2.263  51.995  1.00  0.00     0.123 C 
HETATM    2  N1  UNL     1      25.175   2.669  51.095  1.00  0.00    -0.250 NA
HETATM    3  C2  UNL     1      24.614   3.990  51.174  1.00  0.00     0.140 A 
HETATM    4  N2  UNL     1      24.242   5.208  51.152  1.00  0.00    -0.172 NA
HETATM    5  C3  UNL     1      22.800   5.298  51.005  1.00  0.00     0.238 A 
HETATM    6  N3  UNL     1      22.444   5.156  52.401  1.00  0.00    -0.341 N 
HETATM    7  C4  UNL     1      23.344   4.157  51.996  1.00  0.00     0.199 A 
HETATM    8  C5  UNL     1      22.949   2.956  52.305  1.00  0.00     0.007 C 
HETATM    9  C6  UNL     1      22.055   2.921  51.088  1.00  0.00     0.051 C 
HETATM   10  C7  UNL     1      22.150   4.094  50.372  1.00  0.00     0.119 C 
HETATM   11  O1  UNL     1      21.800   4.579  49.117  1.00  0.00    -0.324 OA
HETATM   12  C8  UNL     1      21.613   5.999  49.230  1.00  0.00     0.349 C 
HETATM   13  O2  UNL     1      22.366   6.379  50.340  1.00  0.00    -0.318 OA
HETATM   14  C9  UNL     1      22.651   1.656  52.798  1.00  0.00    -0.023 A 
HETATM   15  C10 UNL     1      21.779   0.662  52.955  1.00  0.00     0.012 A 
HETATM   16  C11 UNL     1      22.412  -0.514  53.372  1.00  0.00     0.003 A 
HETATM   17  C12 UNL     1      23.756  -0.721  53.612  1.00  0.00     0.031 A 
HETATM   18  C13 UNL     1      24.717   0.242  53.474  1.00  0.00     0.055 A 
HETATM   19  C14 UNL     1      23.889   1.233  53.091  1.00  0.00     0.043 A 
HETATM   20  N4  UNL     1      26.112   0.383  53.487  1.00  0.00    -0.256 N 
HETATM   21  N5  UNL     1      26.697  -0.224  54.571  1.00  0.00    -0.183 NA
HETATM   22  C15 UNL     1      27.920   0.246  54.739  1.00  0.00     0.143 C 
HETATM   23  P1  UNL     1      28.337   1.531  53.439  1.00  0.00    -0.053 P 
HETATM   24  C16 UNL     1      26.857   1.121  52.396  1.00  0.00     0.181 C 
HETATM   25  H2  UNL     1      21.801   5.872  52.683  1.00  0.00     0.160 HD
HETATM   26  H11 UNL     1      28.182   2.855  53.961  1.00  0.00     0.065 HD
ENDROOT
TORSDOF 0
ENDMDL
MODEL 5
REMARK VINA RESULT:      -8.7      2.242      3.951
REMARK  0 active torsions:
REMARK  status: ('A' for Active; 'I' for Inactive)
ROOT
HETATM    1  C1  UNL     1      22.774   1.492  52.069  1.00  0.00     0.123 C 
HETATM    2  N1  UNL     1      23.896   0.812  52.057  1.00  0.00    -0.250 NA
HETATM    3  C2  UNL     1      24.753   0.808  53.212  1.00  0.00     0.140 A 
HETATM    4  N2  UNL     1      25.428   0.674  54.283  1.00  0.00    -0.172 NA
HETATM    5  C3  UNL     1      26.836   0.923  54.033  1.00  0.00     0.238 A 
HETATM    6  N3  UNL     1      26.815   2.365  54.160  1.00  0.00    -0.341 N 
HETATM    7  C4  UNL     1      25.800   1.909  53.303  1.00  0.00     0.199 A 
HETATM    8  C5  UNL     1      25.783   2.525  52.156  1.00  0.00     0.007 C 
HETATM    9  C6  UNL     1      26.889   1.632  51.644  1.00  0.00     0.051 C 
HETATM   10  C7  UNL     1      27.272   0.722  52.603  1.00  0.00     0.119 C 
HETATM   11  O1  UNL     1      28.014  -0.451  52.689  1.00  0.00    -0.324 OA
HETATM   12  C8  UNL     1      28.538  -0.544  54.023  1.00  0.00     0.349 C 
HETATM   13  O2  UNL     1      27.680   0.225  54.807  1.00  0.00    -0.318 OA
HETATM   14  C9  UNL     1      25.607   3.304  50.980  1.00  0.00    -0.023 A 
HETATM   15  C10 UNL     1      26.126   3.873  49.894  1.00  0.00     0.012 A 
HETATM   16  C11 UNL     1      25.127   4.298  49.011  1.00  0.00     0.003 A 
HETATM   17  C12 UNL     1      23.759   4.186  49.153  1.00  0.00     0.031 A 
HETATM   18  C13 UNL     1      23.143   3.616  50.232  1.00  0.00     0.055 A 
HETATM   19  C14 UNL     1      24.268   3.310  50.907  1.00  0.00     0.043 A 
HETATM   20  N4  UNL     1      21.870   3.213  50.660  1.00  0.00    -0.256 N 
HETATM   21  N5  UNL     1      20.915   4.181  50.468  1.00  0.00    -0.183 NA
HETATM   22  C15 UNL     1      19.853   3.913  51.209  1.00  0.00     0.143 C 
HETATM   23  P1  UNL     1      20.099   2.342  52.201  1.00  0.00    -0.053 P 
HETATM   24  C16 UNL     1      21.615   1.844  51.253  1.00  0.00     0.181 C 
HETATM   25  H2  UNL     1      27.542   2.683  54.772  1.00  0.00     0.160 HD
HETATM   26  H11 UNL     1      20.474   2.642  53.550  1.00  0.00     0.065 HD
ENDROOT
TORSDOF 0
ENDMDL
MODEL 6
REMARK VINA RESULT:      -8.1      8.839     10.558
REMARK  0 active torsions:
REMARK  status: ('A' for Active; 'I' for Inactive)
ROOT
HETATM    1  C1  UNL     1      28.418   6.207  48.233  1.00  0.00     0.123 C 
HETATM    2  N1  UNL     1      29.506   6.156  47.500  1.00  0.00    -0.250 NA
HETATM    3  C2  UNL     1      30.636   5.381  47.935  1.00  0.00     0.140 A 
HETATM    4  N2  UNL     1      31.571   4.571  48.238  1.00  0.00    -0.172 NA
HETATM    5  C3  UNL     1      32.861   5.235  48.176  1.00  0.00     0.238 A 
HETATM    6  N3  UNL     1      32.857   5.814  49.503  1.00  0.00    -0.341 N 
HETATM    7  C4  UNL     1      31.657   6.079  48.822  1.00  0.00     0.199 A 
HETATM    8  C5  UNL     1      31.332   7.340  48.830  1.00  0.00     0.007 C 
HETATM    9  C6  UNL     1      32.274   7.605  47.679  1.00  0.00     0.051 C 
HETATM   10  C7  UNL     1      32.907   6.449  47.283  1.00  0.00     0.119 C 
HETATM   11  O1  UNL     1      33.659   5.989  46.207  1.00  0.00    -0.324 OA
HETATM   12  C8  UNL     1      34.517   4.941  46.686  1.00  0.00     0.349 C 
HETATM   13  O2  UNL     1      33.887   4.445  47.825  1.00  0.00    -0.318 OA
HETATM   14  C9  UNL     1      30.843   8.666  48.986  1.00  0.00    -0.023 A 
HETATM   15  C10 UNL     1      31.052   9.979  48.919  1.00  0.00     0.012 A 
HETATM   16  C11 UNL     1      29.850  10.693  48.998  1.00  0.00     0.003 A 
HETATM   17  C12 UNL     1      28.569  10.196  49.124  1.00  0.00     0.031 A 
HETATM   18  C13 UNL     1      28.266   8.865  49.198  1.00  0.00     0.055 A 
HETATM   19  C14 UNL     1      29.533   8.414  49.114  1.00  0.00     0.043 A 
HETATM   20  N4  UNL     1      27.156   8.010  49.193  1.00  0.00    -0.256 N 
HETATM   21  N5  UNL     1      26.172   8.411  50.063  1.00  0.00    -0.183 NA
HETATM   22  C15 UNL     1      25.346   7.406  50.297  1.00  0.00     0.143 C 
HETATM   23  P1  UNL     1      25.863   5.871  49.352  1.00  0.00    -0.053 P 
HETATM   24  C16 UNL     1      27.082   6.792  48.298  1.00  0.00     0.181 C 
HETATM   25  H2  UNL     1      33.716   5.622  49.982  1.00  0.00     0.160 HD
HETATM   26  H11 UNL     1      26.576   4.964  50.200  1.00  0.00     0.065 HD
ENDROOT
TORSDOF 0
ENDMDL
MODEL 7
REMARK VINA RESULT:      -8.0      9.144     10.560
REMARK  0 active torsions:
REMARK  status: ('A' for Active; 'I' for Inactive)
ROOT
HETATM    1  C1  UNL     1      29.626   9.458  48.776  1.00  0.00     0.123 C 
HETATM    2  N1  UNL     1      30.601   8.644  49.107  1.00  0.00    -0.250 NA
HETATM    3  C2  UNL     1      31.641   8.338  48.161  1.00  0.00     0.140 A 
HETATM    4  N2  UNL     1      32.641   8.195  47.386  1.00  0.00    -0.172 NA
HETATM    5  C3  UNL     1      32.970   6.788  47.234  1.00  0.00     0.238 A 
HETATM    6  N3  UNL     1      32.033   6.473  46.176  1.00  0.00    -0.341 N 
HETATM    7  C4  UNL     1      31.407   7.157  47.230  1.00  0.00     0.199 A 
HETATM    8  C5  UNL     1      30.330   6.562  47.659  1.00  0.00     0.007 C 
HETATM    9  C6  UNL     1      31.165   5.626  48.500  1.00  0.00     0.051 C 
HETATM   10  C7  UNL     1      32.507   5.902  48.363  1.00  0.00     0.119 C 
HETATM   11  O1  UNL     1      33.705   5.593  48.999  1.00  0.00    -0.324 OA
HETATM   12  C8  UNL     1      34.755   5.674  48.022  1.00  0.00     0.349 C 
HETATM   13  O2  UNL     1      34.271   6.531  47.035  1.00  0.00    -0.318 OA
HETATM   14  C9  UNL     1      29.052   6.053  48.017  1.00  0.00    -0.023 A 
HETATM   15  C10 UNL     1      28.287   5.022  48.367  1.00  0.00     0.012 A 
HETATM   16  C11 UNL     1      27.043   5.448  48.848  1.00  0.00     0.003 A 
HETATM   17  C12 UNL     1      26.577   6.739  48.983  1.00  0.00     0.031 A 
HETATM   18  C13 UNL     1      27.296   7.854  48.650  1.00  0.00     0.055 A 
HETATM   19  C14 UNL     1      28.398   7.204  48.226  1.00  0.00     0.043 A 
HETATM   20  N4  UNL     1      27.234   9.250  48.759  1.00  0.00    -0.256 N 
HETATM   21  N5  UNL     1      26.022   9.760  48.365  1.00  0.00    -0.183 NA
HETATM   22  C15 UNL     1      26.139  11.055  48.130  1.00  0.00     0.143 C 
HETATM   23  P1  UNL     1      27.894  11.643  48.429  1.00  0.00    -0.053 P 
HETATM   24  C16 UNL     1      28.397  10.069  49.275  1.00  0.00     0.181 C 
HETATM   25  H2  UNL     1      32.487   5.984  45.428  1.00  0.00     0.160 HD
HETATM   26  H11 UNL     1      28.612  11.756  47.196  1.00  0.00     0.065 HD
ENDROOT
TORSDOF 0
ENDMDL
MODEL 8
REMARK VINA RESULT:      -8.0      8.577     10.096
REMARK  0 active torsions:
REMARK  status: ('A' for Active; 'I' for Inactive)
ROOT
HETATM    1  C1  UNL     1      25.538   8.528  50.030  1.00  0.00     0.123 C 
HETATM    2  N1  UNL     1      26.731   9.029  50.248  1.00  0.00    -0.250 NA
HETATM    3  C2  UNL     1      27.238  10.084  49.412  1.00  0.00     0.140 A 
HETATM    4  N2  UNL     1      27.619  11.120  48.778  1.00  0.00    -0.172 NA
HETATM    5  C3  UNL     1      28.971  10.943  48.277  1.00  0.00     0.238 A 
HETATM    6  N3  UNL     1      28.645  10.244  47.052  1.00  0.00    -0.341 N 
HETATM    7  C4  UNL     1      27.996   9.672  48.158  1.00  0.00     0.199 A 
HETATM    8  C5  UNL     1      28.166   8.383  48.241  1.00  0.00     0.007 C 
HETATM    9  C6  UNL     1      29.516   8.589  48.888  1.00  0.00     0.051 C 
HETATM   10  C7  UNL     1      29.798   9.929  49.027  1.00  0.00     0.119 C 
HETATM   11  O1  UNL     1      30.699  10.738  49.711  1.00  0.00    -0.324 OA
HETATM   12  C8  UNL     1      30.861  11.950  48.957  1.00  0.00     0.349 C 
HETATM   13  O2  UNL     1      29.697  12.068  48.200  1.00  0.00    -0.318 OA
HETATM   14  C9  UNL     1      28.162   6.962  48.254  1.00  0.00    -0.023 A 
HETATM   15  C10 UNL     1      28.832   5.813  48.182  1.00  0.00     0.012 A 
HETATM   16  C11 UNL     1      28.038   4.732  48.582  1.00  0.00     0.003 A 
HETATM   17  C12 UNL     1      26.728   4.749  49.015  1.00  0.00     0.031 A 
HETATM   18  C13 UNL     1      25.969   5.881  49.121  1.00  0.00     0.055 A 
HETATM   19  C14 UNL     1      26.914   6.740  48.689  1.00  0.00     0.043 A 
HETATM   20  N4  UNL     1      24.728   6.306  49.616  1.00  0.00    -0.256 N 
HETATM   21  N5  UNL     1      23.692   5.498  49.217  1.00  0.00    -0.183 NA
HETATM   22  C15 UNL     1      22.544   6.131  49.382  1.00  0.00     0.143 C 
HETATM   23  P1  UNL     1      22.812   7.849  50.082  1.00  0.00    -0.053 P 
HETATM   24  C16 UNL     1      24.590   7.524  50.504  1.00  0.00     0.181 C 
HETATM   25  H2  UNL     1      29.111  10.658  46.267  1.00  0.00     0.160 HD
HETATM   26  H11 UNL     1      22.754   8.838  49.048  1.00  0.00     0.065 HD
ENDROOT
TORSDOF 0
ENDMDL
MODEL 9
REMARK VINA RESULT:      -7.9      3.753      6.768
REMARK  0 active torsions:
REMARK  status: ('A' for Active; 'I' for Inactive)
ROOT
HETATM    1  C1  UNL     1      24.376   1.571  53.215  1.00  0.00     0.123 C 
HETATM    2  N1  UNL     1      23.147   1.994  53.031  1.00  0.00    -0.250 NA
HETATM    3  C2  UNL     1      22.134   1.090  52.558  1.00  0.00     0.140 A 
HETATM    4  N2  UNL     1      21.207   0.258  52.296  1.00  0.00    -0.172 NA
HETATM    5  C3  UNL     1      20.386   0.738  51.199  1.00  0.00     0.238 A 
HETATM    6  N3  UNL     1      21.204   0.257  50.105  1.00  0.00    -0.341 N 
HETATM    7  C4  UNL     1      21.970   0.959  51.051  1.00  0.00     0.199 A 
HETATM    8  C5  UNL     1      22.714   1.886  50.520  1.00  0.00     0.007 C 
HETATM    9  C6  UNL     1      21.535   2.830  50.482  1.00  0.00     0.051 C 
HETATM   10  C7  UNL     1      20.407   2.232  50.997  1.00  0.00     0.119 C 
HETATM   11  O1  UNL     1      19.141   2.603  51.439  1.00  0.00    -0.324 OA
HETATM   12  C8  UNL     1      18.265   1.479  51.256  1.00  0.00     0.349 C 
HETATM   13  O2  UNL     1      19.099   0.363  51.249  1.00  0.00    -0.318 OA
HETATM   14  C9  UNL     1      23.681   2.766  49.962  1.00  0.00    -0.023 A 
HETATM   15  C10 UNL     1      23.979   3.763  49.132  1.00  0.00     0.012 A 
HETATM   16  C11 UNL     1      25.257   4.275  49.385  1.00  0.00     0.003 A 
HETATM   17  C12 UNL     1      26.163   3.872  50.345  1.00  0.00     0.031 A 
HETATM   18  C13 UNL     1      25.938   2.860  51.236  1.00  0.00     0.055 A 
HETATM   19  C14 UNL     1      24.704   2.543  50.799  1.00  0.00     0.043 A 
HETATM   20  N4  UNL     1      26.511   2.280  52.376  1.00  0.00    -0.256 N 
HETATM   21  N5  UNL     1      27.850   2.015  52.222  1.00  0.00    -0.183 NA
HETATM   22  C15 UNL     1      28.243   1.152  53.141  1.00  0.00     0.143 C 
HETATM   23  P1  UNL     1      26.820   0.656  54.257  1.00  0.00    -0.053 P 
HETATM   24  C16 UNL     1      25.709   2.003  53.629  1.00  0.00     0.181 C 
HETATM   25  H2  UNL     1      20.650  -0.242  49.435  1.00  0.00     0.160 HD
HETATM   26  H11 UNL     1      26.280  -0.611  53.865  1.00  0.00     0.065 HD
ENDROOT
TORSDOF 0
ENDMDL
