MODEL 1
REMARK VINA RESULT:      -9.0      0.000      0.000
REMARK  1 active torsions:
REMARK  status: ('A' for Active; 'I' for Inactive)
REMARK    1  A    between atoms: O1_2  and  C2_3 
ROOT
HETATM    1  C2  UNL     1      23.187   0.841  53.091  1.00  0.00     0.103 A 
HETATM    2  C3  UNL     1      24.420   1.066  53.573  1.00  0.00     0.073 A 
HETATM    3  C4  UNL     1      25.475   1.723  52.764  1.00  0.00     0.083 A 
HETATM    4  N1  UNL     1      26.488   1.780  53.496  1.00  0.00    -0.173 NA
HETATM    5  C5  UNL     1      27.753   2.254  53.353  1.00  0.00     0.206 C 
HETATM    6  N2  UNL     1      28.824   2.658  53.230  1.00  0.00    -0.170 NA
HETATM    7  C6  UNL     1      25.100   2.112  51.410  1.00  0.00     0.012 A 
HETATM    8  C7  UNL     1      26.068   2.659  50.747  1.00  0.00     0.101 C 
HETATM    9  N3  UNL     1      26.271   3.205  49.459  1.00  0.00    -0.373 N 
HETATM   10  C8  UNL     1      27.149   4.194  49.012  1.00  0.00     0.111 C 
HETATM   11  C9  UNL     1      27.489   5.394  48.620  1.00  0.00     0.049 C 
HETATM   12 CL1  UNL     1      29.233   5.480  48.249  1.00  0.00    -0.083 Cl
HETATM   13  C10 UNL     1      26.726   6.598  48.380  1.00  0.00     0.021 C 
HETATM   14  C11 UNL     1      25.466   6.997  48.438  1.00  0.00    -0.023 C 
HETATM   15  C12 UNL     1      24.169   6.372  48.795  1.00  0.00     0.053 C 
HETATM   16  C13 UNL     1      23.260   6.469  47.594  1.00  0.00     0.171 C 
HETATM   17  O2  UNL     1      22.045   5.898  47.828  1.00  0.00    -0.389 OA
HETATM   18  C14 UNL     1      21.305   6.448  48.847  1.00  0.00     0.197 C 
HETATM   19  C15 UNL     1      19.998   5.639  48.967  1.00  0.00     0.295 C 
HETATM   20  N4  UNL     1      20.396   4.296  49.234  1.00  0.00     0.085 N 
HETATM   21  C16 UNL     1      19.282   3.443  49.488  1.00  0.00     0.272 C 
HETATM   22  C17 UNL     1      19.887   2.048  49.705  1.00  0.00     0.056 C 
HETATM   23  C18 UNL     1      20.911   2.234  50.821  1.00  0.00     0.177 C 
HETATM   24  O3  UNL     1      21.609   1.057  51.132  1.00  0.00    -0.348 OA
HETATM   25  C19 UNL     1      22.861   1.247  51.734  1.00  0.00     0.103 A 
HETATM   26  C20 UNL     1      23.746   1.839  50.949  1.00  0.00     0.054 A 
HETATM   27  H6  UNL     1      25.570   2.645  48.939  1.00  0.00     0.164 HD
HETATM   28  H18 UNL     1      21.013   3.886  48.530  1.00  0.00     0.315 HD
ENDROOT
BRANCH   1  29
HETATM   29  O1  UNL     1      22.127   0.240  53.745  1.00  0.00    -0.353 OA
HETATM   30  C1  UNL     1      22.203  -0.844  54.621  1.00  0.00     0.210 C 
ENDBRANCH   1  29
TORSDOF 1
ENDMDL
MODEL 2
REMARK VINA RESULT:      -8.4      2.831      6.259
REMARK  1 active torsions:
REMARK  status: ('A' for Active; 'I' for Inactive)
REMARK    1  A    between atoms: O1_2  and  C2_3 
ROOT
HETATM    1  C2  UNL     1      19.098   0.384  51.217  1.00  0.00     0.103 A 
HETATM    2  C3  UNL     1      18.943   0.981  50.024  1.00  0.00     0.073 A 
HETATM    3  C4  UNL     1      19.823   2.087  49.575  1.00  0.00     0.083 A 
HETATM    4  N1  UNL     1      19.417   2.415  48.439  1.00  0.00    -0.173 NA
HETATM    5  C5  UNL     1      19.786   3.338  47.514  1.00  0.00     0.206 C 
HETATM    6  N2  UNL     1      20.102   4.120  46.731  1.00  0.00    -0.170 NA
HETATM    7  C6  UNL     1      20.871   2.493  50.504  1.00  0.00     0.012 A 
HETATM    8  C7  UNL     1      21.591   3.476  50.067  1.00  0.00     0.101 C 
HETATM    9  N3  UNL     1      22.691   4.243  50.515  1.00  0.00    -0.373 N 
HETATM   10  C8  UNL     1      23.690   4.912  49.806  1.00  0.00     0.111 C 
HETATM   11  C9  UNL     1      24.890   5.081  49.315  1.00  0.00     0.049 C 
HETATM   12 CL1  UNL     1      24.999   6.608  48.396  1.00  0.00    -0.083 Cl
HETATM   13  C10 UNL     1      26.112   4.319  49.432  1.00  0.00     0.021 C 
HETATM   14  C11 UNL     1      26.535   3.216  50.028  1.00  0.00    -0.023 C 
HETATM   15  C12 UNL     1      25.930   2.183  50.904  1.00  0.00     0.053 C 
HETATM   16  C13 UNL     1      26.696   2.169  52.204  1.00  0.00     0.171 C 
HETATM   17  O2  UNL     1      26.193   1.256  53.081  1.00  0.00    -0.389 OA
HETATM   18  C14 UNL     1      26.218  -0.054  52.670  1.00  0.00     0.197 C 
HETATM   19  C15 UNL     1      25.575  -0.907  53.783  1.00  0.00     0.295 C 
HETATM   20  N4  UNL     1      24.251  -0.402  53.943  1.00  0.00     0.085 N 
HETATM   21  C16 UNL     1      23.487  -1.174  54.866  1.00  0.00     0.272 C 
HETATM   22  C17 UNL     1      22.125  -0.466  54.949  1.00  0.00     0.056 C 
HETATM   23  C18 UNL     1      21.636  -0.391  53.505  1.00  0.00     0.177 C 
HETATM   24  O3  UNL     1      20.407   0.273  53.373  1.00  0.00    -0.348 OA
HETATM   25  C19 UNL     1      20.158   0.824  52.108  1.00  0.00     0.103 A 
HETATM   26  C20 UNL     1      20.985   1.804  51.782  1.00  0.00     0.054 A 
HETATM   27  H6  UNL     1      22.532   4.163  51.536  1.00  0.00     0.164 HD
HETATM   28  H18 UNL     1      24.199   0.593  54.172  1.00  0.00     0.315 HD
ENDROOT
BRANCH   1  29
HETATM   29  O1  UNL     1      18.344  -0.650  51.742  1.00  0.00    -0.353 OA
HETATM   30  C1  UNL     1      17.012  -0.577  52.151  1.00  0.00     0.210 C 
ENDBRANCH   1  29
TORSDOF 1
ENDMDL
MODEL 3
REMARK VINA RESULT:      -8.1      3.178      6.129
REMARK  1 active torsions:
REMARK  status: ('A' for Active; 'I' for Inactive)
REMARK    1  A    between atoms: O1_2  and  C2_3 
ROOT
HETATM    1  C2  UNL     1      26.254   4.427  49.428  1.00  0.00     0.103 A 
HETATM    2  C3  UNL     1      26.764   3.338  50.025  1.00  0.00     0.073 A 
HETATM    3  C4  UNL     1      25.974   2.517  50.975  1.00  0.00     0.083 A 
HETATM    4  N1  UNL     1      26.730   1.592  51.345  1.00  0.00    -0.173 NA
HETATM    5  C5  UNL     1      26.614   0.532  52.187  1.00  0.00     0.206 C 
HETATM    6  N2  UNL     1      26.511  -0.366  52.899  1.00  0.00    -0.170 NA
HETATM    7  C6  UNL     1      24.609   2.959  51.226  1.00  0.00     0.012 A 
HETATM    8  C7  UNL     1      23.978   2.217  52.079  1.00  0.00     0.101 C 
HETATM    9  N3  UNL     1      22.696   2.169  52.673  1.00  0.00    -0.373 N 
HETATM   10  C8  UNL     1      21.956   1.094  53.168  1.00  0.00     0.111 C 
HETATM   11  C9  UNL     1      21.019   0.182  53.143  1.00  0.00     0.049 C 
HETATM   12 CL1  UNL     1      21.055  -0.818  54.621  1.00  0.00    -0.083 Cl
HETATM   13  C10 UNL     1      19.961  -0.108  52.202  1.00  0.00     0.021 C 
HETATM   14  C11 UNL     1      19.501   0.366  51.056  1.00  0.00    -0.023 C 
HETATM   15  C12 UNL     1      19.868   1.475  50.141  1.00  0.00     0.053 C 
HETATM   16  C13 UNL     1      18.677   2.396  50.027  1.00  0.00     0.171 C 
HETATM   17  O2  UNL     1      18.933   3.461  49.216  1.00  0.00    -0.389 OA
HETATM   18  C14 UNL     1      19.247   3.164  47.912  1.00  0.00     0.197 C 
HETATM   19  C15 UNL     1      19.534   4.494  47.185  1.00  0.00     0.295 C 
HETATM   20  N4  UNL     1      20.616   5.097  47.891  1.00  0.00     0.085 N 
HETATM   21  C16 UNL     1      21.074   6.291  47.260  1.00  0.00     0.272 C 
HETATM   22  C17 UNL     1      22.192   6.821  48.172  1.00  0.00     0.056 C 
HETATM   23  C18 UNL     1      23.174   5.660  48.301  1.00  0.00     0.177 C 
HETATM   24  O3  UNL     1      24.258   5.947  49.146  1.00  0.00    -0.348 OA
HETATM   25  C19 UNL     1      24.886   4.828  49.711  1.00  0.00     0.103 A 
HETATM   26  C20 UNL     1      24.117   4.149  50.546  1.00  0.00     0.054 A 
HETATM   27  H6  UNL     1      22.467   3.179  52.633  1.00  0.00     0.164 HD
HETATM   28  H18 UNL     1      20.439   5.257  48.886  1.00  0.00     0.315 HD
ENDROOT
BRANCH   1  29
HETATM   29  O1  UNL     1      26.889   5.267  48.530  1.00  0.00    -0.353 OA
HETATM   30  C1  UNL     1      28.267   5.448  48.400  1.00  0.00     0.210 C 
ENDBRANCH   1  29
TORSDOF 1
ENDMDL
MODEL 4
REMARK VINA RESULT:      -8.0      3.479      8.403
REMARK  1 active torsions:
REMARK  status: ('A' for Active; 'I' for Inactive)
REMARK    1  A    between atoms: O1_2  and  C2_3 
ROOT
HETATM    1  C2  UNL     1      21.176   5.593  49.415  1.00  0.00     0.103 A 
HETATM    2  C3  UNL     1      19.926   5.559  49.903  1.00  0.00     0.073 A 
HETATM    3  C4  UNL     1      19.333   4.322  50.468  1.00  0.00     0.083 A 
HETATM    4  N1  UNL     1      18.175   4.626  50.828  1.00  0.00    -0.173 NA
HETATM    5  C5  UNL     1      17.140   3.961  51.406  1.00  0.00     0.206 C 
HETATM    6  N2  UNL     1      16.266   3.396  51.897  1.00  0.00    -0.170 NA
HETATM    7  C6  UNL     1      20.185   3.140  50.464  1.00  0.00     0.012 A 
HETATM    8  C7  UNL     1      19.605   2.088  50.948  1.00  0.00     0.101 C 
HETATM    9  N3  UNL     1      19.932   0.733  51.183  1.00  0.00    -0.373 N 
HETATM   10  C8  UNL     1      19.456  -0.171  52.134  1.00  0.00     0.111 C 
HETATM   11  C9  UNL     1      19.504  -0.876  53.235  1.00  0.00     0.049 C 
HETATM   12 CL1  UNL     1      18.020  -1.846  53.443  1.00  0.00    -0.083 Cl
HETATM   13  C10 UNL     1      20.529  -1.054  54.239  1.00  0.00     0.021 C 
HETATM   14  C11 UNL     1      21.760  -0.633  54.480  1.00  0.00    -0.023 C 
HETATM   15  C12 UNL     1      22.725   0.269  53.805  1.00  0.00     0.053 C 
HETATM   16  C13 UNL     1      23.966  -0.531  53.491  1.00  0.00     0.171 C 
HETATM   17  O2  UNL     1      24.906   0.219  52.849  1.00  0.00    -0.389 OA
HETATM   18  C14 UNL     1      25.381   1.310  53.535  1.00  0.00     0.197 C 
HETATM   19  C15 UNL     1      26.394   2.032  52.623  1.00  0.00     0.295 C 
HETATM   20  N4  UNL     1      25.672   2.390  51.447  1.00  0.00     0.085 N 
HETATM   21  C16 UNL     1      26.455   3.174  50.551  1.00  0.00     0.272 C 
HETATM   22  C17 UNL     1      25.546   3.422  49.337  1.00  0.00     0.056 C 
HETATM   23  C18 UNL     1      24.282   4.050  49.917  1.00  0.00     0.177 C 
HETATM   24  O3  UNL     1      23.301   4.311  48.948  1.00  0.00    -0.348 OA
HETATM   25  C19 UNL     1      21.987   4.387  49.433  1.00  0.00     0.103 A 
HETATM   26  C20 UNL     1      21.532   3.244  49.920  1.00  0.00     0.054 A 
HETATM   27  H6  UNL     1      20.634   0.608  50.431  1.00  0.00     0.164 HD
HETATM   28  H18 UNL     1      25.239   1.604  50.957  1.00  0.00     0.315 HD
ENDROOT
BRANCH   1  29
HETATM   29  O1  UNL     1      21.834   6.679  48.866  1.00  0.00    -0.353 OA
HETATM   30  C1  UNL     1      22.216   7.841  49.538  1.00  0.00     0.210 C 
ENDBRANCH   1  29
TORSDOF 1
ENDMDL
MODEL 5
REMARK VINA RESULT:      -8.0      3.428      8.274
REMARK  1 active torsions:
REMARK  status: ('A' for Active; 'I' for Inactive)
REMARK    1  A    between atoms: O1_2  and  C2_3 
ROOT
HETATM    1  C2  UNL     1      24.421   4.894  50.034  1.00  0.00     0.103 A 
HETATM    2  C3  UNL     1      23.230   5.483  49.841  1.00  0.00     0.073 A 
HETATM    3  C4  UNL     1      21.967   4.707  49.777  1.00  0.00     0.083 A 
HETATM    4  N1  UNL     1      21.056   5.543  49.591  1.00  0.00    -0.173 NA
HETATM    5  C5  UNL     1      19.707   5.479  49.445  1.00  0.00     0.206 C 
HETATM    6  N2  UNL     1      18.564   5.423  49.325  1.00  0.00    -0.170 NA
HETATM    7  C6  UNL     1      22.090   3.264  49.936  1.00  0.00     0.012 A 
HETATM    8  C7  UNL     1      20.960   2.640  49.849  1.00  0.00     0.101 C 
HETATM    9  N3  UNL     1      20.496   1.306  49.922  1.00  0.00    -0.373 N 
HETATM   10  C8  UNL     1      19.261   0.787  50.314  1.00  0.00     0.111 C 
HETATM   11  C9  UNL     1      18.420   0.202  51.126  1.00  0.00     0.049 C 
HETATM   12 CL1  UNL     1      16.801   0.065  50.387  1.00  0.00    -0.083 Cl
HETATM   13  C10 UNL     1      18.574  -0.389  52.436  1.00  0.00     0.021 C 
HETATM   14  C11 UNL     1      19.537  -0.590  53.322  1.00  0.00    -0.023 C 
HETATM   15  C12 UNL     1      20.987  -0.291  53.401  1.00  0.00     0.053 C 
HETATM   16  C13 UNL     1      21.723  -1.599  53.563  1.00  0.00     0.171 C 
HETATM   17  O2  UNL     1      23.072  -1.420  53.625  1.00  0.00    -0.389 OA
HETATM   18  C14 UNL     1      23.532  -0.651  54.666  1.00  0.00     0.197 C 
HETATM   19  C15 UNL     1      25.065  -0.545  54.529  1.00  0.00     0.295 C 
HETATM   20  N4  UNL     1      25.300   0.051  53.255  1.00  0.00     0.085 N 
HETATM   21  C16 UNL     1      26.682   0.322  53.033  1.00  0.00     0.272 C 
HETATM   22  C17 UNL     1      26.752   0.909  51.615  1.00  0.00     0.056 C 
HETATM   23  C18 UNL     1      25.787   2.091  51.632  1.00  0.00     0.177 C 
HETATM   24  O3  UNL     1      25.681   2.735  50.390  1.00  0.00    -0.348 OA
HETATM   25  C19 UNL     1      24.493   3.450  50.187  1.00  0.00     0.103 A 
HETATM   26  C20 UNL     1      23.412   2.688  50.143  1.00  0.00     0.054 A 
HETATM   27  H6  UNL     1      21.353   0.824  49.593  1.00  0.00     0.164 HD
HETATM   28  H18 UNL     1      24.899  -0.459  52.465  1.00  0.00     0.315 HD
ENDROOT
BRANCH   1  29
HETATM   29  O1  UNL     1      25.659   5.508  50.110  1.00  0.00    -0.353 OA
HETATM   30  C1  UNL     1      26.441   5.928  49.033  1.00  0.00     0.210 C 
ENDBRANCH   1  29
TORSDOF 1
ENDMDL
MODEL 6
REMARK VINA RESULT:      -7.6      3.409      5.203
REMARK  1 active torsions:
REMARK  status: ('A' for Active; 'I' for Inactive)
REMARK    1  A    between atoms: O1_2  and  C2_3 
ROOT
HETATM    1  C2  UNL     1      22.227   0.178  53.565  1.00  0.00     0.103 A 
HETATM    2  C3  UNL     1      23.221   0.982  53.155  1.00  0.00     0.073 A 
HETATM    3  C4  UNL     1      23.271   1.537  51.780  1.00  0.00     0.083 A 
HETATM    4  N1  UNL     1      24.307   2.234  51.725  1.00  0.00    -0.173 NA
HETATM    5  C5  UNL     1      24.909   2.989  50.770  1.00  0.00     0.206 C 
HETATM    6  N2  UNL     1      25.416   3.631  49.959  1.00  0.00    -0.170 NA
HETATM    7  C6  UNL     1      22.177   1.159  50.894  1.00  0.00     0.012 A 
HETATM    8  C7  UNL     1      22.287   1.655  49.703  1.00  0.00     0.101 C 
HETATM    9  N3  UNL     1      21.559   1.629  48.492  1.00  0.00    -0.373 N 
HETATM   10  C8  UNL     1      21.475   2.560  47.455  1.00  0.00     0.111 C 
HETATM   11  C9  UNL     1      20.918   3.513  46.754  1.00  0.00     0.049 C 
HETATM   12 CL1  UNL     1      21.961   4.004  45.391  1.00  0.00    -0.083 Cl
HETATM   13  C10 UNL     1      19.632   4.169  46.842  1.00  0.00     0.021 C 
HETATM   14  C11 UNL     1      18.543   4.112  47.590  1.00  0.00    -0.023 C 
HETATM   15  C12 UNL     1      18.096   3.311  48.756  1.00  0.00     0.053 C 
HETATM   16  C13 UNL     1      16.838   2.576  48.359  1.00  0.00     0.171 C 
HETATM   17  O2  UNL     1      16.365   1.795  49.370  1.00  0.00    -0.389 OA
HETATM   18  C14 UNL     1      16.015   2.449  50.526  1.00  0.00     0.197 C 
HETATM   19  C15 UNL     1      15.546   1.387  51.542  1.00  0.00     0.295 C 
HETATM   20  N4  UNL     1      16.652   0.505  51.719  1.00  0.00     0.085 N 
HETATM   21  C16 UNL     1      16.406  -0.472  52.728  1.00  0.00     0.272 C 
HETATM   22  C17 UNL     1      17.666  -1.352  52.747  1.00  0.00     0.056 C 
HETATM   23  C18 UNL     1      18.820  -0.377  52.964  1.00  0.00     0.177 C 
HETATM   24  O3  UNL     1      20.077  -1.002  52.967  1.00  0.00    -0.348 OA
HETATM   25  C19 UNL     1      21.158  -0.171  52.644  1.00  0.00     0.103 A 
HETATM   26  C20 UNL     1      21.129   0.283  51.401  1.00  0.00     0.054 A 
HETATM   27  H6  UNL     1      21.104   0.704  48.601  1.00  0.00     0.164 HD
HETATM   28  H18 UNL     1      16.986   0.063  50.860  1.00  0.00     0.315 HD
ENDROOT
BRANCH   1  29
HETATM   29  O1  UNL     1      22.074  -0.398  54.814  1.00  0.00    -0.353 OA
HETATM   30  C1  UNL     1      22.894  -1.374  55.380  1.00  0.00     0.210 C 
ENDBRANCH   1  29
TORSDOF 1
ENDMDL
MODEL 7
REMARK VINA RESULT:      -7.4      3.496      5.085
REMARK  1 active torsions:
REMARK  status: ('A' for Active; 'I' for Inactive)
REMARK    1  A    between atoms: O1_2  and  C2_3 
ROOT
HETATM    1  C2  UNL     1      17.440  -0.231  51.867  1.00  0.00     0.103 A 
HETATM    2  C3  UNL     1      18.178  -0.733  52.869  1.00  0.00     0.073 A 
HETATM    3  C4  UNL     1      19.650  -0.559  52.929  1.00  0.00     0.083 A 
HETATM    4  N1  UNL     1      20.026  -1.138  53.971  1.00  0.00    -0.173 NA
HETATM    5  C5  UNL     1      21.222  -1.339  54.583  1.00  0.00     0.206 C 
HETATM    6  N2  UNL     1      22.236  -1.506  55.101  1.00  0.00    -0.170 NA
HETATM    7  C6  UNL     1      20.254   0.190  51.835  1.00  0.00     0.012 A 
HETATM    8  C7  UNL     1      21.541   0.289  51.930  1.00  0.00     0.101 C 
HETATM    9  N3  UNL     1      22.599   0.874  51.197  1.00  0.00    -0.373 N 
HETATM   10  C8  UNL     1      23.842   1.357  51.611  1.00  0.00     0.111 C 
HETATM   11  C9  UNL     1      24.715   2.278  51.928  1.00  0.00     0.049 C 
HETATM   12 CL1  UNL     1      26.275   1.549  52.399  1.00  0.00    -0.083 Cl
HETATM   13  C10 UNL     1      24.667   3.722  51.904  1.00  0.00     0.021 C 
HETATM   14  C11 UNL     1      23.810   4.677  51.583  1.00  0.00    -0.023 C 
HETATM   15  C12 UNL     1      22.419   4.727  51.069  1.00  0.00     0.053 C 
HETATM   16  C13 UNL     1      22.436   5.467  49.753  1.00  0.00     0.171 C 
HETATM   17  O2  UNL     1      21.195   5.544  49.197  1.00  0.00    -0.389 OA
HETATM   18  C14 UNL     1      20.242   6.204  49.934  1.00  0.00     0.197 C 
HETATM   19  C15 UNL     1      18.916   6.143  49.148  1.00  0.00     0.295 C 
HETATM   20  N4  UNL     1      18.626   4.757  48.983  1.00  0.00     0.085 N 
HETATM   21  C16 UNL     1      17.358   4.541  48.369  1.00  0.00     0.272 C 
HETATM   22  C17 UNL     1      17.236   3.015  48.229  1.00  0.00     0.056 C 
HETATM   23  C18 UNL     1      17.447   2.475  49.640  1.00  0.00     0.177 C 
HETATM   24  O3  UNL     1      17.415   1.073  49.705  1.00  0.00    -0.348 OA
HETATM   25  C19 UNL     1      18.088   0.510  50.797  1.00  0.00     0.103 A 
HETATM   26  C20 UNL     1      19.396   0.709  50.778  1.00  0.00     0.054 A 
HETATM   27  H6  UNL     1      22.176   0.836  50.252  1.00  0.00     0.164 HD
HETATM   28  H18 UNL     1      19.356   4.223  48.506  1.00  0.00     0.315 HD
ENDROOT
BRANCH   1  29
HETATM   29  O1  UNL     1      16.069  -0.328  51.703  1.00  0.00    -0.353 OA
HETATM   30  C1  UNL     1      15.103   0.446  52.346  1.00  0.00     0.210 C 
ENDBRANCH   1  29
TORSDOF 1
ENDMDL
MODEL 8
REMARK VINA RESULT:      -7.1      2.726      4.184
REMARK  1 active torsions:
REMARK  status: ('A' for Active; 'I' for Inactive)
REMARK    1  A    between atoms: O1_2  and  C2_3 
ROOT
HETATM    1  C2  UNL     1      23.276   0.780  52.173  1.00  0.00     0.103 A 
HETATM    2  C3  UNL     1      24.308   1.594  51.897  1.00  0.00     0.073 A 
HETATM    3  C4  UNL     1      24.299   2.511  50.731  1.00  0.00     0.083 A 
HETATM    4  N1  UNL     1      25.392   3.118  50.759  1.00  0.00    -0.173 NA
HETATM    5  C5  UNL     1      25.986   4.067  49.991  1.00  0.00     0.206 C 
HETATM    6  N2  UNL     1      26.485   4.874  49.338  1.00  0.00    -0.170 NA
HETATM    7  C6  UNL     1      23.104   2.480  49.897  1.00  0.00     0.012 A 
HETATM    8  C7  UNL     1      23.165   3.284  48.884  1.00  0.00     0.101 C 
HETATM    9  N3  UNL     1      22.341   3.655  47.797  1.00  0.00    -0.373 N 
HETATM   10  C8  UNL     1      22.265   4.845  47.072  1.00  0.00     0.111 C 
HETATM   11  C9  UNL     1      21.750   5.996  46.724  1.00  0.00     0.049 C 
HETATM   12 CL1  UNL     1      22.721   6.776  45.446  1.00  0.00    -0.083 Cl
HETATM   13  C10 UNL     1      20.548   6.692  47.126  1.00  0.00     0.021 C 
HETATM   14  C11 UNL     1      19.523   6.504  47.942  1.00  0.00    -0.023 C 
HETATM   15  C12 UNL     1      19.096   5.439  48.882  1.00  0.00     0.053 C 
HETATM   16  C13 UNL     1      17.743   4.940  48.435  1.00  0.00     0.171 C 
HETATM   17  O2  UNL     1      17.279   3.941  49.236  1.00  0.00    -0.389 OA
HETATM   18  C14 UNL     1      17.092   4.264  50.558  1.00  0.00     0.197 C 
HETATM   19  C15 UNL     1      16.604   2.994  51.286  1.00  0.00     0.295 C 
HETATM   20  N4  UNL     1      17.628   2.020  51.095  1.00  0.00     0.085 N 
HETATM   21  C16 UNL     1      17.370   0.818  51.816  1.00  0.00     0.272 C 
HETATM   22  C17 UNL     1      18.533  -0.120  51.458  1.00  0.00     0.056 C 
HETATM   23  C18 UNL     1      19.793   0.667  51.810  1.00  0.00     0.177 C 
HETATM   24  O3  UNL     1      20.977  -0.023  51.506  1.00  0.00    -0.348 OA
HETATM   25  C19 UNL     1      22.106   0.786  51.311  1.00  0.00     0.103 A 
HETATM   26  C20 UNL     1      22.020   1.574  50.252  1.00  0.00     0.054 A 
HETATM   27  H6  UNL     1      21.807   2.772  47.696  1.00  0.00     0.164 HD
HETATM   28  H18 UNL     1      17.845   1.817  50.117  1.00  0.00     0.315 HD
ENDROOT
BRANCH   1  29
HETATM   29  O1  UNL     1      23.169  -0.113  53.224  1.00  0.00    -0.353 OA
HETATM   30  C1  UNL     1      24.216  -0.588  54.015  1.00  0.00     0.210 C 
ENDBRANCH   1  29
TORSDOF 1
ENDMDL
MODEL 9
REMARK VINA RESULT:      -7.0      3.765      6.652
REMARK  1 active torsions:
REMARK  status: ('A' for Active; 'I' for Inactive)
REMARK    1  A    between atoms: O1_2  and  C2_3 
ROOT
HETATM    1  C2  UNL     1      24.136   5.874  50.391  1.00  0.00     0.103 A 
HETATM    2  C3  UNL     1      24.781   4.742  50.718  1.00  0.00     0.073 A 
HETATM    3  C4  UNL     1      24.090   3.597  51.360  1.00  0.00     0.083 A 
HETATM    4  N1  UNL     1      24.961   2.717  51.528  1.00  0.00    -0.173 NA
HETATM    5  C5  UNL     1      24.974   1.464  52.052  1.00  0.00     0.206 C 
HETATM    6  N2  UNL     1      24.982   0.401  52.495  1.00  0.00    -0.170 NA
HETATM    7  C6  UNL     1      22.666   3.769  51.619  1.00  0.00     0.012 A 
HETATM    8  C7  UNL     1      22.124   2.747  52.200  1.00  0.00     0.101 C 
HETATM    9  N3  UNL     1      20.843   2.370  52.666  1.00  0.00    -0.373 N 
HETATM   10  C8  UNL     1      20.254   1.113  52.808  1.00  0.00     0.111 C 
HETATM   11  C9  UNL     1      19.464   0.125  52.476  1.00  0.00     0.049 C 
HETATM   12 CL1  UNL     1      19.597  -1.223  53.640  1.00  0.00    -0.083 Cl
HETATM   13  C10 UNL     1      18.493  -0.040  51.418  1.00  0.00     0.021 C 
HETATM   14  C11 UNL     1      18.007   0.660  50.406  1.00  0.00    -0.023 C 
HETATM   15  C12 UNL     1      18.236   2.013  49.843  1.00  0.00     0.053 C 
HETATM   16  C13 UNL     1      16.927   2.763  49.889  1.00  0.00     0.171 C 
HETATM   17  O2  UNL     1      17.050   4.031  49.405  1.00  0.00    -0.389 OA
HETATM   18  C14 UNL     1      17.449   4.142  48.095  1.00  0.00     0.197 C 
HETATM   19  C15 UNL     1      17.559   5.644  47.765  1.00  0.00     0.295 C 
HETATM   20  N4  UNL     1      18.516   6.174  48.681  1.00  0.00     0.085 N 
HETATM   21  C16 UNL     1      18.813   7.543  48.420  1.00  0.00     0.272 C 
HETATM   22  C17 UNL     1      19.808   7.952  49.516  1.00  0.00     0.056 C 
HETATM   23  C18 UNL     1      20.947   6.942  49.408  1.00  0.00     0.177 C 
HETATM   24  O3  UNL     1      21.947   7.132  50.374  1.00  0.00    -0.348 OA
HETATM   25  C19 UNL     1      22.715   5.997  50.671  1.00  0.00     0.103 A 
HETATM   26  C20 UNL     1      22.026   5.021  51.240  1.00  0.00     0.054 A 
HETATM   27  H6  UNL     1      20.468   3.314  52.876  1.00  0.00     0.164 HD
HETATM   28  H18 UNL     1      18.284   6.034  49.667  1.00  0.00     0.315 HD
ENDROOT
BRANCH   1  29
HETATM   29  O1  UNL     1      24.669   7.002  49.794  1.00  0.00    -0.353 OA
HETATM   30  C1  UNL     1      25.798   7.705  50.216  1.00  0.00     0.210 C 
ENDBRANCH   1  29
TORSDOF 1
ENDMDL
