MODEL 1
REMARK VINA RESULT:      -9.0      0.000      0.000
REMARK  2 active torsions:
REMARK  status: ('A' for Active; 'I' for Inactive)
REMARK    1  A    between atoms: O1_2  and  C2_3 
REMARK    2  A    between atoms: C15_18  and  C16_19 
ROOT
HETATM    1  C2  UNL     1      21.913   1.849  48.807  1.00  0.00     0.153 C 
HETATM    2  C3  UNL     1      23.143   2.516  49.190  1.00  0.00     0.051 C 
HETATM    3  C4  UNL     1      23.783   2.577  50.497  1.00  0.00     0.079 C 
HETATM    4  C5  UNL     1      24.817   3.694  50.106  1.00  0.00    -0.038 A 
HETATM    5  C6  UNL     1      26.007   3.255  49.511  1.00  0.00     0.008 A 
HETATM    6  C7  UNL     1      26.917   4.157  49.060  1.00  0.00     0.001 A 
HETATM    7  C8  UNL     1      26.708   5.515  49.172  1.00  0.00     0.001 A 
HETATM    8  C9  UNL     1      25.568   6.030  49.746  1.00  0.00     0.013 A 
HETATM    9  C10 UNL     1      24.676   5.122  50.189  1.00  0.00    -0.017 A 
HETATM   10  C11 UNL     1      23.416   5.381  50.875  1.00  0.00     0.001 C 
HETATM   11  C12 UNL     1      22.841   5.697  49.721  1.00  0.00    -0.015 C 
HETATM   12  C13 UNL     1      22.102   6.062  48.520  1.00  0.00     0.163 C 
HETATM   13  N1  UNL     1      21.477   7.332  48.949  1.00  0.00    -0.353 N 
HETATM   14  C14 UNL     1      20.464   6.564  49.521  1.00  0.00     0.249 C 
HETATM   15  O2  UNL     1      19.255   7.011  49.436  1.00  0.00    -0.268 OA
HETATM   16  C15 UNL     1      21.338   5.424  50.042  1.00  0.00     0.033 C 
HETATM   17  C16 UNL     1      21.043   4.214  50.390  1.00  0.00     0.079 A 
HETATM   18  C17 UNL     1      19.436   4.409  50.638  1.00  0.00     0.287 A 
HETATM   19  N2  UNL     1      19.805   3.633  51.757  1.00  0.00     0.004 N 
HETATM   20  C18 UNL     1      20.995   3.683  52.783  1.00  0.00     0.416 C 
HETATM   21  O3  UNL     1      21.957   3.147  52.013  1.00  0.00    -0.331 OA
HETATM   22  C19 UNL     1      23.155   2.821  51.824  1.00  0.00     0.160 C 
HETATM   23  C20 UNL     1      23.536   1.686  52.752  1.00  0.00     0.074 C 
HETATM   24  N3  UNL     1      23.840   3.992  52.531  1.00  0.00    -0.262 NA
HETATM   25  C21 UNL     1      23.347   5.230  52.354  1.00  0.00     0.127 C 
HETATM   26  C22 UNL     1      19.421   2.440  51.747  1.00  0.00     0.160 A 
HETATM   27  C23 UNL     1      18.926   1.265  51.931  1.00  0.00     0.036 A 
HETATM   28  C24 UNL     1      19.366   0.314  51.065  1.00  0.00     0.002 A 
HETATM   29  C25 UNL     1      20.264   0.766  50.152  1.00  0.00     0.008 A 
HETATM   30  C26 UNL     1      20.903   2.056  49.838  1.00  0.00    -0.009 A 
HETATM   31  C27 UNL     1      20.337   2.913  50.785  1.00  0.00     0.211 A 
HETATM   32  H14 UNL     1      21.509   8.403  48.969  1.00  0.00     0.163 HD
ENDROOT
BRANCH   1  33
HETATM   33  O1  UNL     1      21.442   2.285  47.570  1.00  0.00    -0.386 OA
HETATM   34  C1  UNL     1      22.458   2.933  46.848  1.00  0.00     0.202 C 
ENDBRANCH   1  33
TORSDOF 2
ENDMDL
MODEL 2
REMARK VINA RESULT:      -8.7      7.744     11.300
REMARK  2 active torsions:
REMARK  status: ('A' for Active; 'I' for Inactive)
REMARK    1  A    between atoms: O1_2  and  C2_3 
REMARK    2  A    between atoms: C15_18  and  C16_19 
ROOT
HETATM    1  C2  UNL     1      31.955   7.654  44.913  1.00  0.00     0.153 C 
HETATM    2  C3  UNL     1      31.954   8.664  45.956  1.00  0.00     0.051 C 
HETATM    3  C4  UNL     1      32.925   8.882  47.019  1.00  0.00     0.079 C 
HETATM    4  C5  UNL     1      32.039   9.900  47.825  1.00  0.00    -0.038 A 
HETATM    5  C6  UNL     1      32.122  11.242  47.430  1.00  0.00     0.008 A 
HETATM    6  C7  UNL     1      31.324  12.174  48.013  1.00  0.00     0.001 A 
HETATM    7  C8  UNL     1      30.419  11.840  48.998  1.00  0.00     0.001 A 
HETATM    8  C9  UNL     1      30.275  10.547  49.445  1.00  0.00     0.013 A 
HETATM    9  C10 UNL     1      31.075   9.635  48.858  1.00  0.00    -0.017 A 
HETATM   10  C11 UNL     1      31.169   8.212  49.166  1.00  0.00     0.001 C 
HETATM   11  C12 UNL     1      30.052   7.981  48.487  1.00  0.00    -0.015 C 
HETATM   12  C13 UNL     1      28.840   7.605  47.770  1.00  0.00     0.163 C 
HETATM   13  N1  UNL     1      28.151   6.788  48.793  1.00  0.00    -0.353 N 
HETATM   14  C14 UNL     1      28.923   5.711  48.359  1.00  0.00     0.249 C 
HETATM   15  O2  UNL     1      28.356   4.551  48.309  1.00  0.00    -0.268 OA
HETATM   16  C15 UNL     1      30.224   6.475  48.115  1.00  0.00     0.033 C 
HETATM   17  C16 UNL     1      31.265   6.182  47.405  1.00  0.00     0.079 A 
HETATM   18  C17 UNL     1      31.042   4.564  47.292  1.00  0.00     0.287 A 
HETATM   19  N2  UNL     1      32.424   4.642  47.566  1.00  0.00     0.004 N 
HETATM   20  C18 UNL     1      33.295   5.470  48.581  1.00  0.00     0.416 C 
HETATM   21  O3  UNL     1      33.289   6.654  47.944  1.00  0.00    -0.331 OA
HETATM   22  C19 UNL     1      33.578   7.875  47.898  1.00  0.00     0.160 C 
HETATM   23  C20 UNL     1      35.079   8.048  47.796  1.00  0.00     0.074 C 
HETATM   24  N3  UNL     1      33.362   8.231  49.370  1.00  0.00    -0.262 NA
HETATM   25  C21 UNL     1      32.294   7.722  50.007  1.00  0.00     0.127 C 
HETATM   26  C22 UNL     1      33.189   4.369  46.613  1.00  0.00     0.160 A 
HETATM   27  C23 UNL     1      34.059   3.931  45.769  1.00  0.00     0.036 A 
HETATM   28  C24 UNL     1      34.191   4.676  44.640  1.00  0.00     0.002 A 
HETATM   29  C25 UNL     1      33.383   5.767  44.597  1.00  0.00     0.008 A 
HETATM   30  C26 UNL     1      32.366   6.373  45.473  1.00  0.00    -0.009 A 
HETATM   31  C27 UNL     1      32.336   5.490  46.556  1.00  0.00     0.211 A 
HETATM   32  H14 UNL     1      27.421   6.733  49.576  1.00  0.00     0.163 HD
ENDROOT
BRANCH   1  33
HETATM   33  O1  UNL     1      30.713   7.538  44.293  1.00  0.00    -0.386 OA
HETATM   34  C1  UNL     1      29.932   8.684  44.518  1.00  0.00     0.202 C 
ENDBRANCH   1  33
TORSDOF 2
ENDMDL
MODEL 3
REMARK VINA RESULT:      -8.4      2.048      5.031
REMARK  2 active torsions:
REMARK  status: ('A' for Active; 'I' for Inactive)
REMARK    1  A    between atoms: O1_2  and  C2_3 
REMARK    2  A    between atoms: C15_18  and  C16_19 
ROOT
HETATM    1  C2  UNL     1      20.937   5.767  50.925  1.00  0.00     0.153 C 
HETATM    2  C3  UNL     1      22.093   5.010  51.369  1.00  0.00     0.051 C 
HETATM    3  C4  UNL     1      23.480   5.439  51.480  1.00  0.00     0.079 C 
HETATM    4  C5  UNL     1      24.064   3.998  51.709  1.00  0.00    -0.038 A 
HETATM    5  C6  UNL     1      24.069   3.536  53.032  1.00  0.00     0.008 A 
HETATM    6  C7  UNL     1      24.474   2.268  53.309  1.00  0.00     0.001 A 
HETATM    7  C8  UNL     1      24.888   1.406  52.317  1.00  0.00     0.001 A 
HETATM    8  C9  UNL     1      24.916   1.781  50.993  1.00  0.00     0.013 A 
HETATM    9  C10 UNL     1      24.513   3.041  50.735  1.00  0.00    -0.017 A 
HETATM   10  C11 UNL     1      24.486   3.714  49.442  1.00  0.00     0.001 C 
HETATM   11  C12 UNL     1      23.374   3.066  49.117  1.00  0.00    -0.015 C 
HETATM   12  C13 UNL     1      22.155   2.419  48.651  1.00  0.00     0.163 C 
HETATM   13  N1  UNL     1      22.576   1.956  47.310  1.00  0.00    -0.353 N 
HETATM   14  C14 UNL     1      22.259   3.231  46.842  1.00  0.00     0.249 C 
HETATM   15  O2  UNL     1      21.706   3.319  45.678  1.00  0.00    -0.268 OA
HETATM   16  C15 UNL     1      22.760   4.024  48.048  1.00  0.00     0.033 C 
HETATM   17  C16 UNL     1      22.496   5.226  48.449  1.00  0.00     0.079 A 
HETATM   18  C17 UNL     1      21.921   5.837  47.043  1.00  0.00     0.287 A 
HETATM   19  N2  UNL     1      22.751   6.886  47.492  1.00  0.00     0.004 N 
HETATM   20  C18 UNL     1      24.198   6.955  48.103  1.00  0.00     0.416 C 
HETATM   21  O3  UNL     1      23.916   6.557  49.355  1.00  0.00    -0.331 OA
HETATM   22  C19 UNL     1      24.284   6.232  50.510  1.00  0.00     0.160 C 
HETATM   23  C20 UNL     1      24.854   7.436  51.230  1.00  0.00     0.074 C 
HETATM   24  N3  UNL     1      25.574   5.491  50.156  1.00  0.00    -0.262 NA
HETATM   25  C21 UNL     1      25.574   4.667  49.093  1.00  0.00     0.127 C 
HETATM   26  C22 UNL     1      22.163   7.911  47.908  1.00  0.00     0.160 A 
HETATM   27  C23 UNL     1      21.676   9.073  48.178  1.00  0.00     0.036 A 
HETATM   28  C24 UNL     1      20.913   9.130  49.302  1.00  0.00     0.002 A 
HETATM   29  C25 UNL     1      20.800   7.945  49.957  1.00  0.00     0.008 A 
HETATM   30  C26 UNL     1      21.296   6.571  49.763  1.00  0.00    -0.009 A 
HETATM   31  C27 UNL     1      22.027   6.677  48.578  1.00  0.00     0.211 A 
HETATM   32  H14 UNL     1      22.951   1.162  46.695  1.00  0.00     0.163 HD
ENDROOT
BRANCH   1  33
HETATM   33  O1  UNL     1      19.851   4.944  50.630  1.00  0.00    -0.386 OA
HETATM   34  C1  UNL     1      19.912   3.752  51.370  1.00  0.00     0.202 C 
ENDBRANCH   1  33
TORSDOF 2
ENDMDL
MODEL 4
REMARK VINA RESULT:      -8.1      1.887      4.156
REMARK  2 active torsions:
REMARK  status: ('A' for Active; 'I' for Inactive)
REMARK    1  A    between atoms: O1_2  and  C2_3 
REMARK    2  A    between atoms: C15_18  and  C16_19 
ROOT
HETATM    1  C2  UNL     1      21.788   2.445  48.415  1.00  0.00     0.153 C 
HETATM    2  C3  UNL     1      22.211   2.057  49.748  1.00  0.00     0.051 C 
HETATM    3  C4  UNL     1      21.704   2.508  51.036  1.00  0.00     0.079 C 
HETATM    4  C5  UNL     1      22.864   1.872  51.885  1.00  0.00    -0.038 A 
HETATM    5  C6  UNL     1      22.697   0.531  52.255  1.00  0.00     0.008 A 
HETATM    6  C7  UNL     1      23.690  -0.124  52.912  1.00  0.00     0.001 A 
HETATM    7  C8  UNL     1      24.877   0.498  53.235  1.00  0.00     0.001 A 
HETATM    8  C9  UNL     1      25.122   1.812  52.911  1.00  0.00     0.013 A 
HETATM    9  C10 UNL     1      24.127   2.448  52.261  1.00  0.00    -0.017 A 
HETATM   10  C11 UNL     1      24.093   3.844  51.842  1.00  0.00     0.001 C 
HETATM   11  C12 UNL     1      24.876   3.562  50.807  1.00  0.00    -0.015 C 
HETATM   12  C13 UNL     1      25.726   3.375  49.638  1.00  0.00     0.163 C 
HETATM   13  N1  UNL     1      26.708   4.466  49.827  1.00  0.00    -0.353 N 
HETATM   14  C14 UNL     1      25.787   5.312  49.210  1.00  0.00     0.249 C 
HETATM   15  O2  UNL     1      26.249   6.215  48.410  1.00  0.00    -0.268 OA
HETATM   16  C15 UNL     1      24.519   4.723  49.826  1.00  0.00     0.033 C 
HETATM   17  C16 UNL     1      23.280   4.797  49.463  1.00  0.00     0.079 A 
HETATM   18  C17 UNL     1      23.380   6.119  48.502  1.00  0.00     0.287 A 
HETATM   19  N2  UNL     1      22.198   6.382  49.226  1.00  0.00     0.004 N 
HETATM   20  C18 UNL     1      21.791   6.266  50.741  1.00  0.00     0.416 C 
HETATM   21  O3  UNL     1      21.613   4.936  50.808  1.00  0.00    -0.331 OA
HETATM   22  C19 UNL     1      21.377   3.894  51.468  1.00  0.00     0.160 C 
HETATM   23  C20 UNL     1      19.950   3.915  51.976  1.00  0.00     0.074 C 
HETATM   24  N3  UNL     1      22.129   4.245  52.753  1.00  0.00    -0.262 NA
HETATM   25  C21 UNL     1      23.334   4.831  52.656  1.00  0.00     0.127 C 
HETATM   26  C22 UNL     1      21.127   6.284  48.584  1.00  0.00     0.160 A 
HETATM   27  C23 UNL     1      19.992   6.396  47.984  1.00  0.00     0.036 A 
HETATM   28  C24 UNL     1      19.488   5.236  47.486  1.00  0.00     0.002 A 
HETATM   29  C25 UNL     1      20.268   4.148  47.715  1.00  0.00     0.008 A 
HETATM   30  C26 UNL     1      21.559   3.884  48.375  1.00  0.00    -0.009 A 
HETATM   31  C27 UNL     1      21.946   5.157  48.801  1.00  0.00     0.211 A 
HETATM   32  H14 UNL     1      27.670   4.775  50.183  1.00  0.00     0.163 HD
ENDROOT
BRANCH   1  33
HETATM   33  O1  UNL     1      22.713   2.073  47.441  1.00  0.00    -0.386 OA
HETATM   34  C1  UNL     1      22.547   2.839  46.275  1.00  0.00     0.202 C 
ENDBRANCH   1  33
TORSDOF 2
ENDMDL
MODEL 5
REMARK VINA RESULT:      -7.9      2.159      4.606
REMARK  2 active torsions:
REMARK  status: ('A' for Active; 'I' for Inactive)
REMARK    1  A    between atoms: O1_2  and  C2_3 
REMARK    2  A    between atoms: C15_18  and  C16_19 
ROOT
HETATM    1  C2  UNL     1      21.688   6.493  48.797  1.00  0.00     0.153 C 
HETATM    2  C3  UNL     1      22.616   5.399  49.020  1.00  0.00     0.051 C 
HETATM    3  C4  UNL     1      22.897   4.250  48.170  1.00  0.00     0.079 C 
HETATM    4  C5  UNL     1      23.725   3.463  49.249  1.00  0.00    -0.038 A 
HETATM    5  C6  UNL     1      25.088   3.775  49.332  1.00  0.00     0.008 A 
HETATM    6  C7  UNL     1      25.859   3.207  50.297  1.00  0.00     0.001 A 
HETATM    7  C8  UNL     1      25.337   2.319  51.213  1.00  0.00     0.001 A 
HETATM    8  C9  UNL     1      24.010   1.957  51.200  1.00  0.00     0.013 A 
HETATM    9  C10 UNL     1      23.259   2.528  50.237  1.00  0.00    -0.017 A 
HETATM   10  C11 UNL     1      21.847   2.293  49.961  1.00  0.00     0.001 C 
HETATM   11  C12 UNL     1      21.508   3.072  50.981  1.00  0.00    -0.015 C 
HETATM   12  C13 UNL     1      21.015   3.904  52.071  1.00  0.00     0.163 C 
HETATM   13  N1  UNL     1      20.043   2.988  52.707  1.00  0.00    -0.353 N 
HETATM   14  C14 UNL     1      19.116   3.417  51.758  1.00  0.00     0.249 C 
HETATM   15  O2  UNL     1      17.894   3.577  52.146  1.00  0.00    -0.268 OA
HETATM   16  C15 UNL     1      20.069   3.513  50.567  1.00  0.00     0.033 C 
HETATM   17  C16 UNL     1      19.971   4.150  49.446  1.00  0.00     0.079 A 
HETATM   18  C17 UNL     1      18.349   4.372  49.424  1.00  0.00     0.287 A 
HETATM   19  N2  UNL     1      18.602   3.982  48.092  1.00  0.00     0.004 N 
HETATM   20  C18 UNL     1      19.474   2.857  47.425  1.00  0.00     0.416 C 
HETATM   21  O3  UNL     1      20.684   3.425  47.556  1.00  0.00    -0.331 OA
HETATM   22  C19 UNL     1      21.934   3.379  47.443  1.00  0.00     0.160 C 
HETATM   23  C20 UNL     1      22.322   3.349  45.980  1.00  0.00     0.074 C 
HETATM   24  N3  UNL     1      22.158   1.912  47.814  1.00  0.00    -0.262 NA
HETATM   25  C21 UNL     1      21.463   1.392  48.840  1.00  0.00     0.127 C 
HETATM   26  C22 UNL     1      18.502   4.885  47.228  1.00  0.00     0.160 A 
HETATM   27  C23 UNL     1      18.247   5.678  46.245  1.00  0.00     0.036 A 
HETATM   28  C24 UNL     1      19.077   6.750  46.141  1.00  0.00     0.002 A 
HETATM   29  C25 UNL     1      20.045   6.797  47.093  1.00  0.00     0.008 A 
HETATM   30  C26 UNL     1      20.443   5.973  48.248  1.00  0.00    -0.009 A 
HETATM   31  C27 UNL     1      19.495   4.948  48.228  1.00  0.00     0.211 A 
HETATM   32  H14 UNL     1      19.834   2.271  53.476  1.00  0.00     0.163 HD
ENDROOT
BRANCH   1  33
HETATM   33  O1  UNL     1      21.442   7.217  49.962  1.00  0.00    -0.386 OA
HETATM   34  C1  UNL     1      22.537   7.142  50.839  1.00  0.00     0.202 C 
ENDBRANCH   1  33
TORSDOF 2
ENDMDL
MODEL 6
REMARK VINA RESULT:      -7.8      6.705      9.425
REMARK  2 active torsions:
REMARK  status: ('A' for Active; 'I' for Inactive)
REMARK    1  A    between atoms: O1_2  and  C2_3 
REMARK    2  A    between atoms: C15_18  and  C16_19 
ROOT
HETATM    1  C2  UNL     1      27.574   8.894  45.185  1.00  0.00     0.153 C 
HETATM    2  C3  UNL     1      28.964   8.612  45.495  1.00  0.00     0.051 C 
HETATM    3  C4  UNL     1      29.513   7.733  46.518  1.00  0.00     0.079 C 
HETATM    4  C5  UNL     1      30.993   8.241  46.374  1.00  0.00    -0.038 A 
HETATM    5  C6  UNL     1      31.767   7.622  45.383  1.00  0.00     0.008 A 
HETATM    6  C7  UNL     1      33.028   8.061  45.130  1.00  0.00     0.001 A 
HETATM    7  C8  UNL     1      33.583   9.112  45.828  1.00  0.00     0.001 A 
HETATM    8  C9  UNL     1      32.893   9.773  46.818  1.00  0.00     0.013 A 
HETATM    9  C10 UNL     1      31.645   9.325  47.058  1.00  0.00    -0.017 A 
HETATM   10  C11 UNL     1      30.713   9.802  48.073  1.00  0.00     0.001 C 
HETATM   11  C12 UNL     1      30.419  10.856  47.321  1.00  0.00    -0.015 C 
HETATM   12  C13 UNL     1      30.014  12.048  46.587  1.00  0.00     0.163 C 
HETATM   13  N1  UNL     1      30.168  13.087  47.630  1.00  0.00    -0.353 N 
HETATM   14  C14 UNL     1      28.891  12.740  48.070  1.00  0.00     0.249 C 
HETATM   15  O2  UNL     1      28.116  13.695  48.467  1.00  0.00    -0.268 OA
HETATM   16  C15 UNL     1      29.002  11.231  47.857  1.00  0.00     0.033 C 
HETATM   17  C16 UNL     1      28.093  10.316  47.748  1.00  0.00     0.079 A 
HETATM   18  C17 UNL     1      26.844  11.120  48.433  1.00  0.00     0.287 A 
HETATM   19  N2  UNL     1      26.716   9.843  49.018  1.00  0.00     0.004 N 
HETATM   20  C18 UNL     1      27.728   8.822  49.656  1.00  0.00     0.416 C 
HETATM   21  O3  UNL     1      28.260   8.323  48.527  1.00  0.00    -0.331 OA
HETATM   22  C19 UNL     1      29.095   7.592  47.939  1.00  0.00     0.160 C 
HETATM   23  C20 UNL     1      28.786   6.134  48.207  1.00  0.00     0.074 C 
HETATM   24  N3  UNL     1      30.292   7.793  48.870  1.00  0.00    -0.262 NA
HETATM   25  C21 UNL     1      30.549   9.028  49.333  1.00  0.00     0.127 C 
HETATM   26  C22 UNL     1      25.749   9.152  48.621  1.00  0.00     0.160 A 
HETATM   27  C23 UNL     1      24.694   8.437  48.428  1.00  0.00     0.036 A 
HETATM   28  C24 UNL     1      24.564   7.930  47.173  1.00  0.00     0.002 A 
HETATM   29  C25 UNL     1      25.580   8.260  46.333  1.00  0.00     0.008 A 
HETATM   30  C26 UNL     1      26.820   9.050  46.422  1.00  0.00    -0.009 A 
HETATM   31  C27 UNL     1      26.791   9.511  47.741  1.00  0.00     0.211 A 
HETATM   32  H14 UNL     1      30.773  13.853  48.072  1.00  0.00     0.163 HD
ENDROOT
BRANCH   1  33
HETATM   33  O1  UNL     1      27.434  10.026  44.384  1.00  0.00    -0.386 OA
HETATM   34  C1  UNL     1      28.600  10.254  43.634  1.00  0.00     0.202 C 
ENDBRANCH   1  33
TORSDOF 2
ENDMDL
MODEL 7
REMARK VINA RESULT:      -7.7      2.451      3.463
REMARK  2 active torsions:
REMARK  status: ('A' for Active; 'I' for Inactive)
REMARK    1  A    between atoms: O1_2  and  C2_3 
REMARK    2  A    between atoms: C15_18  and  C16_19 
ROOT
HETATM    1  C2  UNL     1      22.347   4.329  47.629  1.00  0.00     0.153 C 
HETATM    2  C3  UNL     1      23.661   4.634  48.164  1.00  0.00     0.051 C 
HETATM    3  C4  UNL     1      24.055   4.863  49.547  1.00  0.00     0.079 C 
HETATM    4  C5  UNL     1      25.489   5.409  49.206  1.00  0.00    -0.038 A 
HETATM    5  C6  UNL     1      26.496   4.448  49.046  1.00  0.00     0.008 A 
HETATM    6  C7  UNL     1      27.744   4.825  48.663  1.00  0.00     0.001 A 
HETATM    7  C8  UNL     1      28.060   6.145  48.423  1.00  0.00     0.001 A 
HETATM    8  C9  UNL     1      27.132   7.152  48.559  1.00  0.00     0.013 A 
HETATM    9  C10 UNL     1      25.900   6.761  48.941  1.00  0.00    -0.017 A 
HETATM   10  C11 UNL     1      24.745   7.611  49.207  1.00  0.00     0.001 C 
HETATM   11  C12 UNL     1      24.530   7.744  47.904  1.00  0.00    -0.015 C 
HETATM   12  C13 UNL     1      24.193   7.961  46.503  1.00  0.00     0.163 C 
HETATM   13  N1  UNL     1      24.047   9.433  46.473  1.00  0.00    -0.353 N 
HETATM   14  C14 UNL     1      22.738   9.246  46.917  1.00  0.00     0.249 C 
HETATM   15  O2  UNL     1      21.827  10.020  46.428  1.00  0.00    -0.268 OA
HETATM   16  C15 UNL     1      23.008   8.089  47.877  1.00  0.00     0.033 C 
HETATM   17  C16 UNL     1      22.216   7.203  48.389  1.00  0.00     0.079 A 
HETATM   18  C17 UNL     1      20.793   7.981  48.166  1.00  0.00     0.287 A 
HETATM   19  N2  UNL     1      20.648   7.492  49.482  1.00  0.00     0.004 N 
HETATM   20  C18 UNL     1      21.584   7.447  50.744  1.00  0.00     0.416 C 
HETATM   21  O3  UNL     1      22.374   6.422  50.382  1.00  0.00    -0.331 OA
HETATM   22  C19 UNL     1      23.367   5.680  50.583  1.00  0.00     0.160 C 
HETATM   23  C20 UNL     1      23.125   4.809  51.799  1.00  0.00     0.074 C 
HETATM   24  N3  UNL     1      24.328   6.713  51.175  1.00  0.00    -0.262 NA
HETATM   25  C21 UNL     1      24.387   7.933  50.615  1.00  0.00     0.127 C 
HETATM   26  C22 UNL     1      19.840   6.546  49.630  1.00  0.00     0.160 A 
HETATM   27  C23 UNL     1      18.907   5.709  49.928  1.00  0.00     0.036 A 
HETATM   28  C24 UNL     1      19.078   4.456  49.429  1.00  0.00     0.002 A 
HETATM   29  C25 UNL     1      20.215   4.297  48.703  1.00  0.00     0.008 A 
HETATM   30  C26 UNL     1      21.345   5.150  48.295  1.00  0.00    -0.009 A 
HETATM   31  C27 UNL     1      21.010   6.385  48.858  1.00  0.00     0.211 A 
HETATM   32  H14 UNL     1      24.487  10.389  46.271  1.00  0.00     0.163 HD
ENDROOT
BRANCH   1  33
HETATM   33  O1  UNL     1      22.286   4.511  46.249  1.00  0.00    -0.386 OA
HETATM   34  C1  UNL     1      21.660   3.417  45.627  1.00  0.00     0.202 C 
ENDBRANCH   1  33
TORSDOF 2
ENDMDL
MODEL 8
REMARK VINA RESULT:      -7.5      1.889      5.592
REMARK  2 active torsions:
REMARK  status: ('A' for Active; 'I' for Inactive)
REMARK    1  A    between atoms: O1_2  and  C2_3 
REMARK    2  A    between atoms: C15_18  and  C16_19 
ROOT
HETATM    1  C2  UNL     1      22.202   3.657  47.957  1.00  0.00     0.153 C 
HETATM    2  C3  UNL     1      21.499   3.314  49.181  1.00  0.00     0.051 C 
HETATM    3  C4  UNL     1      20.950   4.199  50.199  1.00  0.00     0.079 C 
HETATM    4  C5  UNL     1      20.675   3.064  51.251  1.00  0.00    -0.038 A 
HETATM    5  C6  UNL     1      19.451   2.391  51.131  1.00  0.00     0.008 A 
HETATM    6  C7  UNL     1      19.170   1.338  51.942  1.00  0.00     0.001 A 
HETATM    7  C8  UNL     1      20.063   0.900  52.897  1.00  0.00     0.001 A 
HETATM    8  C9  UNL     1      21.285   1.505  53.082  1.00  0.00     0.013 A 
HETATM    9  C10 UNL     1      21.547   2.549  52.271  1.00  0.00    -0.017 A 
HETATM   10  C11 UNL     1      22.733   3.398  52.278  1.00  0.00     0.001 C 
HETATM   11  C12 UNL     1      23.422   2.458  51.642  1.00  0.00    -0.015 C 
HETATM   12  C13 UNL     1      24.278   1.507  50.946  1.00  0.00     0.163 C 
HETATM   13  N1  UNL     1      25.467   1.502  51.826  1.00  0.00    -0.353 N 
HETATM   14  C14 UNL     1      25.903   2.631  51.134  1.00  0.00     0.249 C 
HETATM   15  O2  UNL     1      27.168   2.729  50.888  1.00  0.00    -0.268 OA
HETATM   16  C15 UNL     1      24.543   3.306  50.963  1.00  0.00     0.033 C 
HETATM   17  C16 UNL     1      24.143   4.222  50.141  1.00  0.00     0.079 A 
HETATM   18  C17 UNL     1      25.601   4.833  49.718  1.00  0.00     0.287 A 
HETATM   19  N2  UNL     1      24.845   6.008  49.910  1.00  0.00     0.004 N 
HETATM   20  C18 UNL     1      23.831   6.492  51.011  1.00  0.00     0.416 C 
HETATM   21  O3  UNL     1      22.754   5.784  50.628  1.00  0.00    -0.331 OA
HETATM   22  C19 UNL     1      21.571   5.404  50.811  1.00  0.00     0.160 C 
HETATM   23  C20 UNL     1      20.620   6.571  50.646  1.00  0.00     0.074 C 
HETATM   24  N3  UNL     1      21.588   5.280  52.335  1.00  0.00    -0.262 NA
HETATM   25  C21 UNL     1      22.667   4.736  52.926  1.00  0.00     0.127 C 
HETATM   26  C22 UNL     1      24.539   6.640  48.873  1.00  0.00     0.160 A 
HETATM   27  C23 UNL     1      24.332   7.462  47.902  1.00  0.00     0.036 A 
HETATM   28  C24 UNL     1      23.482   7.013  46.940  1.00  0.00     0.002 A 
HETATM   29  C25 UNL     1      22.987   5.770  47.172  1.00  0.00     0.008 A 
HETATM   30  C26 UNL     1      23.136   4.744  48.219  1.00  0.00    -0.009 A 
HETATM   31  C27 UNL     1      24.041   5.341  49.101  1.00  0.00     0.211 A 
HETATM   32  H14 UNL     1      26.006   1.039  52.629  1.00  0.00     0.163 HD
ENDROOT
BRANCH   1  33
HETATM   33  O1  UNL     1      22.869   2.563  47.411  1.00  0.00    -0.386 OA
HETATM   34  C1  UNL     1      22.282   1.357  47.833  1.00  0.00     0.202 C 
ENDBRANCH   1  33
TORSDOF 2
ENDMDL
MODEL 9
REMARK VINA RESULT:      -7.4      1.996      4.035
REMARK  2 active torsions:
REMARK  status: ('A' for Active; 'I' for Inactive)
REMARK    1  A    between atoms: O1_2  and  C2_3 
REMARK    2  A    between atoms: C15_18  and  C16_19 
ROOT
HETATM    1  C2  UNL     1      25.817   3.677  50.631  1.00  0.00     0.153 C 
HETATM    2  C3  UNL     1      25.082   4.924  50.527  1.00  0.00     0.051 C 
HETATM    3  C4  UNL     1      24.182   5.539  51.492  1.00  0.00     0.079 C 
HETATM    4  C5  UNL     1      23.619   6.623  50.503  1.00  0.00    -0.038 A 
HETATM    5  C6  UNL     1      24.360   7.807  50.394  1.00  0.00     0.008 A 
HETATM    6  C7  UNL     1      23.995   8.760  49.497  1.00  0.00     0.001 A 
HETATM    7  C8  UNL     1      22.899   8.600  48.675  1.00  0.00     0.001 A 
HETATM    8  C9  UNL     1      22.116   7.469  48.720  1.00  0.00     0.013 A 
HETATM    9  C10 UNL     1      22.491   6.535  49.616  1.00  0.00    -0.017 A 
HETATM   10  C11 UNL     1      21.824   5.272  49.909  1.00  0.00     0.001 C 
HETATM   11  C12 UNL     1      22.342   4.732  48.812  1.00  0.00    -0.015 C 
HETATM   12  C13 UNL     1      22.851   4.032  47.641  1.00  0.00     0.163 C 
HETATM   13  N1  UNL     1      21.605   3.447  47.098  1.00  0.00    -0.353 N 
HETATM   14  C14 UNL     1      21.787   2.394  47.994  1.00  0.00     0.249 C 
HETATM   15  O2  UNL     1      21.490   1.205  47.586  1.00  0.00    -0.268 OA
HETATM   16  C15 UNL     1      22.311   3.214  49.172  1.00  0.00     0.033 C 
HETATM   17  C16 UNL     1      22.984   2.866  50.221  1.00  0.00     0.079 A 
HETATM   18  C17 UNL     1      22.649   1.263  50.213  1.00  0.00     0.287 A 
HETATM   19  N2  UNL     1      22.497   1.580  51.580  1.00  0.00     0.004 N 
HETATM   20  C18 UNL     1      21.799   2.751  52.363  1.00  0.00     0.416 C 
HETATM   21  O3  UNL     1      22.725   3.707  52.179  1.00  0.00    -0.331 OA
HETATM   22  C19 UNL     1      23.112   4.895  52.301  1.00  0.00     0.160 C 
HETATM   23  C20 UNL     1      23.356   5.214  53.761  1.00  0.00     0.074 C 
HETATM   24  N3  UNL     1      21.777   5.610  52.085  1.00  0.00    -0.262 NA
HETATM   25  C21 UNL     1      20.958   5.168  51.115  1.00  0.00     0.127 C 
HETATM   26  C22 UNL     1      23.392   1.152  52.345  1.00  0.00     0.160 A 
HETATM   27  C23 UNL     1      24.144   0.609  53.240  1.00  0.00     0.036 A 
HETATM   28  C24 UNL     1      25.437   1.029  53.235  1.00  0.00     0.002 A 
HETATM   29  C25 UNL     1      25.715   1.962  52.288  1.00  0.00     0.008 A 
HETATM   30  C26 UNL     1      24.965   2.656  51.226  1.00  0.00    -0.009 A 
HETATM   31  C27 UNL     1      23.688   2.104  51.348  1.00  0.00     0.211 A 
HETATM   32  H14 UNL     1      20.789   3.519  46.407  1.00  0.00     0.163 HD
ENDROOT
BRANCH   1  33
HETATM   33  O1  UNL     1      26.301   3.248  49.397  1.00  0.00    -0.386 OA
HETATM   34  C1  UNL     1      27.134   4.222  48.820  1.00  0.00     0.202 C 
ENDBRANCH   1  33
TORSDOF 2
ENDMDL
