MODEL 1
REMARK VINA RESULT:      -7.7      0.000      0.000
REMARK  4 active torsions:
REMARK  status: ('A' for Active; 'I' for Inactive)
REMARK    1  A    between atoms: C2_2  and  N1_3 
REMARK    2  A    between atoms: N1_3  and  C3_4 
REMARK    3  A    between atoms: C9_10  and  C10_11 
REMARK    4  A    between atoms: C12_13  and  N2_14 
ROOT
HETATM    1  C10 UNL     1      26.009  -0.086  52.625  1.00  0.00     0.068 C 
HETATM    2  C11 UNL     1      26.703  -1.150  52.061  1.00  0.00     0.079 C 
HETATM    3  C12 UNL     1      27.877  -1.618  52.625  1.00  0.00     0.124 C 
HETATM    4  N3  UNL     1      29.118  -1.111  52.726  1.00  0.00    -0.225 NA
HETATM    5  C13 UNL     1      29.710  -0.955  53.903  1.00  0.00     0.236 C 
HETATM    6  N4  UNL     1      29.015  -0.486  54.939  1.00  0.00    -0.235 NA
HETATM    7  C14 UNL     1      28.054   0.447  54.816  1.00  0.00     0.229 C 
HETATM    8  N5  UNL     1      27.559   1.197  53.789  1.00  0.00    -0.268 N 
HETATM    9  C15 UNL     1      28.354   2.401  53.674  1.00  0.00     0.181 C 
HETATM   10  N6  UNL     1      26.557   1.080  52.904  1.00  0.00    -0.176 NA
ENDROOT
BRANCH   1  11
HETATM   11  C9  UNL     1      24.607  -0.416  52.886  1.00  0.00     0.095 C 
HETATM   12  C3  UNL     1      23.606   0.648  52.631  1.00  0.00     0.234 C 
HETATM   13  C4  UNL     1      22.253  -0.033  52.541  1.00  0.00     0.044 C 
HETATM   14  C5  UNL     1      21.961  -0.687  53.859  1.00  0.00     0.006 C 
HETATM   15  C6  UNL     1      20.890   0.145  54.535  1.00  0.00     0.014 C 
HETATM   16  C7  UNL     1      23.149  -0.840  54.740  1.00  0.00    -0.026 C 
HETATM   17  C8  UNL     1      24.426  -0.731  54.374  1.00  0.00    -0.017 C 
BRANCH  12  18
HETATM   18  N1  UNL     1      23.817   1.545  51.551  1.00  0.00     0.088 N 
HETATM   19  H6  UNL     1      24.823   1.567  51.347  1.00  0.00     0.316 HD
BRANCH  18  20
HETATM   20  C2  UNL     1      23.312   2.869  51.719  1.00  0.00     0.265 C 
HETATM   21  C1  UNL     1      23.960   3.421  52.994  1.00  0.00     0.037 C 
ENDBRANCH  18  20
ENDBRANCH  12  18
ENDBRANCH   1  11
BRANCH   3  22
HETATM   22  N2  UNL     1      27.716  -2.922  53.220  1.00  0.00    -0.384 N 
HETATM   23  H18 UNL     1      27.637  -3.244  54.223  1.00  0.00     0.157 HD
HETATM   24  H19 UNL     1      27.672  -3.691  52.487  1.00  0.00     0.157 HD
ENDBRANCH   3  22
TORSDOF 4
ENDMDL
MODEL 2
REMARK VINA RESULT:      -6.8      2.202      5.973
REMARK  4 active torsions:
REMARK  status: ('A' for Active; 'I' for Inactive)
REMARK    1  A    between atoms: C2_2  and  N1_3 
REMARK    2  A    between atoms: N1_3  and  C3_4 
REMARK    3  A    between atoms: C9_10  and  C10_11 
REMARK    4  A    between atoms: C12_13  and  N2_14 
ROOT
HETATM    1  C10 UNL     1      25.051   2.070  51.202  1.00  0.00     0.068 C 
HETATM    2  C11 UNL     1      25.401   2.833  50.094  1.00  0.00     0.079 C 
HETATM    3  C12 UNL     1      25.077   4.176  50.018  1.00  0.00     0.124 C 
HETATM    4  N3  UNL     1      23.916   4.837  49.868  1.00  0.00    -0.225 NA
HETATM    5  C13 UNL     1      23.516   5.747  50.745  1.00  0.00     0.236 C 
HETATM    6  N4  UNL     1      23.665   5.521  52.051  1.00  0.00    -0.235 NA
HETATM    7  C14 UNL     1      23.530   4.302  52.605  1.00  0.00     0.229 C 
HETATM    8  N5  UNL     1      23.175   3.066  52.148  1.00  0.00    -0.268 N 
HETATM    9  C15 UNL     1      21.734   2.948  52.210  1.00  0.00     0.181 C 
HETATM   10  N6  UNL     1      23.823   1.989  51.677  1.00  0.00    -0.176 NA
ENDROOT
BRANCH   1  11
HETATM   11  C9  UNL     1      26.202   1.380  51.786  1.00  0.00     0.095 C 
HETATM   12  C3  UNL     1      25.927   0.427  52.889  1.00  0.00     0.234 C 
HETATM   13  C4  UNL     1      27.153  -0.458  53.021  1.00  0.00     0.044 C 
HETATM   14  C5  UNL     1      28.325   0.404  53.386  1.00  0.00     0.006 C 
HETATM   15  C6  UNL     1      28.637   0.125  54.842  1.00  0.00     0.014 C 
HETATM   16  C7  UNL     1      28.108   1.856  53.159  1.00  0.00    -0.026 C 
HETATM   17  C8  UNL     1      27.142   2.408  52.425  1.00  0.00    -0.017 C 
BRANCH  12  18
HETATM   18  N1  UNL     1      24.729  -0.334  52.857  1.00  0.00     0.088 N 
HETATM   19  H6  UNL     1      24.058   0.154  52.252  1.00  0.00     0.316 HD
BRANCH  18  20
HETATM   20  C2  UNL     1      24.137  -0.637  54.119  1.00  0.00     0.265 C 
HETATM   21  C1  UNL     1      22.622  -0.675  53.888  1.00  0.00     0.037 C 
ENDBRANCH  18  20
ENDBRANCH  12  18
ENDBRANCH   1  11
BRANCH   3  22
HETATM   22  N2  UNL     1      26.237   5.025  50.124  1.00  0.00    -0.384 N 
HETATM   23  H18 UNL     1      26.711   5.488  50.946  1.00  0.00     0.157 HD
HETATM   24  H19 UNL     1      26.684   5.208  49.175  1.00  0.00     0.157 HD
ENDBRANCH   3  22
TORSDOF 4
ENDMDL
MODEL 3
REMARK VINA RESULT:      -6.6      2.058      4.396
REMARK  4 active torsions:
REMARK  status: ('A' for Active; 'I' for Inactive)
REMARK    1  A    between atoms: C2_2  and  N1_3 
REMARK    2  A    between atoms: N1_3  and  C3_4 
REMARK    3  A    between atoms: C9_10  and  C10_11 
REMARK    4  A    between atoms: C12_13  and  N2_14 
ROOT
HETATM    1  C10 UNL     1      23.892   1.804  52.957  1.00  0.00     0.068 C 
HETATM    2  C11 UNL     1      24.942   2.612  53.379  1.00  0.00     0.079 C 
HETATM    3  C12 UNL     1      26.178   2.075  53.690  1.00  0.00     0.124 C 
HETATM    4  N3  UNL     1      26.622   1.302  54.696  1.00  0.00    -0.225 NA
HETATM    5  C13 UNL     1      27.213   0.137  54.468  1.00  0.00     0.236 C 
HETATM    6  N4  UNL     1      26.727  -0.683  53.535  1.00  0.00    -0.235 NA
HETATM    7  C14 UNL     1      25.411  -0.814  53.287  1.00  0.00     0.229 C 
HETATM    8  N5  UNL     1      24.268  -0.314  53.840  1.00  0.00    -0.268 N 
HETATM    9  C15 UNL     1      23.865  -1.181  54.926  1.00  0.00     0.181 C 
HETATM   10  N6  UNL     1      23.472   0.744  53.619  1.00  0.00    -0.176 NA
ENDROOT
BRANCH   1  11
HETATM   11  C9  UNL     1      23.321   2.256  51.687  1.00  0.00     0.095 C 
HETATM   12  C3  UNL     1      22.561   1.257  50.897  1.00  0.00     0.234 C 
HETATM   13  C4  UNL     1      21.723   2.032  49.898  1.00  0.00     0.044 C 
HETATM   14  C5  UNL     1      22.645   2.790  48.990  1.00  0.00     0.006 C 
HETATM   15  C6  UNL     1      22.614   2.087  47.648  1.00  0.00     0.014 C 
HETATM   16  C7  UNL     1      24.037   2.908  49.495  1.00  0.00    -0.026 C 
HETATM   17  C8  UNL     1      24.450   2.679  50.742  1.00  0.00    -0.017 C 
BRANCH  12  18
HETATM   18  N1  UNL     1      21.793   0.279  51.582  1.00  0.00     0.088 N 
HETATM   19  H6  UNL     1      21.971  -0.632  51.141  1.00  0.00     0.316 HD
BRANCH  18  20
HETATM   20  C2  UNL     1      20.391   0.525  51.675  1.00  0.00     0.265 C 
HETATM   21  C1  UNL     1      19.928  -0.102  52.995  1.00  0.00     0.037 C 
ENDBRANCH  18  20
ENDBRANCH  12  18
ENDBRANCH   1  11
BRANCH   3  22
HETATM   22  N2  UNL     1      27.187   2.432  52.723  1.00  0.00    -0.384 N 
HETATM   23  H18 UNL     1      27.171   3.056  51.871  1.00  0.00     0.157 HD
HETATM   24  H19 UNL     1      28.119   1.961  52.929  1.00  0.00     0.157 HD
ENDBRANCH   3  22
TORSDOF 4
ENDMDL
MODEL 4
REMARK VINA RESULT:      -6.6      1.953      2.694
REMARK  4 active torsions:
REMARK  status: ('A' for Active; 'I' for Inactive)
REMARK    1  A    between atoms: C2_2  and  N1_3 
REMARK    2  A    between atoms: N1_3  and  C3_4 
REMARK    3  A    between atoms: C9_10  and  C10_11 
REMARK    4  A    between atoms: C12_13  and  N2_14 
ROOT
HETATM    1  C10 UNL     1      26.579   1.339  51.902  1.00  0.00     0.068 C 
HETATM    2  C11 UNL     1      26.815   0.001  51.606  1.00  0.00     0.079 C 
HETATM    3  C12 UNL     1      27.374  -0.851  52.542  1.00  0.00     0.124 C 
HETATM    4  N3  UNL     1      28.601  -0.952  53.082  1.00  0.00    -0.225 NA
HETATM    5  C13 UNL     1      28.791  -0.896  54.393  1.00  0.00     0.236 C 
HETATM    6  N4  UNL     1      28.120  -0.005  55.124  1.00  0.00    -0.235 NA
HETATM    7  C14 UNL     1      27.819   1.230  54.680  1.00  0.00     0.229 C 
HETATM    8  N5  UNL     1      28.098   1.948  53.554  1.00  0.00    -0.268 N 
HETATM    9  C15 UNL     1      29.363   2.626  53.742  1.00  0.00     0.181 C 
HETATM   10  N6  UNL     1      27.500   2.159  52.371  1.00  0.00    -0.176 NA
ENDROOT
BRANCH   1  11
HETATM   11  C9  UNL     1      25.191   1.726  51.648  1.00  0.00     0.095 C 
HETATM   12  C3  UNL     1      24.919   3.172  51.457  1.00  0.00     0.234 C 
HETATM   13  C4  UNL     1      23.560   3.279  50.791  1.00  0.00     0.044 C 
HETATM   14  C5  UNL     1      22.531   2.695  51.712  1.00  0.00     0.006 C 
HETATM   15  C6  UNL     1      21.740   3.857  52.279  1.00  0.00     0.014 C 
HETATM   16  C7  UNL     1      23.094   1.855  52.801  1.00  0.00    -0.026 C 
HETATM   17  C8  UNL     1      24.328   1.355  52.859  1.00  0.00    -0.017 C 
BRANCH  12  18
HETATM   18  N1  UNL     1      25.891   3.973  50.803  1.00  0.00     0.088 N 
HETATM   19  H6  UNL     1      25.806   4.932  51.160  1.00  0.00     0.316 HD
BRANCH  18  20
HETATM   20  C2  UNL     1      25.862   3.966  49.376  1.00  0.00     0.265 C 
HETATM   21  C1  UNL     1      26.763   5.119  48.920  1.00  0.00     0.037 C 
ENDBRANCH  18  20
ENDBRANCH  12  18
ENDBRANCH   1  11
BRANCH   3  22
HETATM   22  N2  UNL     1      26.429  -1.826  53.026  1.00  0.00    -0.384 N 
HETATM   23  H18 UNL     1      25.399  -1.975  52.843  1.00  0.00     0.157 HD
HETATM   24  H19 UNL     1      26.880  -2.518  53.698  1.00  0.00     0.157 HD
ENDBRANCH   3  22
TORSDOF 4
ENDMDL
MODEL 5
REMARK VINA RESULT:      -6.5      2.878      6.312
REMARK  4 active torsions:
REMARK  status: ('A' for Active; 'I' for Inactive)
REMARK    1  A    between atoms: C2_2  and  N1_3 
REMARK    2  A    between atoms: N1_3  and  C3_4 
REMARK    3  A    between atoms: C9_10  and  C10_11 
REMARK    4  A    between atoms: C12_13  and  N2_14 
ROOT
HETATM    1  C10 UNL     1      24.109   2.266  50.977  1.00  0.00     0.068 C 
HETATM    2  C11 UNL     1      24.449   3.603  51.145  1.00  0.00     0.079 C 
HETATM    3  C12 UNL     1      23.527   4.523  51.614  1.00  0.00     0.124 C 
HETATM    4  N3  UNL     1      22.418   5.069  51.085  1.00  0.00    -0.225 NA
HETATM    5  C13 UNL     1      21.243   4.979  51.692  1.00  0.00     0.236 C 
HETATM    6  N4  UNL     1      20.875   3.830  52.260  1.00  0.00    -0.235 NA
HETATM    7  C14 UNL     1      21.186   2.625  51.748  1.00  0.00     0.229 C 
HETATM    8  N5  UNL     1      21.813   2.187  50.618  1.00  0.00    -0.268 N 
HETATM    9  C15 UNL     1      20.831   2.073  49.561  1.00  0.00     0.181 C 
HETATM   10  N6  UNL     1      23.069   1.856  50.278  1.00  0.00    -0.176 NA
ENDROOT
BRANCH   1  11
HETATM   11  C9  UNL     1      25.029   1.369  51.679  1.00  0.00     0.095 C 
HETATM   12  C3  UNL     1      24.681   1.004  53.074  1.00  0.00     0.234 C 
HETATM   13  C4  UNL     1      25.494  -0.229  53.422  1.00  0.00     0.044 C 
HETATM   14  C5  UNL     1      26.950   0.124  53.346  1.00  0.00     0.006 C 
HETATM   15  C6  UNL     1      27.459   0.196  54.772  1.00  0.00     0.014 C 
HETATM   16  C7  UNL     1      27.234   1.388  52.618  1.00  0.00    -0.026 C 
HETATM   17  C8  UNL     1      26.397   2.044  51.814  1.00  0.00    -0.017 C 
BRANCH  12  18
HETATM   18  N1  UNL     1      23.314   0.850  53.424  1.00  0.00     0.088 N 
HETATM   19  H6  UNL     1      23.181   1.236  54.366  1.00  0.00     0.316 HD
BRANCH  18  20
HETATM   20  C2  UNL     1      22.785  -0.473  53.345  1.00  0.00     0.265 C 
HETATM   21  C1  UNL     1      21.939  -0.677  54.607  1.00  0.00     0.037 C 
ENDBRANCH  18  20
ENDBRANCH  12  18
ENDBRANCH   1  11
BRANCH   3  22
HETATM   22  N2  UNL     1      23.839   4.978  52.946  1.00  0.00    -0.384 N 
HETATM   23  H18 UNL     1      23.685   4.553  53.900  1.00  0.00     0.157 HD
HETATM   24  H19 UNL     1      24.314   5.931  52.939  1.00  0.00     0.157 HD
ENDBRANCH   3  22
TORSDOF 4
ENDMDL
MODEL 6
REMARK VINA RESULT:      -6.4      2.388      6.118
REMARK  4 active torsions:
REMARK  status: ('A' for Active; 'I' for Inactive)
REMARK    1  A    between atoms: C2_2  and  N1_3 
REMARK    2  A    between atoms: N1_3  and  C3_4 
REMARK    3  A    between atoms: C9_10  and  C10_11 
REMARK    4  A    between atoms: C12_13  and  N2_14 
ROOT
HETATM    1  C10 UNL     1      23.415   2.279  51.850  1.00  0.00     0.068 C 
HETATM    2  C11 UNL     1      24.002   3.450  52.316  1.00  0.00     0.079 C 
HETATM    3  C12 UNL     1      23.560   4.691  51.890  1.00  0.00     0.124 C 
HETATM    4  N3  UNL     1      23.635   5.344  50.718  1.00  0.00    -0.225 NA
HETATM    5  C13 UNL     1      22.548   5.780  50.095  1.00  0.00     0.236 C 
HETATM    6  N4  UNL     1      21.461   5.010  50.039  1.00  0.00    -0.235 NA
HETATM    7  C14 UNL     1      21.517   3.670  49.920  1.00  0.00     0.229 C 
HETATM    8  N5  UNL     1      22.514   2.754  49.760  1.00  0.00    -0.268 N 
HETATM    9  C15 UNL     1      22.787   2.612  48.346  1.00  0.00     0.181 C 
HETATM   10  N6  UNL     1      23.265   1.993  50.572  1.00  0.00    -0.176 NA
ENDROOT
BRANCH   1  11
HETATM   11  C9  UNL     1      22.970   1.411  52.942  1.00  0.00     0.095 C 
HETATM   12  C3  UNL     1      23.508   0.029  52.965  1.00  0.00     0.234 C 
HETATM   13  C4  UNL     1      23.277  -0.509  54.364  1.00  0.00     0.044 C 
HETATM   14  C5  UNL     1      21.799  -0.544  54.623  1.00  0.00     0.006 C 
HETATM   15  C6  UNL     1      21.381  -2.000  54.580  1.00  0.00     0.014 C 
HETATM   16  C7  UNL     1      20.995   0.267  53.672  1.00  0.00    -0.026 C 
HETATM   17  C8  UNL     1      21.455   1.206  52.845  1.00  0.00    -0.017 C 
BRANCH  12  18
HETATM   18  N1  UNL     1      24.839  -0.198  52.527  1.00  0.00     0.088 N 
HETATM   19  H6  UNL     1      24.806  -0.848  51.733  1.00  0.00     0.316 HD
BRANCH  18  20
HETATM   20  C2  UNL     1      25.761  -0.658  53.514  1.00  0.00     0.265 C 
HETATM   21  C1  UNL     1      26.902  -1.345  52.753  1.00  0.00     0.037 C 
ENDBRANCH  18  20
ENDBRANCH  12  18
ENDBRANCH   1  11
BRANCH   3  22
HETATM   22  N2  UNL     1      22.882   5.417  52.935  1.00  0.00    -0.384 N 
HETATM   23  H18 UNL     1      23.232   5.946  53.780  1.00  0.00     0.157 HD
HETATM   24  H19 UNL     1      21.825   5.400  52.810  1.00  0.00     0.157 HD
ENDBRANCH   3  22
TORSDOF 4
ENDMDL
MODEL 7
REMARK VINA RESULT:      -6.3      3.385      6.669
REMARK  4 active torsions:
REMARK  status: ('A' for Active; 'I' for Inactive)
REMARK    1  A    between atoms: C2_2  and  N1_3 
REMARK    2  A    between atoms: N1_3  and  C3_4 
REMARK    3  A    between atoms: C9_10  and  C10_11 
REMARK    4  A    between atoms: C12_13  and  N2_14 
ROOT
HETATM    1  C10 UNL     1      23.521   3.955  52.168  1.00  0.00     0.068 C 
HETATM    2  C11 UNL     1      22.259   3.407  51.971  1.00  0.00     0.079 C 
HETATM    3  C12 UNL     1      21.574   3.595  50.784  1.00  0.00     0.124 C 
HETATM    4  N3  UNL     1      20.989   4.663  50.215  1.00  0.00    -0.225 NA
HETATM    5  C13 UNL     1      21.329   5.078  49.003  1.00  0.00     0.236 C 
HETATM    6  N4  UNL     1      22.613   5.107  48.646  1.00  0.00    -0.235 NA
HETATM    7  C14 UNL     1      23.605   5.419  49.501  1.00  0.00     0.229 C 
HETATM    8  N5  UNL     1      23.669   5.829  50.800  1.00  0.00    -0.268 N 
HETATM    9  C15 UNL     1      23.563   7.272  50.833  1.00  0.00     0.181 C 
HETATM   10  N6  UNL     1      23.799   5.232  51.995  1.00  0.00    -0.176 NA
ENDROOT
BRANCH   1  11
HETATM   11  C9  UNL     1      24.504   2.950  52.574  1.00  0.00     0.095 C 
HETATM   12  C3  UNL     1      25.602   2.659  51.620  1.00  0.00     0.234 C 
HETATM   13  C4  UNL     1      26.693   1.957  52.406  1.00  0.00     0.044 C 
HETATM   14  C5  UNL     1      26.142   0.669  52.940  1.00  0.00     0.006 C 
HETATM   15  C6  UNL     1      26.765  -0.446  52.125  1.00  0.00     0.014 C 
HETATM   16  C7  UNL     1      24.658   0.582  52.911  1.00  0.00    -0.026 C 
HETATM   17  C8  UNL     1      23.808   1.595  52.745  1.00  0.00    -0.017 C 
BRANCH  12  18
HETATM   18  N1  UNL     1      26.121   3.716  50.827  1.00  0.00     0.088 N 
HETATM   19  H6  UNL     1      25.405   4.449  50.765  1.00  0.00     0.316 HD
BRANCH  18  20
HETATM   20  C2  UNL     1      26.588   3.362  49.526  1.00  0.00     0.265 C 
HETATM   21  C1  UNL     1      27.227   4.625  48.937  1.00  0.00     0.037 C 
ENDBRANCH  18  20
ENDBRANCH  12  18
ENDBRANCH   1  11
BRANCH   3  22
HETATM   22  N2  UNL     1      21.478   2.381  50.010  1.00  0.00    -0.384 N 
HETATM   23  H18 UNL     1      22.098   1.529  49.940  1.00  0.00     0.157 HD
HETATM   24  H19 UNL     1      20.607   2.367  49.399  1.00  0.00     0.157 HD
ENDBRANCH   3  22
TORSDOF 4
ENDMDL
MODEL 8
REMARK VINA RESULT:      -6.3      8.366     10.443
REMARK  4 active torsions:
REMARK  status: ('A' for Active; 'I' for Inactive)
REMARK    1  A    between atoms: C2_2  and  N1_3 
REMARK    2  A    between atoms: N1_3  and  C3_4 
REMARK    3  A    between atoms: C9_10  and  C10_11 
REMARK    4  A    between atoms: C12_13  and  N2_14 
ROOT
HETATM    1  C10 UNL     1      31.641   5.424  48.002  1.00  0.00     0.068 C 
HETATM    2  C11 UNL     1      32.832   5.661  48.678  1.00  0.00     0.079 C 
HETATM    3  C12 UNL     1      34.047   5.263  48.148  1.00  0.00     0.124 C 
HETATM    4  N3  UNL     1      34.619   4.062  47.952  1.00  0.00    -0.225 NA
HETATM    5  C13 UNL     1      35.027   3.675  46.751  1.00  0.00     0.236 C 
HETATM    6  N4  UNL     1      34.270   3.922  45.681  1.00  0.00    -0.235 NA
HETATM    7  C14 UNL     1      32.925   3.887  45.710  1.00  0.00     0.229 C 
HETATM    8  N5  UNL     1      31.986   3.567  46.646  1.00  0.00    -0.268 N 
HETATM    9  C15 UNL     1      31.744   2.142  46.588  1.00  0.00     0.181 C 
HETATM   10  N6  UNL     1      31.271   4.237  47.564  1.00  0.00    -0.176 NA
ENDROOT
BRANCH   1  11
HETATM   11  C9  UNL     1      30.856   6.646  47.820  1.00  0.00     0.095 C 
HETATM   12  C3  UNL     1      29.379   6.504  47.822  1.00  0.00     0.234 C 
HETATM   13  C4  UNL     1      28.805   7.888  48.062  1.00  0.00     0.044 C 
HETATM   14  C5  UNL     1      29.219   8.779  46.928  1.00  0.00     0.006 C 
HETATM   15  C6  UNL     1      27.986   9.008  46.078  1.00  0.00     0.014 C 
HETATM   16  C7  UNL     1      30.337   8.242  46.109  1.00  0.00    -0.026 C 
HETATM   17  C8  UNL     1      31.158   7.246  46.443  1.00  0.00    -0.017 C 
BRANCH  12  18
HETATM   18  N1  UNL     1      28.783   5.532  48.668  1.00  0.00     0.088 N 
HETATM   19  H6  UNL     1      29.227   4.626  48.473  1.00  0.00     0.316 HD
BRANCH  18  20
HETATM   20  C2  UNL     1      27.363   5.419  48.601  1.00  0.00     0.265 C 
HETATM   21  C1  UNL     1      27.003   4.084  49.263  1.00  0.00     0.037 C 
ENDBRANCH  18  20
ENDBRANCH  12  18
ENDBRANCH   1  11
BRANCH   3  22
HETATM   22  N2  UNL     1      34.852   6.382  47.727  1.00  0.00    -0.384 N 
HETATM   23  H18 UNL     1      35.449   7.073  48.258  1.00  0.00     0.157 HD
HETATM   24  H19 UNL     1      34.821   6.520  46.672  1.00  0.00     0.157 HD
ENDBRANCH   3  22
TORSDOF 4
ENDMDL
MODEL 9
REMARK VINA RESULT:      -6.3      4.192      6.173
REMARK  4 active torsions:
REMARK  status: ('A' for Active; 'I' for Inactive)
REMARK    1  A    between atoms: C2_2  and  N1_3 
REMARK    2  A    between atoms: N1_3  and  C3_4 
REMARK    3  A    between atoms: C9_10  and  C10_11 
REMARK    4  A    between atoms: C12_13  and  N2_14 
ROOT
HETATM    1  C10 UNL     1      23.536   2.548  50.812  1.00  0.00     0.068 C 
HETATM    2  C11 UNL     1      24.340   3.408  51.552  1.00  0.00     0.079 C 
HETATM    3  C12 UNL     1      23.973   4.725  51.765  1.00  0.00     0.124 C 
HETATM    4  N3  UNL     1      23.889   5.801  50.963  1.00  0.00    -0.225 NA
HETATM    5  C13 UNL     1      22.760   6.483  50.832  1.00  0.00     0.236 C 
HETATM    6  N4  UNL     1      21.600   5.835  50.729  1.00  0.00    -0.235 NA
HETATM    7  C14 UNL     1      21.470   4.662  50.083  1.00  0.00     0.229 C 
HETATM    8  N5  UNL     1      22.299   3.865  49.348  1.00  0.00    -0.268 N 
HETATM    9  C15 UNL     1      22.264   4.309  47.971  1.00  0.00     0.181 C 
HETATM   10  N6  UNL     1      23.100   2.817  49.597  1.00  0.00    -0.176 NA
ENDROOT
BRANCH   1  11
HETATM   11  C9  UNL     1      23.218   1.321  51.543  1.00  0.00     0.095 C 
HETATM   12  C3  UNL     1      21.951   1.306  52.315  1.00  0.00     0.234 C 
HETATM   13  C4  UNL     1      21.628  -0.149  52.602  1.00  0.00     0.044 C 
HETATM   14  C5  UNL     1      22.730  -0.724  53.441  1.00  0.00     0.006 C 
HETATM   15  C6  UNL     1      22.176  -0.889  54.841  1.00  0.00     0.014 C 
HETATM   16  C7  UNL     1      23.974   0.090  53.456  1.00  0.00    -0.026 C 
HETATM   17  C8  UNL     1      24.290   1.068  52.608  1.00  0.00    -0.017 C 
BRANCH  12  18
HETATM   18  N1  UNL     1      20.826   2.004  51.803  1.00  0.00     0.088 N 
HETATM   19  H6  UNL     1      20.507   2.664  52.522  1.00  0.00     0.316 HD
BRANCH  18  20
HETATM   20  C2  UNL     1      19.739   1.203  51.341  1.00  0.00     0.265 C 
HETATM   21  C1  UNL     1      19.765   1.281  49.810  1.00  0.00     0.037 C 
ENDBRANCH  18  20
ENDBRANCH  12  18
ENDBRANCH   1  11
BRANCH   3  22
HETATM   22  N2  UNL     1      23.609   4.975  53.138  1.00  0.00    -0.384 N 
HETATM   23  H18 UNL     1      22.682   4.967  53.644  1.00  0.00     0.157 HD
HETATM   24  H19 UNL     1      24.456   5.215  53.736  1.00  0.00     0.157 HD
ENDBRANCH   3  22
TORSDOF 4
ENDMDL
