MODEL 1
REMARK VINA RESULT:      -6.8      0.000      0.000
REMARK  11 active torsions:
REMARK  status: ('A' for Active; 'I' for Inactive)
REMARK    1  A    between atoms: C2_2  and  C3_3 
REMARK    2  A    between atoms: C2_2  and  C14_21 
REMARK    3  A    between atoms: C3_3  and  C4_4 
REMARK    4  A    between atoms: C4_4  and  N1_5 
REMARK       I    between atoms: N1_5  and  C5_6 
REMARK    5  A    between atoms: C5_6  and  C6_8 
REMARK    6  A    between atoms: C6_8  and  C7_9 
REMARK    7  A    between atoms: C6_8  and  P1_18 
REMARK    8  A    between atoms: C8_10  and  C9_11 
REMARK    9  A    between atoms: C9_11  and  O2_12 
REMARK   10  A    between atoms: O2_12  and  C10_13 
REMARK   11  A    between atoms: P1_18  and  N4_19 
ROOT
HETATM    1  C6  UNL     1      24.927   3.087  51.266  1.00  0.00     0.057 C 
ENDROOT
BRANCH   1   2
HETATM    2  C5  UNL     1      26.191   2.617  51.807  1.00  0.00     0.257 C 
HETATM    3  N1  UNL     1      26.635   2.433  53.123  1.00  0.00    -0.333 N 
HETATM    4  H5  UNL     1      25.951   2.671  53.866  1.00  0.00     0.168 HD
HETATM    5  O1  UNL     1      27.149   2.279  51.030  1.00  0.00    -0.267 OA
BRANCH   3   6
HETATM    6  C4  UNL     1      27.956   1.948  53.332  1.00  0.00     0.092 C 
BRANCH   6   7
HETATM    7  C3  UNL     1      28.209   0.814  53.990  1.00  0.00     0.032 C 
BRANCH   7   8
HETATM    8  C2  UNL     1      28.449  -0.495  53.429  1.00  0.00     0.039 C 
HETATM    9  C1  UNL     1      29.648  -1.057  53.337  1.00  0.00     0.028 C 
BRANCH   8  10
HETATM   10  C14 UNL     1      27.209  -1.176  52.951  1.00  0.00     0.416 C 
HETATM   11  F1  UNL     1      27.405  -2.540  52.826  1.00  0.00    -0.166 F 
HETATM   12  F2  UNL     1      26.239  -0.972  53.918  1.00  0.00    -0.166 F 
HETATM   13  F3  UNL     1      26.801  -0.663  51.726  1.00  0.00    -0.166 F 
ENDBRANCH   8  10
ENDBRANCH   7   8
ENDBRANCH   6   7
ENDBRANCH   3   6
ENDBRANCH   1   2
BRANCH   1  14
HETATM   14  C7  UNL     1      23.585   2.696  51.594  1.00  0.00     0.017 C 
HETATM   15  C8  UNL     1      22.710   1.716  51.551  1.00  0.00     0.000 C 
BRANCH  15  16
HETATM   16  C9  UNL     1      21.305   1.454  51.948  1.00  0.00     0.198 C 
BRANCH  16  17
HETATM   17  O2  UNL     1      21.321   0.898  53.230  1.00  0.00    -0.356 OA
BRANCH  17  18
HETATM   18  C10 UNL     1      21.815  -0.394  53.224  1.00  0.00     0.287 A 
HETATM   19  C11 UNL     1      20.843  -1.228  53.974  1.00  0.00     0.146 A 
HETATM   20  N2  UNL     1      21.432  -1.719  55.034  1.00  0.00    -0.254 NA
HETATM   21  C12 UNL     1      22.787  -1.251  55.048  1.00  0.00     0.229 A 
HETATM   22  N3  UNL     1      23.010  -0.503  54.028  1.00  0.00    -0.246 NA
ENDBRANCH  17  18
ENDBRANCH  16  17
ENDBRANCH  15  16
ENDBRANCH   1  14
BRANCH   1  23
HETATM   23  P1  UNL     1      25.060   4.269  50.072  1.00  0.00     0.044 P 
BRANCH  23  24
HETATM   24  N4  UNL     1      26.702   4.780  49.654  1.00  0.00    -0.295 NA
HETATM   25  C13 UNL     1      26.735   5.902  48.744  1.00  0.00     0.113 C 
HETATM   26  H13 UNL     1      27.340   4.878  50.453  1.00  0.00     0.126 HD
ENDBRANCH  23  24
ENDBRANCH   1  23
TORSDOF 11
ENDMDL
MODEL 2
REMARK VINA RESULT:      -6.4      3.527      7.494
REMARK  11 active torsions:
REMARK  status: ('A' for Active; 'I' for Inactive)
REMARK    1  A    between atoms: C2_2  and  C3_3 
REMARK    2  A    between atoms: C2_2  and  C14_21 
REMARK    3  A    between atoms: C3_3  and  C4_4 
REMARK    4  A    between atoms: C4_4  and  N1_5 
REMARK       I    between atoms: N1_5  and  C5_6 
REMARK    5  A    between atoms: C5_6  and  C6_8 
REMARK    6  A    between atoms: C6_8  and  C7_9 
REMARK    7  A    between atoms: C6_8  and  P1_18 
REMARK    8  A    between atoms: C8_10  and  C9_11 
REMARK    9  A    between atoms: C9_11  and  O2_12 
REMARK   10  A    between atoms: O2_12  and  C10_13 
REMARK   11  A    between atoms: P1_18  and  N4_19 
ROOT
HETATM    1  C6  UNL     1      25.997   4.979  49.648  1.00  0.00     0.057 C 
ENDROOT
BRANCH   1   2
HETATM    2  C5  UNL     1      26.268   3.635  50.129  1.00  0.00     0.257 C 
HETATM    3  N1  UNL     1      26.236   3.077  51.414  1.00  0.00    -0.333 N 
HETATM    4  H5  UNL     1      25.973   3.725  52.180  1.00  0.00     0.168 HD
HETATM    5  O1  UNL     1      26.607   2.706  49.318  1.00  0.00    -0.267 OA
BRANCH   3   6
HETATM    6  C4  UNL     1      26.560   1.699  51.564  1.00  0.00     0.092 C 
BRANCH   6   7
HETATM    7  C3  UNL     1      27.212   1.227  52.628  1.00  0.00     0.032 C 
BRANCH   7   8
HETATM    8  C2  UNL     1      27.533  -0.150  52.925  1.00  0.00     0.039 C 
HETATM    9  C1  UNL     1      26.775  -1.183  52.574  1.00  0.00     0.028 C 
BRANCH   8  10
HETATM   10  C14 UNL     1      28.813  -0.317  53.674  1.00  0.00     0.416 C 
HETATM   11  F1  UNL     1      29.436  -1.506  53.341  1.00  0.00    -0.166 F 
HETATM   12  F2  UNL     1      29.644   0.722  53.287  1.00  0.00    -0.166 F 
HETATM   13  F3  UNL     1      28.593  -0.289  55.045  1.00  0.00    -0.166 F 
ENDBRANCH   8  10
ENDBRANCH   7   8
ENDBRANCH   6   7
ENDBRANCH   3   6
ENDBRANCH   1   2
BRANCH   1  14
HETATM   14  C7  UNL     1      26.782   5.824  48.793  1.00  0.00     0.017 C 
HETATM   15  C8  UNL     1      27.998   6.091  48.370  1.00  0.00     0.000 C 
BRANCH  15  16
HETATM   16  C9  UNL     1      28.677   7.034  47.447  1.00  0.00     0.198 C 
BRANCH  16  17
HETATM   17  O2  UNL     1      29.999   6.606  47.298  1.00  0.00    -0.356 OA
BRANCH  17  18
HETATM   18  C10 UNL     1      30.530   6.150  48.491  1.00  0.00     0.287 A 
HETATM   19  C11 UNL     1      31.495   7.180  48.952  1.00  0.00     0.146 A 
HETATM   20  N2  UNL     1      32.693   6.655  48.988  1.00  0.00    -0.254 NA
HETATM   21  C12 UNL     1      32.593   5.288  48.566  1.00  0.00     0.229 A 
HETATM   22  N3  UNL     1      31.374   4.997  48.284  1.00  0.00    -0.246 NA
ENDBRANCH  17  18
ENDBRANCH  16  17
ENDBRANCH  15  16
ENDBRANCH   1  14
BRANCH   1  23
HETATM   23  P1  UNL     1      24.540   5.643  50.174  1.00  0.00     0.044 P 
BRANCH  23  24
HETATM   24  N4  UNL     1      24.254   5.622  51.921  1.00  0.00    -0.295 NA
HETATM   25  C13 UNL     1      23.127   4.804  52.304  1.00  0.00     0.113 C 
HETATM   26  H13 UNL     1      25.092   5.464  52.493  1.00  0.00     0.126 HD
ENDBRANCH  23  24
ENDBRANCH   1  23
TORSDOF 11
ENDMDL
MODEL 3
REMARK VINA RESULT:      -6.3      2.063      2.764
REMARK  11 active torsions:
REMARK  status: ('A' for Active; 'I' for Inactive)
REMARK    1  A    between atoms: C2_2  and  C3_3 
REMARK    2  A    between atoms: C2_2  and  C14_21 
REMARK    3  A    between atoms: C3_3  and  C4_4 
REMARK    4  A    between atoms: C4_4  and  N1_5 
REMARK       I    between atoms: N1_5  and  C5_6 
REMARK    5  A    between atoms: C5_6  and  C6_8 
REMARK    6  A    between atoms: C6_8  and  C7_9 
REMARK    7  A    between atoms: C6_8  and  P1_18 
REMARK    8  A    between atoms: C8_10  and  C9_11 
REMARK    9  A    between atoms: C9_11  and  O2_12 
REMARK   10  A    between atoms: O2_12  and  C10_13 
REMARK   11  A    between atoms: P1_18  and  N4_19 
ROOT
HETATM    1  C6  UNL     1      24.764   2.751  51.462  1.00  0.00     0.057 C 
ENDROOT
BRANCH   1   2
HETATM    2  C5  UNL     1      26.088   2.506  52.007  1.00  0.00     0.257 C 
HETATM    3  N1  UNL     1      26.541   2.328  53.320  1.00  0.00    -0.333 N 
HETATM    4  H5  UNL     1      25.813   2.375  54.058  1.00  0.00     0.168 HD
HETATM    5  O1  UNL     1      27.105   2.417  51.237  1.00  0.00    -0.267 OA
BRANCH   3   6
HETATM    6  C4  UNL     1      27.930   2.101  53.535  1.00  0.00     0.092 C 
BRANCH   6   7
HETATM    7  C3  UNL     1      28.393   1.006  54.141  1.00  0.00     0.032 C 
BRANCH   7   8
HETATM    8  C2  UNL     1      28.717  -0.265  53.537  1.00  0.00     0.039 C 
HETATM    9  C1  UNL     1      29.953  -0.730  53.399  1.00  0.00     0.028 C 
BRANCH   8  10
HETATM   10  C14 UNL     1      27.520  -1.027  53.073  1.00  0.00     0.416 C 
HETATM   11  F1  UNL     1      26.449  -0.847  53.930  1.00  0.00    -0.166 F 
HETATM   12  F2  UNL     1      27.168  -0.509  51.837  1.00  0.00    -0.166 F 
HETATM   13  F3  UNL     1      27.801  -2.384  52.978  1.00  0.00    -0.166 F 
ENDBRANCH   8  10
ENDBRANCH   7   8
ENDBRANCH   6   7
ENDBRANCH   3   6
ENDBRANCH   1   2
BRANCH   1  14
HETATM   14  C7  UNL     1      23.510   2.131  51.782  1.00  0.00     0.017 C 
HETATM   15  C8  UNL     1      22.939   1.056  52.282  1.00  0.00     0.000 C 
BRANCH  15  16
HETATM   16  C9  UNL     1      21.575   0.543  52.559  1.00  0.00     0.198 C 
BRANCH  16  17
HETATM   17  O2  UNL     1      20.713   1.086  51.603  1.00  0.00    -0.356 OA
BRANCH  17  18
HETATM   18  C10 UNL     1      19.640   1.735  52.187  1.00  0.00     0.287 A 
HETATM   19  C11 UNL     1      18.509   1.640  51.231  1.00  0.00     0.146 A 
HETATM   20  N2  UNL     1      18.173   2.845  50.848  1.00  0.00    -0.254 NA
HETATM   21  C12 UNL     1      19.037   3.780  51.508  1.00  0.00     0.229 A 
HETATM   22  N3  UNL     1      19.867   3.159  52.266  1.00  0.00    -0.246 NA
ENDBRANCH  17  18
ENDBRANCH  16  17
ENDBRANCH  15  16
ENDBRANCH   1  14
BRANCH   1  23
HETATM   23  P1  UNL     1      24.693   3.945  50.274  1.00  0.00     0.044 P 
BRANCH  23  24
HETATM   24  N4  UNL     1      26.057   5.072  50.212  1.00  0.00    -0.295 NA
HETATM   25  C13 UNL     1      26.751   5.055  48.945  1.00  0.00     0.113 C 
HETATM   26  H13 UNL     1      25.852   6.017  50.557  1.00  0.00     0.126 HD
ENDBRANCH  23  24
ENDBRANCH   1  23
TORSDOF 11
ENDMDL
MODEL 4
REMARK VINA RESULT:      -6.3      4.321      8.365
REMARK  11 active torsions:
REMARK  status: ('A' for Active; 'I' for Inactive)
REMARK    1  A    between atoms: C2_2  and  C3_3 
REMARK    2  A    between atoms: C2_2  and  C14_21 
REMARK    3  A    between atoms: C3_3  and  C4_4 
REMARK    4  A    between atoms: C4_4  and  N1_5 
REMARK       I    between atoms: N1_5  and  C5_6 
REMARK    5  A    between atoms: C5_6  and  C6_8 
REMARK    6  A    between atoms: C6_8  and  C7_9 
REMARK    7  A    between atoms: C6_8  and  P1_18 
REMARK    8  A    between atoms: C8_10  and  C9_11 
REMARK    9  A    between atoms: C9_11  and  O2_12 
REMARK   10  A    between atoms: O2_12  and  C10_13 
REMARK   11  A    between atoms: P1_18  and  N4_19 
ROOT
HETATM    1  C6  UNL     1      27.108   5.291  48.986  1.00  0.00     0.057 C 
ENDROOT
BRANCH   1   2
HETATM    2  C5  UNL     1      26.444   4.194  49.669  1.00  0.00     0.257 C 
HETATM    3  N1  UNL     1      26.785   3.462  50.814  1.00  0.00    -0.333 N 
HETATM    4  H5  UNL     1      27.672   3.736  51.276  1.00  0.00     0.168 HD
HETATM    5  O1  UNL     1      25.336   3.728  49.234  1.00  0.00    -0.267 OA
BRANCH   3   6
HETATM    6  C4  UNL     1      25.910   2.424  51.241  1.00  0.00     0.092 C 
BRANCH   6   7
HETATM    7  C3  UNL     1      26.038   1.819  52.424  1.00  0.00     0.032 C 
BRANCH   7   8
HETATM    8  C2  UNL     1      26.934   0.741  52.769  1.00  0.00     0.039 C 
HETATM    9  C1  UNL     1      26.812  -0.502  52.317  1.00  0.00     0.028 C 
BRANCH   8  10
HETATM   10  C14 UNL     1      28.032   1.149  53.694  1.00  0.00     0.416 C 
HETATM   11  F1  UNL     1      29.272   0.816  53.178  1.00  0.00    -0.166 F 
HETATM   12  F2  UNL     1      27.973   2.529  53.803  1.00  0.00    -0.166 F 
HETATM   13  F3  UNL     1      27.883   0.548  54.937  1.00  0.00    -0.166 F 
ENDBRANCH   8  10
ENDBRANCH   7   8
ENDBRANCH   6   7
ENDBRANCH   3   6
ENDBRANCH   1   2
BRANCH   1  14
HETATM   14  C7  UNL     1      28.375   5.321  48.311  1.00  0.00     0.017 C 
HETATM   15  C8  UNL     1      29.649   5.621  48.432  1.00  0.00     0.000 C 
BRANCH  15  16
HETATM   16  C9  UNL     1      30.885   5.595  47.611  1.00  0.00     0.198 C 
BRANCH  16  17
HETATM   17  O2  UNL     1      31.976   5.560  48.485  1.00  0.00    -0.356 OA
BRANCH  17  18
HETATM   18  C10 UNL     1      33.175   5.735  47.817  1.00  0.00     0.287 A 
HETATM   19  C11 UNL     1      33.725   4.380  47.561  1.00  0.00     0.146 A 
HETATM   20  N2  UNL     1      34.862   4.255  48.196  1.00  0.00    -0.254 NA
HETATM   21  C12 UNL     1      35.123   5.483  48.888  1.00  0.00     0.229 A 
HETATM   22  N3  UNL     1      34.174   6.323  48.678  1.00  0.00    -0.246 NA
ENDBRANCH  17  18
ENDBRANCH  16  17
ENDBRANCH  15  16
ENDBRANCH   1  14
BRANCH   1  23
HETATM   23  P1  UNL     1      26.259   6.747  48.986  1.00  0.00     0.044 P 
BRANCH  23  24
HETATM   24  N4  UNL     1      26.473   7.779  50.409  1.00  0.00    -0.295 NA
HETATM   25  C13 UNL     1      27.152   9.020  50.114  1.00  0.00     0.113 C 
HETATM   26  H13 UNL     1      25.632   7.896  50.987  1.00  0.00     0.126 HD
ENDBRANCH  23  24
ENDBRANCH   1  23
TORSDOF 11
ENDMDL
MODEL 5
REMARK VINA RESULT:      -6.2      3.554      7.952
REMARK  11 active torsions:
REMARK  status: ('A' for Active; 'I' for Inactive)
REMARK    1  A    between atoms: C2_2  and  C3_3 
REMARK    2  A    between atoms: C2_2  and  C14_21 
REMARK    3  A    between atoms: C3_3  and  C4_4 
REMARK    4  A    between atoms: C4_4  and  N1_5 
REMARK       I    between atoms: N1_5  and  C5_6 
REMARK    5  A    between atoms: C5_6  and  C6_8 
REMARK    6  A    between atoms: C6_8  and  C7_9 
REMARK    7  A    between atoms: C6_8  and  P1_18 
REMARK    8  A    between atoms: C8_10  and  C9_11 
REMARK    9  A    between atoms: C9_11  and  O2_12 
REMARK   10  A    between atoms: O2_12  and  C10_13 
REMARK   11  A    between atoms: P1_18  and  N4_19 
ROOT
HETATM    1  C6  UNL     1      26.065   5.068  49.632  1.00  0.00     0.057 C 
ENDROOT
BRANCH   1   2
HETATM    2  C5  UNL     1      26.425   3.743  50.107  1.00  0.00     0.257 C 
HETATM    3  N1  UNL     1      26.382   3.163  51.381  1.00  0.00    -0.333 N 
HETATM    4  H5  UNL     1      26.031   3.774  52.143  1.00  0.00     0.168 HD
HETATM    5  O1  UNL     1      26.875   2.859  49.300  1.00  0.00    -0.267 OA
BRANCH   3   6
HETATM    6  C4  UNL     1      26.811   1.814  51.528  1.00  0.00     0.092 C 
BRANCH   6   7
HETATM    7  C3  UNL     1      27.313   1.340  52.670  1.00  0.00     0.032 C 
BRANCH   7   8
HETATM    8  C2  UNL     1      27.534  -0.041  53.029  1.00  0.00     0.039 C 
HETATM    9  C1  UNL     1      26.701  -1.031  52.729  1.00  0.00     0.028 C 
BRANCH   8  10
HETATM   10  C14 UNL     1      28.803  -0.267  53.781  1.00  0.00     0.416 C 
HETATM   11  F1  UNL     1      29.314  -1.529  53.532  1.00  0.00    -0.166 F 
HETATM   12  F2  UNL     1      29.718   0.662  53.313  1.00  0.00    -0.166 F 
HETATM   13  F3  UNL     1      28.605  -0.120  55.147  1.00  0.00    -0.166 F 
ENDBRANCH   8  10
ENDBRANCH   7   8
ENDBRANCH   6   7
ENDBRANCH   3   6
ENDBRANCH   1   2
BRANCH   1  14
HETATM   14  C7  UNL     1      26.790   5.966  48.778  1.00  0.00     0.017 C 
HETATM   15  C8  UNL     1      27.972   6.252  48.276  1.00  0.00     0.000 C 
BRANCH  15  16
HETATM   16  C9  UNL     1      28.587   7.252  47.370  1.00  0.00     0.198 C 
BRANCH  16  17
HETATM   17  O2  UNL     1      29.712   7.775  48.014  1.00  0.00    -0.356 OA
BRANCH  17  18
HETATM   18  C10 UNL     1      29.372   8.755  48.929  1.00  0.00     0.287 A 
HETATM   19  C11 UNL     1      28.726   9.850  48.164  1.00  0.00     0.146 A 
HETATM   20  N2  UNL     1      29.452  10.934  48.276  1.00  0.00    -0.254 NA
HETATM   21  C12 UNL     1      30.586  10.627  49.098  1.00  0.00     0.229 A 
HETATM   22  N3  UNL     1      30.547   9.398  49.470  1.00  0.00    -0.246 NA
ENDBRANCH  17  18
ENDBRANCH  16  17
ENDBRANCH  15  16
ENDBRANCH   1  14
BRANCH   1  23
HETATM   23  P1  UNL     1      24.569   5.634  50.165  1.00  0.00     0.044 P 
BRANCH  23  24
HETATM   24  N4  UNL     1      24.311   5.639  51.916  1.00  0.00    -0.295 NA
HETATM   25  C13 UNL     1      23.237   4.769  52.336  1.00  0.00     0.113 C 
HETATM   26  H13 UNL     1      25.166   5.540  52.478  1.00  0.00     0.126 HD
ENDBRANCH  23  24
ENDBRANCH   1  23
TORSDOF 11
ENDMDL
MODEL 6
REMARK VINA RESULT:      -6.1      3.505      7.566
REMARK  11 active torsions:
REMARK  status: ('A' for Active; 'I' for Inactive)
REMARK    1  A    between atoms: C2_2  and  C3_3 
REMARK    2  A    between atoms: C2_2  and  C14_21 
REMARK    3  A    between atoms: C3_3  and  C4_4 
REMARK    4  A    between atoms: C4_4  and  N1_5 
REMARK       I    between atoms: N1_5  and  C5_6 
REMARK    5  A    between atoms: C5_6  and  C6_8 
REMARK    6  A    between atoms: C6_8  and  C7_9 
REMARK    7  A    between atoms: C6_8  and  P1_18 
REMARK    8  A    between atoms: C8_10  and  C9_11 
REMARK    9  A    between atoms: C9_11  and  O2_12 
REMARK   10  A    between atoms: O2_12  and  C10_13 
REMARK   11  A    between atoms: P1_18  and  N4_19 
ROOT
HETATM    1  C6  UNL     1      25.588   4.318  49.697  1.00  0.00     0.057 C 
ENDROOT
BRANCH   1   2
HETATM    2  C5  UNL     1      25.764   3.293  50.712  1.00  0.00     0.257 C 
HETATM    3  N1  UNL     1      26.845   2.976  51.544  1.00  0.00    -0.333 N 
HETATM    4  H5  UNL     1      27.688   3.570  51.433  1.00  0.00     0.168 HD
HETATM    5  O1  UNL     1      24.822   2.471  50.980  1.00  0.00    -0.267 OA
BRANCH   3   6
HETATM    6  C4  UNL     1      26.706   1.890  52.454  1.00  0.00     0.092 C 
BRANCH   6   7
HETATM    7  C3  UNL     1      27.749   1.184  52.893  1.00  0.00     0.032 C 
BRANCH   7   8
HETATM    8  C2  UNL     1      27.850  -0.251  53.020  1.00  0.00     0.039 C 
HETATM    9  C1  UNL     1      26.932  -1.104  52.580  1.00  0.00     0.028 C 
BRANCH   8  10
HETATM   10  C14 UNL     1      29.099  -0.704  53.702  1.00  0.00     0.416 C 
HETATM   11  F1  UNL     1      30.211  -0.063  53.185  1.00  0.00    -0.166 F 
HETATM   12  F2  UNL     1      28.982  -0.346  55.035  1.00  0.00    -0.166 F 
HETATM   13  F3  UNL     1      29.266  -2.077  53.571  1.00  0.00    -0.166 F 
ENDBRANCH   8  10
ENDBRANCH   7   8
ENDBRANCH   6   7
ENDBRANCH   3   6
ENDBRANCH   1   2
BRANCH   1  14
HETATM   14  C7  UNL     1      26.553   5.202  49.108  1.00  0.00     0.017 C 
HETATM   15  C8  UNL     1      27.745   5.278  48.557  1.00  0.00     0.000 C 
BRANCH  15  16
HETATM   16  C9  UNL     1      28.642   6.306  47.973  1.00  0.00     0.198 C 
BRANCH  16  17
HETATM   17  O2  UNL     1      28.396   7.511  48.636  1.00  0.00    -0.356 OA
BRANCH  17  18
HETATM   18  C10 UNL     1      29.207   8.530  48.166  1.00  0.00     0.287 A 
HETATM   19  C11 UNL     1      30.540   7.932  47.905  1.00  0.00     0.146 A 
HETATM   20  N2  UNL     1      31.421   8.494  48.692  1.00  0.00    -0.254 NA
HETATM   21  C12 UNL     1      30.743   9.468  49.495  1.00  0.00     0.229 A 
HETATM   22  N3  UNL     1      29.492   9.494  49.203  1.00  0.00    -0.246 NA
ENDBRANCH  17  18
ENDBRANCH  16  17
ENDBRANCH  15  16
ENDBRANCH   1  14
BRANCH   1  23
HETATM   23  P1  UNL     1      24.011   4.493  49.128  1.00  0.00     0.044 P 
BRANCH  23  24
HETATM   24  N4  UNL     1      22.753   4.704  50.355  1.00  0.00    -0.295 NA
HETATM   25  C13 UNL     1      23.038   5.773  51.284  1.00  0.00     0.113 C 
HETATM   26  H13 UNL     1      21.793   4.719  49.991  1.00  0.00     0.126 HD
ENDBRANCH  23  24
ENDBRANCH   1  23
TORSDOF 11
ENDMDL
MODEL 7
REMARK VINA RESULT:      -6.0      4.211      6.208
REMARK  11 active torsions:
REMARK  status: ('A' for Active; 'I' for Inactive)
REMARK    1  A    between atoms: C2_2  and  C3_3 
REMARK    2  A    between atoms: C2_2  and  C14_21 
REMARK    3  A    between atoms: C3_3  and  C4_4 
REMARK    4  A    between atoms: C4_4  and  N1_5 
REMARK       I    between atoms: N1_5  and  C5_6 
REMARK    5  A    between atoms: C5_6  and  C6_8 
REMARK    6  A    between atoms: C6_8  and  C7_9 
REMARK    7  A    between atoms: C6_8  and  P1_18 
REMARK    8  A    between atoms: C8_10  and  C9_11 
REMARK    9  A    between atoms: C9_11  and  O2_12 
REMARK   10  A    between atoms: O2_12  and  C10_13 
REMARK   11  A    between atoms: P1_18  and  N4_19 
ROOT
HETATM    1  C6  UNL     1      24.897   3.984  51.031  1.00  0.00     0.057 C 
ENDROOT
BRANCH   1   2
HETATM    2  C5  UNL     1      25.678   4.533  49.937  1.00  0.00     0.257 C 
HETATM    3  N1  UNL     1      27.059   4.690  49.760  1.00  0.00    -0.333 N 
HETATM    4  H5  UNL     1      27.654   4.359  50.543  1.00  0.00     0.168 HD
HETATM    5  O1  UNL     1      25.105   4.987  48.888  1.00  0.00    -0.267 OA
BRANCH   3   6
HETATM    6  C4  UNL     1      27.526   5.276  48.550  1.00  0.00     0.092 C 
BRANCH   6   7
HETATM    7  C3  UNL     1      28.806   5.226  48.175  1.00  0.00     0.032 C 
BRANCH   7   8
HETATM    8  C2  UNL     1      29.781   6.290  48.225  1.00  0.00     0.039 C 
HETATM    9  C1  UNL     1      29.474   7.582  48.206  1.00  0.00     0.028 C 
BRANCH   8  10
HETATM   10  C14 UNL     1      31.191   5.805  48.301  1.00  0.00     0.416 C 
HETATM   11  F1  UNL     1      31.581   5.607  49.613  1.00  0.00    -0.166 F 
HETATM   12  F2  UNL     1      31.230   4.580  47.656  1.00  0.00    -0.166 F 
HETATM   13  F3  UNL     1      32.059   6.708  47.701  1.00  0.00    -0.166 F 
ENDBRANCH   8  10
ENDBRANCH   7   8
ENDBRANCH   6   7
ENDBRANCH   3   6
ENDBRANCH   1   2
BRANCH   1  14
HETATM   14  C7  UNL     1      25.010   2.716  51.696  1.00  0.00     0.017 C 
HETATM   15  C8  UNL     1      24.341   1.692  52.179  1.00  0.00     0.000 C 
BRANCH  15  16
HETATM   16  C9  UNL     1      24.611   0.405  52.864  1.00  0.00     0.198 C 
BRANCH  16  17
HETATM   17  O2  UNL     1      25.495   0.659  53.916  1.00  0.00    -0.356 OA
BRANCH  17  18
HETATM   18  C10 UNL     1      26.808   0.711  53.483  1.00  0.00     0.287 A 
HETATM   19  C11 UNL     1      27.224  -0.687  53.206  1.00  0.00     0.146 A 
HETATM   20  N2  UNL     1      28.202  -1.008  54.014  1.00  0.00    -0.254 NA
HETATM   21  C12 UNL     1      28.482   0.124  54.848  1.00  0.00     0.229 A 
HETATM   22  N3  UNL     1      27.698   1.098  54.553  1.00  0.00    -0.246 NA
ENDBRANCH  17  18
ENDBRANCH  16  17
ENDBRANCH  15  16
ENDBRANCH   1  14
BRANCH   1  23
HETATM   23  P1  UNL     1      23.672   4.989  51.606  1.00  0.00     0.044 P 
BRANCH  23  24
HETATM   24  N4  UNL     1      24.147   6.642  52.027  1.00  0.00    -0.295 NA
HETATM   25  C13 UNL     1      23.856   7.600  50.985  1.00  0.00     0.113 C 
HETATM   26  H13 UNL     1      23.856   6.950  52.963  1.00  0.00     0.126 HD
ENDBRANCH  23  24
ENDBRANCH   1  23
TORSDOF 11
ENDMDL
MODEL 8
REMARK VINA RESULT:      -6.0      3.869      7.882
REMARK  11 active torsions:
REMARK  status: ('A' for Active; 'I' for Inactive)
REMARK    1  A    between atoms: C2_2  and  C3_3 
REMARK    2  A    between atoms: C2_2  and  C14_21 
REMARK    3  A    between atoms: C3_3  and  C4_4 
REMARK    4  A    between atoms: C4_4  and  N1_5 
REMARK       I    between atoms: N1_5  and  C5_6 
REMARK    5  A    between atoms: C5_6  and  C6_8 
REMARK    6  A    between atoms: C6_8  and  C7_9 
REMARK    7  A    between atoms: C6_8  and  P1_18 
REMARK    8  A    between atoms: C8_10  and  C9_11 
REMARK    9  A    between atoms: C9_11  and  O2_12 
REMARK   10  A    between atoms: O2_12  and  C10_13 
REMARK   11  A    between atoms: P1_18  and  N4_19 
ROOT
HETATM    1  C6  UNL     1      26.907   5.052  49.018  1.00  0.00     0.057 C 
ENDROOT
BRANCH   1   2
HETATM    2  C5  UNL     1      26.292   3.974  49.775  1.00  0.00     0.257 C 
HETATM    3  N1  UNL     1      26.654   3.349  50.975  1.00  0.00    -0.333 N 
HETATM    4  H5  UNL     1      27.518   3.704  51.425  1.00  0.00     0.168 HD
HETATM    5  O1  UNL     1      25.217   3.418  49.363  1.00  0.00    -0.267 OA
BRANCH   3   6
HETATM    6  C4  UNL     1      25.828   2.300  51.469  1.00  0.00     0.092 C 
BRANCH   6   7
HETATM    7  C3  UNL     1      26.316   1.112  51.831  1.00  0.00     0.032 C 
BRANCH   7   8
HETATM    8  C2  UNL     1      26.358   0.545  53.158  1.00  0.00     0.039 C 
HETATM    9  C1  UNL     1      27.058   1.055  54.165  1.00  0.00     0.028 C 
BRANCH   8  10
HETATM   10  C14 UNL     1      25.531  -0.689  53.307  1.00  0.00     0.416 C 
HETATM   11  F1  UNL     1      26.094  -1.754  52.626  1.00  0.00    -0.166 F 
HETATM   12  F2  UNL     1      25.519  -1.005  54.655  1.00  0.00    -0.166 F 
HETATM   13  F3  UNL     1      24.241  -0.482  52.836  1.00  0.00    -0.166 F 
ENDBRANCH   8  10
ENDBRANCH   7   8
ENDBRANCH   6   7
ENDBRANCH   3   6
ENDBRANCH   1   2
BRANCH   1  14
HETATM   14  C7  UNL     1      28.215   5.132  48.431  1.00  0.00     0.017 C 
HETATM   15  C8  UNL     1      29.334   5.820  48.391  1.00  0.00     0.000 C 
BRANCH  15  16
HETATM   16  C9  UNL     1      30.650   5.774  47.706  1.00  0.00     0.198 C 
BRANCH  16  17
HETATM   17  O2  UNL     1      31.442   4.832  48.368  1.00  0.00    -0.356 OA
BRANCH  17  18
HETATM   18  C10 UNL     1      32.691   4.711  47.784  1.00  0.00     0.287 A 
HETATM   19  C11 UNL     1      32.509   4.943  46.330  1.00  0.00     0.146 A 
HETATM   20  N2  UNL     1      32.835   3.854  45.681  1.00  0.00    -0.254 NA
HETATM   21  C12 UNL     1      33.240   2.868  46.640  1.00  0.00     0.229 A 
HETATM   22  N3  UNL     1      33.161   3.346  47.830  1.00  0.00    -0.246 NA
ENDBRANCH  17  18
ENDBRANCH  16  17
ENDBRANCH  15  16
ENDBRANCH   1  14
BRANCH   1  23
HETATM   23  P1  UNL     1      25.936   6.412  48.799  1.00  0.00     0.044 P 
BRANCH  23  24
HETATM   24  N4  UNL     1      24.248   6.108  48.361  1.00  0.00    -0.295 NA
HETATM   25  C13 UNL     1      23.318   6.441  49.415  1.00  0.00     0.113 C 
HETATM   26  H13 UNL     1      23.971   6.464  47.438  1.00  0.00     0.126 HD
ENDBRANCH  23  24
ENDBRANCH   1  23
TORSDOF 11
ENDMDL
MODEL 9
REMARK VINA RESULT:      -6.0      4.487      6.847
REMARK  11 active torsions:
REMARK  status: ('A' for Active; 'I' for Inactive)
REMARK    1  A    between atoms: C2_2  and  C3_3 
REMARK    2  A    between atoms: C2_2  and  C14_21 
REMARK    3  A    between atoms: C3_3  and  C4_4 
REMARK    4  A    between atoms: C4_4  and  N1_5 
REMARK       I    between atoms: N1_5  and  C5_6 
REMARK    5  A    between atoms: C5_6  and  C6_8 
REMARK    6  A    between atoms: C6_8  and  C7_9 
REMARK    7  A    between atoms: C6_8  and  P1_18 
REMARK    8  A    between atoms: C8_10  and  C9_11 
REMARK    9  A    between atoms: C9_11  and  O2_12 
REMARK   10  A    between atoms: O2_12  and  C10_13 
REMARK   11  A    between atoms: P1_18  and  N4_19 
ROOT
HETATM    1  C6  UNL     1      24.645   3.215  51.714  1.00  0.00     0.057 C 
ENDROOT
BRANCH   1   2
HETATM    2  C5  UNL     1      25.212   3.792  50.507  1.00  0.00     0.257 C 
HETATM    3  N1  UNL     1      26.485   4.300  50.222  1.00  0.00    -0.333 N 
HETATM    4  H5  UNL     1      27.168   4.269  51.003  1.00  0.00     0.168 HD
HETATM    5  O1  UNL     1      24.508   3.907  49.446  1.00  0.00    -0.267 OA
BRANCH   3   6
HETATM    6  C4  UNL     1      26.738   4.807  48.916  1.00  0.00     0.092 C 
BRANCH   6   7
HETATM    7  C3  UNL     1      27.278   6.009  48.704  1.00  0.00     0.032 C 
BRANCH   7   8
HETATM    8  C2  UNL     1      26.598   7.226  48.331  1.00  0.00     0.039 C 
HETATM    9  C1  UNL     1      26.781   7.856  47.176  1.00  0.00     0.028 C 
BRANCH   8  10
HETATM   10  C14 UNL     1      25.654   7.727  49.373  1.00  0.00     0.416 C 
HETATM   11  F1  UNL     1      26.177   7.559  50.643  1.00  0.00    -0.166 F 
HETATM   12  F2  UNL     1      25.498   9.086  49.154  1.00  0.00    -0.166 F 
HETATM   13  F3  UNL     1      24.433   7.070  49.295  1.00  0.00    -0.166 F 
ENDBRANCH   8  10
ENDBRANCH   7   8
ENDBRANCH   6   7
ENDBRANCH   3   6
ENDBRANCH   1   2
BRANCH   1  14
HETATM   14  C7  UNL     1      25.238   2.328  52.674  1.00  0.00     0.017 C 
HETATM   15  C8  UNL     1      25.162   1.137  53.227  1.00  0.00     0.000 C 
BRANCH  15  16
HETATM   16  C9  UNL     1      25.877   0.331  54.247  1.00  0.00     0.198 C 
BRANCH  16  17
HETATM   17  O2  UNL     1      27.013   1.047  54.634  1.00  0.00    -0.356 OA
BRANCH  17  18
HETATM   18  C10 UNL     1      28.071   0.207  54.938  1.00  0.00     0.287 A 
HETATM   19  C11 UNL     1      29.305   0.887  54.471  1.00  0.00     0.146 A 
HETATM   20  N2  UNL     1      29.864   0.160  53.538  1.00  0.00    -0.254 NA
HETATM   21  C12 UNL     1      29.057  -1.007  53.338  1.00  0.00     0.229 A 
HETATM   22  N3  UNL     1      28.042  -0.987  54.125  1.00  0.00    -0.246 NA
ENDBRANCH  17  18
ENDBRANCH  16  17
ENDBRANCH  15  16
ENDBRANCH   1  14
BRANCH   1  23
HETATM   23  P1  UNL     1      23.050   3.657  52.034  1.00  0.00     0.044 P 
BRANCH  23  24
HETATM   24  N4  UNL     1      22.749   5.384  52.282  1.00  0.00    -0.295 NA
HETATM   25  C13 UNL     1      21.960   5.982  51.230  1.00  0.00     0.113 C 
HETATM   26  H13 UNL     1      22.435   5.636  53.227  1.00  0.00     0.126 HD
ENDBRANCH  23  24
ENDBRANCH   1  23
TORSDOF 11
ENDMDL
