MODEL 1
REMARK VINA RESULT:      -7.1      0.000      0.000
REMARK  5 active torsions:
REMARK  status: ('A' for Active; 'I' for Inactive)
REMARK    1  A    between atoms: C2_2  and  C3_3 
REMARK    2  A    between atoms: C2_2  and  O1_19 
REMARK    3  A    between atoms: C3_3  and  C4_4 
REMARK    4  A    between atoms: C7_8  and  N2_9 
REMARK    5  A    between atoms: C8_10  and  C9_11 
ROOT
HETATM    1  C4  UNL     1      22.889   0.204  52.508  1.00  0.00     0.017 C 
HETATM    2  N1  UNL     1      24.103   0.270  52.889  1.00  0.00    -0.287 NA
HETATM    3  C5  UNL     1      25.019   1.280  52.471  1.00  0.00     0.155 C 
HETATM    4  C6  UNL     1      25.380   2.156  53.651  1.00  0.00     0.041 C 
HETATM    5  C7  UNL     1      24.518   2.129  51.390  1.00  0.00     0.055 C 
HETATM    6  C15 UNL     1      23.252   2.073  50.983  1.00  0.00     0.008 C 
HETATM    7  C16 UNL     1      22.242   1.147  51.587  1.00  0.00     0.083 C 
ENDROOT
BRANCH   5   8
HETATM    8  N2  UNL     1      25.388   3.030  50.761  1.00  0.00    -0.263 NA
HETATM    9  C8  UNL     1      24.999   3.840  49.836  1.00  0.00     0.128 C 
BRANCH   9  10
HETATM   10  C9  UNL     1      25.926   4.743  49.222  1.00  0.00    -0.019 A 
HETATM   11  C10 UNL     1      25.517   5.998  48.822  1.00  0.00     0.013 A 
HETATM   12  C11 UNL     1      26.457   6.835  48.232  1.00  0.00     0.001 A 
HETATM   13  C12 UNL     1      27.770   6.461  48.035  1.00  0.00     0.000 A 
HETATM   14  C13 UNL     1      28.199   5.209  48.429  1.00  0.00     0.001 A 
HETATM   15  C14 UNL     1      27.247   4.380  49.018  1.00  0.00     0.013 A 
ENDBRANCH   9  10
ENDBRANCH   5   8
BRANCH   1  16
HETATM   16  C3  UNL     1      22.032  -0.920  53.030  1.00  0.00     0.118 C 
BRANCH  16  17
HETATM   17  C2  UNL     1      21.530  -0.613  54.377  1.00  0.00     0.041 C 
HETATM   18  C1  UNL     1      20.756   0.366  54.818  1.00  0.00     0.046 C 
BRANCH  17  19
HETATM   19  O1  UNL     1      22.086  -1.647  55.138  1.00  0.00    -0.361 OA
HETATM   20  C17 UNL     1      23.348  -1.483  55.758  1.00  0.00     0.209 C 
ENDBRANCH  17  19
ENDBRANCH  16  17
ENDBRANCH   1  16
TORSDOF 5
ENDMDL
MODEL 2
REMARK VINA RESULT:      -7.0      1.679      2.795
REMARK  5 active torsions:
REMARK  status: ('A' for Active; 'I' for Inactive)
REMARK    1  A    between atoms: C2_2  and  C3_3 
REMARK    2  A    between atoms: C2_2  and  O1_19 
REMARK    3  A    between atoms: C3_3  and  C4_4 
REMARK    4  A    between atoms: C7_8  and  N2_9 
REMARK    5  A    between atoms: C8_10  and  C9_11 
ROOT
HETATM    1  C4  UNL     1      25.155   0.475  52.569  1.00  0.00     0.017 C 
HETATM    2  N1  UNL     1      24.273   1.385  52.437  1.00  0.00    -0.287 NA
HETATM    3  C5  UNL     1      24.432   2.542  51.619  1.00  0.00     0.155 C 
HETATM    4  C6  UNL     1      23.467   2.477  50.456  1.00  0.00     0.041 C 
HETATM    5  C7  UNL     1      25.787   2.721  51.097  1.00  0.00     0.055 C 
HETATM    6  C15 UNL     1      26.719   1.779  51.224  1.00  0.00     0.008 C 
HETATM    7  C16 UNL     1      26.465   0.470  51.906  1.00  0.00     0.083 C 
ENDROOT
BRANCH   5   8
HETATM    8  N2  UNL     1      26.122   3.914  50.442  1.00  0.00    -0.263 NA
HETATM    9  C8  UNL     1      26.821   3.939  49.358  1.00  0.00     0.128 C 
BRANCH   9  10
HETATM   10  C9  UNL     1      27.138   5.184  48.725  1.00  0.00    -0.019 A 
HETATM   11  C10 UNL     1      28.433   5.460  48.338  1.00  0.00     0.013 A 
HETATM   12  C11 UNL     1      28.686   6.683  47.727  1.00  0.00     0.001 A 
HETATM   13  C12 UNL     1      27.701   7.620  47.497  1.00  0.00     0.000 A 
HETATM   14  C13 UNL     1      26.398   7.362  47.876  1.00  0.00     0.001 A 
HETATM   15  C14 UNL     1      26.158   6.133  48.488  1.00  0.00     0.013 A 
ENDBRANCH   9  10
ENDBRANCH   5   8
BRANCH   1  16
HETATM   16  C3  UNL     1      24.852  -0.695  53.468  1.00  0.00     0.118 C 
BRANCH  16  17
HETATM   17  C2  UNL     1      25.495  -0.528  54.779  1.00  0.00     0.041 C 
HETATM   18  C1  UNL     1      26.517   0.222  55.161  1.00  0.00     0.046 C 
BRANCH  17  19
HETATM   19  O1  UNL     1      24.743  -1.390  55.584  1.00  0.00    -0.361 OA
HETATM   20  C17 UNL     1      23.328  -1.372  55.529  1.00  0.00     0.209 C 
ENDBRANCH  17  19
ENDBRANCH  16  17
ENDBRANCH   1  16
TORSDOF 5
ENDMDL
MODEL 3
REMARK VINA RESULT:      -7.0      4.378      5.956
REMARK  5 active torsions:
REMARK  status: ('A' for Active; 'I' for Inactive)
REMARK    1  A    between atoms: C2_2  and  C3_3 
REMARK    2  A    between atoms: C2_2  and  O1_19 
REMARK    3  A    between atoms: C3_3  and  C4_4 
REMARK    4  A    between atoms: C7_8  and  N2_9 
REMARK    5  A    between atoms: C8_10  and  C9_11 
ROOT
HETATM    1  C4  UNL     1      21.034   1.092  52.593  1.00  0.00     0.017 C 
HETATM    2  N1  UNL     1      21.112  -0.094  53.055  1.00  0.00    -0.287 NA
HETATM    3  C5  UNL     1      22.329  -0.717  53.460  1.00  0.00     0.155 C 
HETATM    4  C6  UNL     1      22.313  -0.934  54.957  1.00  0.00     0.041 C 
HETATM    5  C7  UNL     1      23.531   0.036  53.105  1.00  0.00     0.055 C 
HETATM    6  C15 UNL     1      23.467   1.277  52.625  1.00  0.00     0.008 C 
HETATM    7  C16 UNL     1      22.173   1.999  52.406  1.00  0.00     0.083 C 
ENDROOT
BRANCH   5   8
HETATM    8  N2  UNL     1      24.790  -0.555  53.274  1.00  0.00    -0.263 NA
HETATM    9  C8  UNL     1      25.880   0.001  52.863  1.00  0.00     0.128 C 
BRANCH   9  10
HETATM   10  C9  UNL     1      27.144  -0.643  53.058  1.00  0.00    -0.019 A 
HETATM   11  C10 UNL     1      27.301  -1.979  52.753  1.00  0.00     0.013 A 
HETATM   12  C11 UNL     1      28.550  -2.555  52.961  1.00  0.00     0.001 A 
HETATM   13  C12 UNL     1      29.624  -1.847  53.457  1.00  0.00     0.000 A 
HETATM   14  C13 UNL     1      29.487  -0.509  53.769  1.00  0.00     0.001 A 
HETATM   15  C14 UNL     1      28.231   0.056  53.555  1.00  0.00     0.013 A 
ENDBRANCH   9  10
ENDBRANCH   5   8
BRANCH   1  16
HETATM   16  C3  UNL     1      19.680   1.624  52.204  1.00  0.00     0.118 C 
BRANCH  16  17
HETATM   17  C2  UNL     1      19.014   0.719  51.256  1.00  0.00     0.041 C 
HETATM   18  C1  UNL     1      18.025  -0.145  51.422  1.00  0.00     0.046 C 
BRANCH  17  19
HETATM   19  O1  UNL     1      19.700   0.988  50.067  1.00  0.00    -0.361 OA
HETATM   20  C17 UNL     1      19.392   2.142  49.307  1.00  0.00     0.209 C 
ENDBRANCH  17  19
ENDBRANCH  16  17
ENDBRANCH   1  16
TORSDOF 5
ENDMDL
MODEL 4
REMARK VINA RESULT:      -6.9      3.943      6.852
REMARK  5 active torsions:
REMARK  status: ('A' for Active; 'I' for Inactive)
REMARK    1  A    between atoms: C2_2  and  C3_3 
REMARK    2  A    between atoms: C2_2  and  O1_19 
REMARK    3  A    between atoms: C3_3  and  C4_4 
REMARK    4  A    between atoms: C7_8  and  N2_9 
REMARK    5  A    between atoms: C8_10  and  C9_11 
ROOT
HETATM    1  C4  UNL     1      26.377   0.325  54.331  1.00  0.00     0.017 C 
HETATM    2  N1  UNL     1      26.223   1.235  53.451  1.00  0.00    -0.287 NA
HETATM    3  C5  UNL     1      24.996   1.492  52.771  1.00  0.00     0.155 C 
HETATM    4  C6  UNL     1      24.461   2.845  53.188  1.00  0.00     0.041 C 
HETATM    5  C7  UNL     1      23.962   0.484  53.005  1.00  0.00     0.055 C 
HETATM    6  C15 UNL     1      24.107  -0.471  53.923  1.00  0.00     0.008 C 
HETATM    7  C16 UNL     1      25.327  -0.595  54.783  1.00  0.00     0.083 C 
ENDROOT
BRANCH   5   8
HETATM    8  N2  UNL     1      22.783   0.517  52.249  1.00  0.00    -0.263 NA
HETATM    9  C8  UNL     1      21.618   0.325  52.769  1.00  0.00     0.128 C 
BRANCH   9  10
HETATM   10  C9  UNL     1      20.442   0.368  51.955  1.00  0.00    -0.019 A 
HETATM   11  C10 UNL     1      20.460   1.013  50.735  1.00  0.00     0.013 A 
HETATM   12  C11 UNL     1      19.290   1.025  49.984  1.00  0.00     0.001 A 
HETATM   13  C12 UNL     1      18.125   0.422  50.408  1.00  0.00     0.000 A 
HETATM   14  C13 UNL     1      18.086  -0.229  51.625  1.00  0.00     0.001 A 
HETATM   15  C14 UNL     1      19.265  -0.233  52.368  1.00  0.00     0.013 A 
ENDBRANCH   9  10
ENDBRANCH   5   8
BRANCH   1  16
HETATM   16  C3  UNL     1      27.732   0.165  54.969  1.00  0.00     0.118 C 
BRANCH  16  17
HETATM   17  C2  UNL     1      28.704  -0.374  54.006  1.00  0.00     0.041 C 
HETATM   18  C1  UNL     1      29.806   0.150  53.493  1.00  0.00     0.046 C 
BRANCH  17  19
HETATM   19  O1  UNL     1      28.174  -1.640  53.736  1.00  0.00    -0.361 OA
HETATM   20  C17 UNL     1      28.951  -2.614  53.063  1.00  0.00     0.209 C 
ENDBRANCH  17  19
ENDBRANCH  16  17
ENDBRANCH   1  16
TORSDOF 5
ENDMDL
MODEL 5
REMARK VINA RESULT:      -6.9      4.079      7.633
REMARK  5 active torsions:
REMARK  status: ('A' for Active; 'I' for Inactive)
REMARK    1  A    between atoms: C2_2  and  C3_3 
REMARK    2  A    between atoms: C2_2  and  O1_19 
REMARK    3  A    between atoms: C3_3  and  C4_4 
REMARK    4  A    between atoms: C7_8  and  N2_9 
REMARK    5  A    between atoms: C8_10  and  C9_11 
ROOT
HETATM    1  C4  UNL     1      25.074   0.339  53.286  1.00  0.00     0.017 C 
HETATM    2  N1  UNL     1      24.640   1.043  52.316  1.00  0.00    -0.287 NA
HETATM    3  C5  UNL     1      23.272   1.098  51.916  1.00  0.00     0.155 C 
HETATM    4  C6  UNL     1      22.720   2.480  52.191  1.00  0.00     0.041 C 
HETATM    5  C7  UNL     1      22.418   0.110  52.574  1.00  0.00     0.055 C 
HETATM    6  C15 UNL     1      22.856  -0.631  53.590  1.00  0.00     0.008 C 
HETATM    7  C16 UNL     1      24.245  -0.520  54.140  1.00  0.00     0.083 C 
ENDROOT
BRANCH   5   8
HETATM    8  N2  UNL     1      21.101  -0.067  52.131  1.00  0.00    -0.263 NA
HETATM    9  C8  UNL     1      20.113  -0.243  52.942  1.00  0.00     0.128 C 
BRANCH   9  10
HETATM   10  C9  UNL     1      18.783  -0.420  52.441  1.00  0.00    -0.019 A 
HETATM   11  C10 UNL     1      17.874  -1.193  53.132  1.00  0.00     0.013 A 
HETATM   12  C11 UNL     1      16.596  -1.331  52.602  1.00  0.00     0.001 A 
HETATM   13  C12 UNL     1      16.209  -0.731  51.422  1.00  0.00     0.000 A 
HETATM   14  C13 UNL     1      17.104   0.047  50.715  1.00  0.00     0.001 A 
HETATM   15  C14 UNL     1      18.381   0.177  51.258  1.00  0.00     0.013 A 
ENDBRANCH   9  10
ENDBRANCH   5   8
BRANCH   1  16
HETATM   16  C3  UNL     1      26.547   0.376  53.598  1.00  0.00     0.118 C 
BRANCH  16  17
HETATM   17  C2  UNL     1      27.188  -0.902  53.253  1.00  0.00     0.041 C 
HETATM   18  C1  UNL     1      26.867  -1.827  52.362  1.00  0.00     0.046 C 
BRANCH  17  19
HETATM   19  O1  UNL     1      28.279  -0.925  54.127  1.00  0.00    -0.361 OA
HETATM   20  C17 UNL     1      28.646   0.237  54.848  1.00  0.00     0.209 C 
ENDBRANCH  17  19
ENDBRANCH  16  17
ENDBRANCH   1  16
TORSDOF 5
ENDMDL
MODEL 6
REMARK VINA RESULT:      -6.6      2.593      3.806
REMARK  5 active torsions:
REMARK  status: ('A' for Active; 'I' for Inactive)
REMARK    1  A    between atoms: C2_2  and  C3_3 
REMARK    2  A    between atoms: C2_2  and  O1_19 
REMARK    3  A    between atoms: C3_3  and  C4_4 
REMARK    4  A    between atoms: C7_8  and  N2_9 
REMARK    5  A    between atoms: C8_10  and  C9_11 
ROOT
HETATM    1  C4  UNL     1      26.021   0.903  53.064  1.00  0.00     0.017 C 
HETATM    2  N1  UNL     1      25.145   1.770  53.388  1.00  0.00    -0.287 NA
HETATM    3  C5  UNL     1      24.726   2.840  52.542  1.00  0.00     0.155 C 
HETATM    4  C6  UNL     1      23.285   2.627  52.135  1.00  0.00     0.041 C 
HETATM    5  C7  UNL     1      25.538   2.999  51.337  1.00  0.00     0.055 C 
HETATM    6  C15 UNL     1      26.455   2.101  50.983  1.00  0.00     0.008 C 
HETATM    7  C16 UNL     1      26.733   0.864  51.781  1.00  0.00     0.083 C 
ENDROOT
BRANCH   5   8
HETATM    8  N2  UNL     1      25.352   4.125  50.524  1.00  0.00    -0.263 NA
HETATM    9  C8  UNL     1      26.233   4.518  49.667  1.00  0.00     0.128 C 
BRANCH   9  10
HETATM   10  C9  UNL     1      25.996   5.676  48.859  1.00  0.00    -0.019 A 
HETATM   11  C10 UNL     1      24.708   6.065  48.557  1.00  0.00     0.013 A 
HETATM   12  C11 UNL     1      24.534   7.197  47.768  1.00  0.00     0.001 A 
HETATM   13  C12 UNL     1      25.591   7.937  47.283  1.00  0.00     0.000 A 
HETATM   14  C13 UNL     1      26.888   7.565  47.574  1.00  0.00     0.001 A 
HETATM   15  C14 UNL     1      27.048   6.428  48.365  1.00  0.00     0.013 A 
ENDBRANCH   9  10
ENDBRANCH   5   8
BRANCH   1  16
HETATM   16  C3  UNL     1      26.368  -0.174  54.059  1.00  0.00     0.118 C 
BRANCH  16  17
HETATM   17  C2  UNL     1      27.819  -0.221  54.295  1.00  0.00     0.041 C 
HETATM   18  C1  UNL     1      28.643   0.659  54.840  1.00  0.00     0.046 C 
BRANCH  17  19
HETATM   19  O1  UNL     1      28.155  -1.479  53.785  1.00  0.00    -0.361 OA
HETATM   20  C17 UNL     1      29.477  -1.749  53.355  1.00  0.00     0.209 C 
ENDBRANCH  17  19
ENDBRANCH  16  17
ENDBRANCH   1  16
TORSDOF 5
ENDMDL
MODEL 7
REMARK VINA RESULT:      -6.3      3.717      8.633
REMARK  5 active torsions:
REMARK  status: ('A' for Active; 'I' for Inactive)
REMARK    1  A    between atoms: C2_2  and  C3_3 
REMARK    2  A    between atoms: C2_2  and  O1_19 
REMARK    3  A    between atoms: C3_3  and  C4_4 
REMARK    4  A    between atoms: C7_8  and  N2_9 
REMARK    5  A    between atoms: C8_10  and  C9_11 
ROOT
HETATM    1  C4  UNL     1      27.719   6.499  48.199  1.00  0.00     0.017 C 
HETATM    2  N1  UNL     1      26.557   6.964  48.440  1.00  0.00    -0.287 NA
HETATM    3  C5  UNL     1      25.533   6.244  49.123  1.00  0.00     0.155 C 
HETATM    4  C6  UNL     1      25.257   6.900  50.458  1.00  0.00     0.041 C 
HETATM    5  C7  UNL     1      25.844   4.832  49.347  1.00  0.00     0.055 C 
HETATM    6  C15 UNL     1      27.054   4.333  49.103  1.00  0.00     0.008 C 
HETATM    7  C16 UNL     1      28.188   5.162  48.583  1.00  0.00     0.083 C 
ENDROOT
BRANCH   5   8
HETATM    8  N2  UNL     1      24.848   3.975  49.833  1.00  0.00    -0.263 NA
HETATM    9  C8  UNL     1      25.109   2.971  50.599  1.00  0.00     0.128 C 
BRANCH   9  10
HETATM   10  C9  UNL     1      24.056   2.122  51.070  1.00  0.00    -0.019 A 
HETATM   11  C10 UNL     1      22.905   1.959  50.327  1.00  0.00     0.013 A 
HETATM   12  C11 UNL     1      21.914   1.123  50.830  1.00  0.00     0.001 A 
HETATM   13  C12 UNL     1      22.038   0.459  52.032  1.00  0.00     0.000 A 
HETATM   14  C13 UNL     1      23.181   0.609  52.791  1.00  0.00     0.001 A 
HETATM   15  C14 UNL     1      24.167   1.450  52.276  1.00  0.00     0.013 A 
ENDBRANCH   9  10
ENDBRANCH   5   8
BRANCH   1  16
HETATM   16  C3  UNL     1      28.704   7.372  47.467  1.00  0.00     0.118 C 
BRANCH  16  17
HETATM   17  C2  UNL     1      29.531   8.137  48.413  1.00  0.00     0.041 C 
HETATM   18  C1  UNL     1      29.222   9.116  49.248  1.00  0.00     0.046 C 
BRANCH  17  19
HETATM   19  O1  UNL     1      30.793   7.566  48.223  1.00  0.00    -0.361 OA
HETATM   20  C17 UNL     1      31.564   7.143  49.333  1.00  0.00     0.209 C 
ENDBRANCH  17  19
ENDBRANCH  16  17
ENDBRANCH   1  16
TORSDOF 5
ENDMDL
MODEL 8
REMARK VINA RESULT:      -6.3      1.446      2.718
REMARK  5 active torsions:
REMARK  status: ('A' for Active; 'I' for Inactive)
REMARK    1  A    between atoms: C2_2  and  C3_3 
REMARK    2  A    between atoms: C2_2  and  O1_19 
REMARK    3  A    between atoms: C3_3  and  C4_4 
REMARK    4  A    between atoms: C7_8  and  N2_9 
REMARK    5  A    between atoms: C8_10  and  C9_11 
ROOT
HETATM    1  C4  UNL     1      23.658   1.905  52.199  1.00  0.00     0.017 C 
HETATM    2  N1  UNL     1      23.075   3.001  51.907  1.00  0.00    -0.287 NA
HETATM    3  C5  UNL     1      23.615   3.984  51.026  1.00  0.00     0.155 C 
HETATM    4  C6  UNL     1      22.766   4.064  49.776  1.00  0.00     0.041 C 
HETATM    5  C7  UNL     1      25.003   3.740  50.638  1.00  0.00     0.055 C 
HETATM    6  C15 UNL     1      25.625   2.599  50.933  1.00  0.00     0.008 C 
HETATM    7  C16 UNL     1      24.964   1.482  51.680  1.00  0.00     0.083 C 
ENDROOT
BRANCH   5   8
HETATM    8  N2  UNL     1      25.707   4.726  49.934  1.00  0.00    -0.263 NA
HETATM    9  C8  UNL     1      26.781   4.472  49.267  1.00  0.00     0.128 C 
BRANCH   9  10
HETATM   10  C9  UNL     1      27.465   5.515  48.564  1.00  0.00    -0.019 A 
HETATM   11  C10 UNL     1      28.813   5.406  48.293  1.00  0.00     0.013 A 
HETATM   12  C11 UNL     1      29.429   6.447  47.606  1.00  0.00     0.001 A 
HETATM   13  C12 UNL     1      28.748   7.572  47.191  1.00  0.00     0.000 A 
HETATM   14  C13 UNL     1      27.398   7.699  47.452  1.00  0.00     0.001 A 
HETATM   15  C14 UNL     1      26.794   6.650  48.141  1.00  0.00     0.013 A 
ENDBRANCH   9  10
ENDBRANCH   5   8
BRANCH   1  16
HETATM   16  C3  UNL     1      22.971   0.957  53.146  1.00  0.00     0.118 C 
BRANCH  16  17
HETATM   17  C2  UNL     1      21.976   0.139  52.438  1.00  0.00     0.041 C 
HETATM   18  C1  UNL     1      21.436   0.267  51.237  1.00  0.00     0.046 C 
BRANCH  17  19
HETATM   19  O1  UNL     1      21.708  -0.867  53.373  1.00  0.00    -0.361 OA
HETATM   20  C17 UNL     1      21.298  -0.535  54.687  1.00  0.00     0.209 C 
ENDBRANCH  17  19
ENDBRANCH  16  17
ENDBRANCH   1  16
TORSDOF 5
ENDMDL
MODEL 9
REMARK VINA RESULT:      -6.3      3.650      7.820
REMARK  5 active torsions:
REMARK  status: ('A' for Active; 'I' for Inactive)
REMARK    1  A    between atoms: C2_2  and  C3_3 
REMARK    2  A    between atoms: C2_2  and  O1_19 
REMARK    3  A    between atoms: C3_3  and  C4_4 
REMARK    4  A    between atoms: C7_8  and  N2_9 
REMARK    5  A    between atoms: C8_10  and  C9_11 
ROOT
HETATM    1  C4  UNL     1      24.122   1.689  52.455  1.00  0.00     0.017 C 
HETATM    2  N1  UNL     1      23.632   1.102  53.475  1.00  0.00    -0.287 NA
HETATM    3  C5  UNL     1      22.399   0.384  53.469  1.00  0.00     0.155 C 
HETATM    4  C6  UNL     1      22.671  -1.089  53.679  1.00  0.00     0.041 C 
HETATM    5  C7  UNL     1      21.619   0.549  52.243  1.00  0.00     0.055 C 
HETATM    6  C15 UNL     1      22.118   1.158  51.169  1.00  0.00     0.008 C 
HETATM    7  C16 UNL     1      23.505   1.721  51.124  1.00  0.00     0.083 C 
ENDROOT
BRANCH   5   8
HETATM    8  N2  UNL     1      20.309   0.055  52.187  1.00  0.00    -0.263 NA
HETATM    9  C8  UNL     1      19.489   0.363  51.240  1.00  0.00     0.128 C 
BRANCH   9  10
HETATM   10  C9  UNL     1      18.159  -0.167  51.227  1.00  0.00    -0.019 A 
HETATM   11  C10 UNL     1      17.362  -0.026  50.110  1.00  0.00     0.013 A 
HETATM   12  C11 UNL     1      16.079  -0.561  50.150  1.00  0.00     0.001 A 
HETATM   13  C12 UNL     1      15.580  -1.220  51.253  1.00  0.00     0.000 A 
HETATM   14  C13 UNL     1      16.362  -1.372  52.381  1.00  0.00     0.001 A 
HETATM   15  C14 UNL     1      17.645  -0.832  52.328  1.00  0.00     0.013 A 
ENDBRANCH   9  10
ENDBRANCH   5   8
BRANCH   1  16
HETATM   16  C3  UNL     1      25.435   2.412  52.606  1.00  0.00     0.118 C 
BRANCH  16  17
HETATM   17  C2  UNL     1      26.534   1.461  52.829  1.00  0.00     0.041 C 
HETATM   18  C1  UNL     1      26.814   0.301  52.257  1.00  0.00     0.046 C 
BRANCH  17  19
HETATM   19  O1  UNL     1      27.262   2.092  53.843  1.00  0.00    -0.361 OA
HETATM   20  C17 UNL     1      28.616   2.453  53.635  1.00  0.00     0.209 C 
ENDBRANCH  17  19
ENDBRANCH  16  17
ENDBRANCH   1  16
TORSDOF 5
ENDMDL
