MODEL 1
REMARK VINA RESULT:      -7.3      0.000      0.000
REMARK  1 active torsions:
REMARK  status: ('A' for Active; 'I' for Inactive)
REMARK    1  A    between atoms: C4_4  and  C5_5 
ROOT
HETATM    1  C5  UNL     1      24.556   1.053  52.380  1.00  0.00     0.094 C 
HETATM    2  C6  UNL     1      24.740   2.299  51.851  1.00  0.00     0.163 C 
HETATM    3  N1  UNL     1      24.089   3.491  51.427  1.00  0.00    -0.397 N 
HETATM    4  C7  UNL     1      23.566   4.549  52.188  1.00  0.00     0.146 C 
HETATM    5  C8  UNL     1      22.044   4.524  52.253  1.00  0.00     0.008 C 
HETATM    6  C9  UNL     1      21.416   3.365  51.951  1.00  0.00     0.009 C 
HETATM    7  C10 UNL     1      20.267   2.684  52.639  1.00  0.00     0.154 C 
HETATM    8  N2  UNL     1      20.434   1.369  52.707  1.00  0.00    -0.161 NA
HETATM    9  N3  UNL     1      21.682   0.972  52.101  1.00  0.00    -0.141 N 
HETATM   10  N4  UNL     1      22.501   0.041  52.706  1.00  0.00    -0.044 NA
HETATM   11  N5  UNL     1      23.733  -0.043  52.892  1.00  0.00    -0.132 NA
HETATM   12  P1  UNL     1      21.633   2.041  50.629  1.00  0.00     0.072 P 
HETATM   13  C11 UNL     1      23.049   2.284  49.626  1.00  0.00     0.084 C 
HETATM   14  C12 UNL     1      24.000   3.453  49.935  1.00  0.00     0.124 C 
ENDROOT
BRANCH   1  15
HETATM   15  C4  UNL     1      25.942   0.517  52.466  1.00  0.00     0.004 C 
HETATM   16  C3  UNL     1      27.150   1.075  52.484  1.00  0.00    -0.006 C 
HETATM   17  C2  UNL     1      28.018   0.470  53.239  1.00  0.00    -0.050 C 
HETATM   18  C1  UNL     1      29.127   0.903  54.152  1.00  0.00     0.049 C 
HETATM   19  C14 UNL     1      27.692  -0.933  53.025  1.00  0.00     0.008 C 
HETATM   20  C13 UNL     1      26.424  -0.857  52.556  1.00  0.00     0.015 C 
ENDBRANCH   1  15
TORSDOF 1
ENDMDL
MODEL 2
REMARK VINA RESULT:      -7.3      8.541     11.075
REMARK  1 active torsions:
REMARK  status: ('A' for Active; 'I' for Inactive)
REMARK    1  A    between atoms: C4_4  and  C5_5 
ROOT
HETATM    1  C5  UNL     1      30.758   6.071  48.130  1.00  0.00     0.094 C 
HETATM    2  C6  UNL     1      31.241   4.936  47.543  1.00  0.00     0.163 C 
HETATM    3  N1  UNL     1      32.416   4.256  47.119  1.00  0.00    -0.397 N 
HETATM    4  C7  UNL     1      33.366   3.547  47.873  1.00  0.00     0.146 C 
HETATM    5  C8  UNL     1      34.668   4.319  48.043  1.00  0.00     0.008 C 
HETATM    6  C9  UNL     1      34.646   5.654  47.830  1.00  0.00     0.009 C 
HETATM    7  C10 UNL     1      35.274   6.766  48.621  1.00  0.00     0.154 C 
HETATM    8  N2  UNL     1      34.471   7.817  48.728  1.00  0.00    -0.161 NA
HETATM    9  N3  UNL     1      33.217   7.584  48.053  1.00  0.00    -0.141 N 
HETATM   10  N4  UNL     1      32.019   7.944  48.635  1.00  0.00    -0.044 NA
HETATM   11  N5  UNL     1      30.903   7.394  48.739  1.00  0.00    -0.132 NA
HETATM   12  P1  UNL     1      33.853   6.782  46.548  1.00  0.00     0.072 P 
HETATM   13  C11 UNL     1      32.788   5.938  45.441  1.00  0.00     0.084 C 
HETATM   14  C12 UNL     1      32.535   4.433  45.640  1.00  0.00     0.124 C 
ENDROOT
BRANCH   1  15
HETATM   15  C4  UNL     1      29.287   5.843  48.140  1.00  0.00     0.004 C 
HETATM   16  C3  UNL     1      28.519   4.756  48.155  1.00  0.00    -0.006 C 
HETATM   17  C2  UNL     1      27.424   4.871  48.845  1.00  0.00    -0.050 C 
HETATM   18  C1  UNL     1      26.629   3.973  49.747  1.00  0.00     0.049 C 
HETATM   19  C14 UNL     1      27.018   6.240  48.558  1.00  0.00     0.008 C 
HETATM   20  C13 UNL     1      28.179   6.792  48.133  1.00  0.00     0.015 C 
ENDBRANCH   1  15
TORSDOF 1
ENDMDL
MODEL 3
REMARK VINA RESULT:      -7.2      1.772      3.526
REMARK  1 active torsions:
REMARK  status: ('A' for Active; 'I' for Inactive)
REMARK    1  A    between atoms: C4_4  and  C5_5 
ROOT
HETATM    1  C5  UNL     1      25.734   1.676  51.780  1.00  0.00     0.094 C 
HETATM    2  C6  UNL     1      24.409   1.375  51.926  1.00  0.00     0.163 C 
HETATM    3  N1  UNL     1      23.088   1.715  51.523  1.00  0.00    -0.397 N 
HETATM    4  C7  UNL     1      22.406   1.414  50.333  1.00  0.00     0.146 C 
HETATM    5  C8  UNL     1      22.292   2.619  49.407  1.00  0.00     0.008 C 
HETATM    6  C9  UNL     1      23.136   3.656  49.609  1.00  0.00     0.009 C 
HETATM    7  C10 UNL     1      23.916   4.470  48.617  1.00  0.00     0.154 C 
HETATM    8  N2  UNL     1      25.144   4.736  49.045  1.00  0.00    -0.161 NA
HETATM    9  N3  UNL     1      25.377   4.157  50.347  1.00  0.00    -0.141 N 
HETATM   10  N4  UNL     1      26.560   3.508  50.634  1.00  0.00    -0.044 NA
HETATM   11  N5  UNL     1      26.848   2.451  51.232  1.00  0.00    -0.132 NA
HETATM   12  P1  UNL     1      23.784   4.566  51.125  1.00  0.00     0.072 P 
HETATM   13  C11 UNL     1      23.291   3.835  52.640  1.00  0.00     0.084 C 
HETATM   14  C12 UNL     1      22.476   2.530  52.617  1.00  0.00     0.124 C 
ENDROOT
BRANCH   1  15
HETATM   15  C4  UNL     1      26.402   0.693  52.677  1.00  0.00     0.004 C 
HETATM   16  C3  UNL     1      27.195  -0.357  52.471  1.00  0.00    -0.006 C 
HETATM   17  C2  UNL     1      28.115  -0.529  53.372  1.00  0.00    -0.050 C 
HETATM   18  C1  UNL     1      29.551  -0.967  53.364  1.00  0.00     0.049 C 
HETATM   19  C14 UNL     1      27.420  -0.170  54.600  1.00  0.00     0.008 C 
HETATM   20  C13 UNL     1      26.388   0.570  54.130  1.00  0.00     0.015 C 
ENDBRANCH   1  15
TORSDOF 1
ENDMDL
MODEL 4
REMARK VINA RESULT:      -7.1      1.871      3.250
REMARK  1 active torsions:
REMARK  status: ('A' for Active; 'I' for Inactive)
REMARK    1  A    between atoms: C4_4  and  C5_5 
ROOT
HETATM    1  C5  UNL     1      23.782   2.094  52.450  1.00  0.00     0.094 C 
HETATM    2  C6  UNL     1      23.038   1.208  51.723  1.00  0.00     0.163 C 
HETATM    3  N1  UNL     1      21.935   1.068  50.836  1.00  0.00    -0.397 N 
HETATM    4  C7  UNL     1      21.845   1.344  49.463  1.00  0.00     0.146 C 
HETATM    5  C8  UNL     1      21.069   2.623  49.175  1.00  0.00     0.008 C 
HETATM    6  C9  UNL     1      20.911   3.509  50.184  1.00  0.00     0.009 C 
HETATM    7  C10 UNL     1      21.044   5.005  50.182  1.00  0.00     0.154 C 
HETATM    8  N2  UNL     1      21.657   5.453  51.270  1.00  0.00    -0.161 NA
HETATM    9  N3  UNL     1      22.025   4.365  52.144  1.00  0.00    -0.141 N 
HETATM   10  N4  UNL     1      23.264   4.328  52.750  1.00  0.00    -0.044 NA
HETATM   11  N5  UNL     1      24.110   3.431  52.945  1.00  0.00    -0.132 NA
HETATM   12  P1  UNL     1      20.503   3.376  52.018  1.00  0.00     0.072 P 
HETATM   13  C11 UNL     1      20.434   1.724  52.597  1.00  0.00     0.084 C 
HETATM   14  C12 UNL     1      20.772   0.573  51.634  1.00  0.00     0.124 C 
ENDROOT
BRANCH   1  15
HETATM   15  C4  UNL     1      24.798   1.223  53.102  1.00  0.00     0.004 C 
HETATM   16  C3  UNL     1      24.942  -0.094  53.231  1.00  0.00    -0.006 C 
HETATM   17  C2  UNL     1      26.171  -0.514  53.196  1.00  0.00    -0.050 C 
HETATM   18  C1  UNL     1      26.878  -1.708  52.623  1.00  0.00     0.049 C 
HETATM   19  C14 UNL     1      26.878   0.531  53.924  1.00  0.00     0.008 C 
HETATM   20  C13 UNL     1      26.008   1.565  53.841  1.00  0.00     0.015 C 
ENDBRANCH   1  15
TORSDOF 1
ENDMDL
MODEL 5
REMARK VINA RESULT:      -6.9      8.019     10.210
REMARK  1 active torsions:
REMARK  status: ('A' for Active; 'I' for Inactive)
REMARK    1  A    between atoms: C4_4  and  C5_5 
ROOT
HETATM    1  C5  UNL     1      29.464   6.216  48.138  1.00  0.00     0.094 C 
HETATM    2  C6  UNL     1      29.253   7.474  47.649  1.00  0.00     0.163 C 
HETATM    3  N1  UNL     1      29.882   8.653  47.162  1.00  0.00    -0.397 N 
HETATM    4  C7  UNL     1      30.454   8.913  45.906  1.00  0.00     0.146 C 
HETATM    5  C8  UNL     1      31.977   8.910  45.948  1.00  0.00     0.008 C 
HETATM    6  C9  UNL     1      32.581   8.305  46.996  1.00  0.00     0.009 C 
HETATM    7  C10 UNL     1      33.766   7.383  47.024  1.00  0.00     0.154 C 
HETATM    8  N2  UNL     1      33.598   6.379  47.876  1.00  0.00    -0.161 NA
HETATM    9  N3  UNL     1      32.315   6.462  48.529  1.00  0.00    -0.141 N 
HETATM   10  N4  UNL     1      31.530   5.340  48.699  1.00  0.00    -0.044 NA
HETATM   11  N5  UNL     1      30.311   5.102  48.565  1.00  0.00    -0.132 NA
HETATM   12  P1  UNL     1      32.279   8.252  48.854  1.00  0.00     0.072 P 
HETATM   13  C11 UNL     1      30.805   9.064  49.344  1.00  0.00     0.084 C 
HETATM   14  C12 UNL     1      29.880   9.659  48.268  1.00  0.00     0.124 C 
ENDROOT
BRANCH   1  15
HETATM   15  C4  UNL     1      28.083   5.715  48.382  1.00  0.00     0.004 C 
HETATM   16  C3  UNL     1      27.561   4.510  48.602  1.00  0.00    -0.006 C 
HETATM   17  C2  UNL     1      26.562   4.492  49.432  1.00  0.00    -0.050 C 
HETATM   18  C1  UNL     1      26.087   3.568  50.515  1.00  0.00     0.049 C 
HETATM   19  C14 UNL     1      25.852   5.717  49.091  1.00  0.00     0.008 C 
HETATM   20  C13 UNL     1      26.813   6.429  48.456  1.00  0.00     0.015 C 
ENDBRANCH   1  15
TORSDOF 1
ENDMDL
MODEL 6
REMARK VINA RESULT:      -6.9      3.128      5.047
REMARK  1 active torsions:
REMARK  status: ('A' for Active; 'I' for Inactive)
REMARK    1  A    between atoms: C4_4  and  C5_5 
ROOT
HETATM    1  C5  UNL     1      22.679   1.276  52.399  1.00  0.00     0.094 C 
HETATM    2  C6  UNL     1      21.786   1.857  51.545  1.00  0.00     0.163 C 
HETATM    3  N1  UNL     1      21.635   2.767  50.462  1.00  0.00    -0.397 N 
HETATM    4  C7  UNL     1      21.909   2.593  49.096  1.00  0.00     0.146 C 
HETATM    5  C8  UNL     1      23.180   3.311  48.661  1.00  0.00     0.008 C 
HETATM    6  C9  UNL     1      24.065   3.670  49.618  1.00  0.00     0.009 C 
HETATM    7  C10 UNL     1      25.562   3.553  49.638  1.00  0.00     0.154 C 
HETATM    8  N2  UNL     1      26.017   3.165  50.823  1.00  0.00    -0.161 NA
HETATM    9  N3  UNL     1      24.933   2.963  51.754  1.00  0.00    -0.141 N 
HETATM   10  N4  UNL     1      24.909   1.864  52.588  1.00  0.00    -0.044 NA
HETATM   11  N5  UNL     1      24.020   1.063  52.945  1.00  0.00    -0.132 NA
HETATM   12  P1  UNL     1      23.929   4.422  51.339  1.00  0.00     0.072 P 
HETATM   13  C11 UNL     1      22.276   4.586  51.899  1.00  0.00     0.084 C 
HETATM   14  C12 UNL     1      21.128   4.058  51.022  1.00  0.00     0.124 C 
ENDROOT
BRANCH   1  15
HETATM   15  C4  UNL     1      21.819   0.396  53.237  1.00  0.00     0.004 C 
HETATM   16  C3  UNL     1      20.537   0.424  53.595  1.00  0.00    -0.006 C 
HETATM   17  C2  UNL     1      19.972  -0.742  53.690  1.00  0.00    -0.050 C 
HETATM   18  C1  UNL     1      18.621  -1.306  53.362  1.00  0.00     0.049 C 
HETATM   19  C14 UNL     1      21.035  -1.556  54.264  1.00  0.00     0.008 C 
HETATM   20  C13 UNL     1      22.137  -0.827  53.965  1.00  0.00     0.015 C 
ENDBRANCH   1  15
TORSDOF 1
ENDMDL
MODEL 7
REMARK VINA RESULT:      -6.8      7.002      8.302
REMARK  1 active torsions:
REMARK  status: ('A' for Active; 'I' for Inactive)
REMARK    1  A    between atoms: C4_4  and  C5_5 
ROOT
HETATM    1  C5  UNL     1      29.585   6.206  48.164  1.00  0.00     0.094 C 
HETATM    2  C6  UNL     1      29.698   7.567  48.145  1.00  0.00     0.163 C 
HETATM    3  N1  UNL     1      29.036   8.793  48.428  1.00  0.00    -0.397 N 
HETATM    4  C7  UNL     1      28.813   9.431  49.659  1.00  0.00     0.146 C 
HETATM    5  C8  UNL     1      27.369   9.303  50.129  1.00  0.00     0.008 C 
HETATM    6  C9  UNL     1      26.607   8.331  49.579  1.00  0.00     0.009 C 
HETATM    7  C10 UNL     1      25.650   7.374  50.230  1.00  0.00     0.154 C 
HETATM    8  N2  UNL     1      25.742   6.151  49.721  1.00  0.00    -0.161 NA
HETATM    9  N3  UNL     1      26.746   6.094  48.686  1.00  0.00    -0.141 N 
HETATM   10  N4  UNL     1      27.637   5.043  48.618  1.00  0.00    -0.044 NA
HETATM   11  N5  UNL     1      28.864   4.955  48.405  1.00  0.00    -0.132 NA
HETATM   12  P1  UNL     1      26.365   7.658  47.837  1.00  0.00     0.072 P 
HETATM   13  C11 UNL     1      27.463   8.354  46.662  1.00  0.00     0.084 C 
HETATM   14  C12 UNL     1      28.538   9.349  47.133  1.00  0.00     0.124 C 
ENDROOT
BRANCH   1  15
HETATM   15  C4  UNL     1      30.902   5.752  47.640  1.00  0.00     0.004 C 
HETATM   16  C3  UNL     1      31.771   4.812  48.009  1.00  0.00    -0.006 C 
HETATM   17  C2  UNL     1      32.386   4.223  47.028  1.00  0.00    -0.050 C 
HETATM   18  C1  UNL     1      32.837   2.822  46.735  1.00  0.00     0.049 C 
HETATM   19  C14 UNL     1      32.609   5.321  46.097  1.00  0.00     0.008 C 
HETATM   20  C13 UNL     1      31.688   6.225  46.506  1.00  0.00     0.015 C 
ENDBRANCH   1  15
TORSDOF 1
ENDMDL
MODEL 8
REMARK VINA RESULT:      -6.8      6.794      9.210
REMARK  1 active torsions:
REMARK  status: ('A' for Active; 'I' for Inactive)
REMARK    1  A    between atoms: C4_4  and  C5_5 
ROOT
HETATM    1  C5  UNL     1      27.979   5.850  48.274  1.00  0.00     0.094 C 
HETATM    2  C6  UNL     1      27.471   7.064  47.908  1.00  0.00     0.163 C 
HETATM    3  N1  UNL     1      27.763   8.305  47.276  1.00  0.00    -0.397 N 
HETATM    4  C7  UNL     1      27.873   8.615  45.911  1.00  0.00     0.146 C 
HETATM    5  C8  UNL     1      29.320   8.802  45.471  1.00  0.00     0.008 C 
HETATM    6  C9  UNL     1      30.294   8.294  46.260  1.00  0.00     0.009 C 
HETATM    7  C10 UNL     1      31.532   7.529  45.890  1.00  0.00     0.154 C 
HETATM    8  N2  UNL     1      31.766   6.524  46.726  1.00  0.00    -0.161 NA
HETATM    9  N3  UNL     1      30.754   6.457  47.753  1.00  0.00    -0.141 N 
HETATM   10  N4  UNL     1      30.208   5.248  48.133  1.00  0.00    -0.044 NA
HETATM   11  N5  UNL     1      29.049   4.858  48.384  1.00  0.00    -0.132 NA
HETATM   12  P1  UNL     1      30.603   8.233  48.117  1.00  0.00     0.072 P 
HETATM   13  C11 UNL     1      29.270   8.862  49.066  1.00  0.00     0.084 C 
HETATM   14  C12 UNL     1      27.987   9.319  48.352  1.00  0.00     0.124 C 
ENDROOT
BRANCH   1  15
HETATM   15  C4  UNL     1      26.819   5.185  48.928  1.00  0.00     0.004 C 
HETATM   16  C3  UNL     1      25.575   5.563  49.212  1.00  0.00    -0.006 C 
HETATM   17  C2  UNL     1      24.683   4.624  49.109  1.00  0.00    -0.050 C 
HETATM   18  C1  UNL     1      23.264   4.545  48.628  1.00  0.00     0.049 C 
HETATM   19  C14 UNL     1      25.395   3.461  49.620  1.00  0.00     0.008 C 
HETATM   20  C13 UNL     1      26.687   3.846  49.492  1.00  0.00     0.015 C 
ENDBRANCH   1  15
TORSDOF 1
ENDMDL
MODEL 9
REMARK VINA RESULT:      -6.7      5.298      7.426
REMARK  1 active torsions:
REMARK  status: ('A' for Active; 'I' for Inactive)
REMARK    1  A    between atoms: C4_4  and  C5_5 
ROOT
HETATM    1  C5  UNL     1      26.725   5.207  48.903  1.00  0.00     0.094 C 
HETATM    2  C6  UNL     1      25.697   6.105  48.844  1.00  0.00     0.163 C 
HETATM    3  N1  UNL     1      25.294   7.381  48.361  1.00  0.00    -0.397 N 
HETATM    4  C7  UNL     1      24.913   7.772  47.067  1.00  0.00     0.146 C 
HETATM    5  C8  UNL     1      25.995   8.578  46.360  1.00  0.00     0.008 C 
HETATM    6  C9  UNL     1      27.259   8.495  46.834  1.00  0.00     0.009 C 
HETATM    7  C10 UNL     1      28.558   8.348  46.094  1.00  0.00     0.154 C 
HETATM    8  N2  UNL     1      29.383   7.501  46.698  1.00  0.00    -0.161 NA
HETATM    9  N3  UNL     1      28.786   6.960  47.896  1.00  0.00    -0.141 N 
HETATM   10  N4  UNL     1      28.889   5.617  48.196  1.00  0.00    -0.044 NA
HETATM   11  N5  UNL     1      28.091   4.760  48.629  1.00  0.00    -0.132 NA
HETATM   12  P1  UNL     1      28.036   8.484  48.549  1.00  0.00     0.072 P 
HETATM   13  C11 UNL     1      26.859   8.441  49.847  1.00  0.00     0.084 C 
HETATM   14  C12 UNL     1      25.363   8.341  49.504  1.00  0.00     0.124 C 
ENDROOT
BRANCH   1  15
HETATM   15  C4  UNL     1      26.141   4.081  49.683  1.00  0.00     0.004 C 
HETATM   16  C3  UNL     1      26.515   2.824  49.914  1.00  0.00    -0.006 C 
HETATM   17  C2  UNL     1      26.230   2.380  51.101  1.00  0.00    -0.050 C 
HETATM   18  C1  UNL     1      26.910   1.493  52.103  1.00  0.00     0.049 C 
HETATM   19  C14 UNL     1      24.926   2.978  51.353  1.00  0.00     0.008 C 
HETATM   20  C13 UNL     1      24.916   4.005  50.471  1.00  0.00     0.015 C 
ENDBRANCH   1  15
TORSDOF 1
ENDMDL
