MODEL 1
REMARK VINA RESULT:      -7.4      0.000      0.000
REMARK  1 active torsions:
REMARK  status: ('A' for Active; 'I' for Inactive)
REMARK    1  A    between atoms: C10_14  and  O2_15 
ROOT
HETATM    1  C1  UNL     1      29.369   7.274  47.803  1.00  0.00     0.039 C 
HETATM    2  C2  UNL     1      30.219   6.088  47.765  1.00  0.00     0.007 C 
HETATM    3  C3  UNL     1      31.357   6.574  48.184  1.00  0.00     0.085 C 
HETATM    4  O1  UNL     1      31.722   7.816  48.562  1.00  0.00    -0.303 OA
HETATM    5  C4  UNL     1      31.807   9.009  47.828  1.00  0.00     0.260 C 
HETATM    6  N1  UNL     1      33.026   9.048  47.585  1.00  0.00    -0.230 NA
HETATM    7  C5  UNL     1      34.007   9.790  46.959  1.00  0.00     0.231 C 
HETATM    8  N2  UNL     1      34.633   8.850  46.191  1.00  0.00    -0.252 NA
HETATM    9  C6  UNL     1      34.057   7.659  46.357  1.00  0.00     0.245 C 
HETATM   10  N3  UNL     1      34.292   6.396  45.770  1.00  0.00    -0.364 N 
HETATM   11  C7  UNL     1      33.777   5.004  46.013  1.00  0.00     0.043 C 
HETATM   12  C8  UNL     1      33.267   4.514  44.842  1.00  0.00    -0.003 C 
HETATM   13  C9  UNL     1      33.162   5.107  43.486  1.00  0.00     0.038 C 
HETATM   14  C10 UNL     1      33.588   3.929  47.052  1.00  0.00     0.136 C 
HETATM   15  C12 UNL     1      32.417   4.137  48.010  1.00  0.00     0.035 C 
HETATM   16  C13 UNL     1      32.380   5.464  48.212  1.00  0.00     0.025 C 
HETATM   17  C14 UNL     1      33.805   5.620  48.695  1.00  0.00     0.053 C 
HETATM   18  P1  UNL     1      34.261   7.272  48.269  1.00  0.00     0.020 P 
HETATM   19  N4  UNL     1      34.886   4.756  48.957  1.00  0.00    -0.385 N 
HETATM   20  C15 UNL     1      34.891   3.817  47.867  1.00  0.00     0.168 C 
HETATM   21  H8  UNL     1      34.978   6.451  44.996  1.00  0.00     0.162 HD
HETATM   22  H17 UNL     1      35.643   4.502  49.605  1.00  0.00     0.159 HD
ENDROOT
BRANCH  14  23
HETATM   23  O2  UNL     1      33.439   2.734  46.415  1.00  0.00    -0.373 OA
HETATM   24  C11 UNL     1      32.793   1.735  47.079  1.00  0.00     0.203 C 
ENDBRANCH  14  23
TORSDOF 1
ENDMDL
MODEL 2
REMARK VINA RESULT:      -7.1      8.723     10.346
REMARK  1 active torsions:
REMARK  status: ('A' for Active; 'I' for Inactive)
REMARK    1  A    between atoms: C10_14  and  O2_15 
ROOT
HETATM    1  C1  UNL     1      21.416   2.706  47.854  1.00  0.00     0.039 C 
HETATM    2  C2  UNL     1      22.447   2.192  48.752  1.00  0.00     0.007 C 
HETATM    3  C3  UNL     1      22.277   2.953  49.801  1.00  0.00     0.085 C 
HETATM    4  O1  UNL     1      21.411   3.955  50.056  1.00  0.00    -0.303 OA
HETATM    5  C4  UNL     1      21.278   5.223  49.467  1.00  0.00     0.260 C 
HETATM    6  N1  UNL     1      21.878   5.930  50.296  1.00  0.00    -0.230 NA
HETATM    7  C5  UNL     1      22.257   7.227  50.576  1.00  0.00     0.231 C 
HETATM    8  N2  UNL     1      23.591   7.087  50.830  1.00  0.00    -0.252 NA
HETATM    9  C6  UNL     1      23.956   5.811  50.704  1.00  0.00     0.245 C 
HETATM   10  N3  UNL     1      25.205   5.160  50.815  1.00  0.00    -0.364 N 
HETATM   11  C7  UNL     1      25.652   3.724  50.822  1.00  0.00     0.043 C 
HETATM   12  C8  UNL     1      26.600   3.555  49.850  1.00  0.00    -0.003 C 
HETATM   13  C9  UNL     1      27.198   4.504  48.879  1.00  0.00     0.038 C 
HETATM   14  C10 UNL     1      25.458   2.380  51.477  1.00  0.00     0.136 C 
HETATM   15  C12 UNL     1      24.213   1.610  51.041  1.00  0.00     0.035 C 
HETATM   16  C13 UNL     1      23.279   2.556  50.858  1.00  0.00     0.025 C 
HETATM   17  C14 UNL     1      23.359   3.169  52.239  1.00  0.00     0.053 C 
HETATM   18  P1  UNL     1      22.871   4.853  52.028  1.00  0.00     0.020 P 
HETATM   19  N4  UNL     1      24.069   2.902  53.425  1.00  0.00    -0.385 N 
HETATM   20  C15 UNL     1      25.410   2.594  53.001  1.00  0.00     0.168 C 
HETATM   21  H8  UNL     1      25.985   5.834  50.914  1.00  0.00     0.162 HD
HETATM   22  H17 UNL     1      24.025   2.809  54.449  1.00  0.00     0.159 HD
ENDROOT
BRANCH  14  23
HETATM   23  O2  UNL     1      26.562   1.620  51.237  1.00  0.00    -0.373 OA
HETATM   24  C11 UNL     1      26.707   0.466  51.949  1.00  0.00     0.203 C 
ENDBRANCH  14  23
TORSDOF 1
ENDMDL
MODEL 3
REMARK VINA RESULT:      -7.0     10.908     12.586
REMARK  1 active torsions:
REMARK  status: ('A' for Active; 'I' for Inactive)
REMARK    1  A    between atoms: C10_14  and  O2_15 
ROOT
HETATM    1  C1  UNL     1      22.316   2.238  47.460  1.00  0.00     0.039 C 
HETATM    2  C2  UNL     1      22.064   1.388  48.620  1.00  0.00     0.007 C 
HETATM    3  C3  UNL     1      21.598   2.256  49.478  1.00  0.00     0.085 C 
HETATM    4  O1  UNL     1      21.381   3.584  49.390  1.00  0.00    -0.303 OA
HETATM    5  C4  UNL     1      22.281   4.650  49.232  1.00  0.00     0.260 C 
HETATM    6  N1  UNL     1      22.382   5.046  50.407  1.00  0.00    -0.230 NA
HETATM    7  C5  UNL     1      22.999   5.986  51.208  1.00  0.00     0.231 C 
HETATM    8  N2  UNL     1      23.528   5.212  52.201  1.00  0.00    -0.252 NA
HETATM    9  C6  UNL     1      23.244   3.927  51.988  1.00  0.00     0.245 C 
HETATM   10  N3  UNL     1      23.591   2.746  52.681  1.00  0.00    -0.364 N 
HETATM   11  C7  UNL     1      23.192   1.300  52.573  1.00  0.00     0.043 C 
HETATM   12  C8  UNL     1      24.322   0.542  52.428  1.00  0.00    -0.003 C 
HETATM   13  C9  UNL     1      25.758   0.912  52.370  1.00  0.00     0.038 C 
HETATM   14  C10 UNL     1      22.025   0.347  52.549  1.00  0.00     0.136 C 
HETATM   15  C12 UNL     1      21.257   0.280  51.231  1.00  0.00     0.035 C 
HETATM   16  C13 UNL     1      21.274   1.540  50.768  1.00  0.00     0.025 C 
HETATM   17  C14 UNL     1      20.658   2.196  51.984  1.00  0.00     0.053 C 
HETATM   18  P1  UNL     1      21.285   3.847  51.988  1.00  0.00     0.020 P 
HETATM   19  N4  UNL     1      20.136   1.757  53.216  1.00  0.00    -0.385 N 
HETATM   20  C15 UNL     1      21.056   0.750  53.677  1.00  0.00     0.168 C 
HETATM   21  H8  UNL     1      24.278   2.928  53.435  1.00  0.00     0.162 HD
HETATM   22  H17 UNL     1      19.372   1.833  53.900  1.00  0.00     0.159 HD
ENDROOT
BRANCH  14  23
HETATM   23  O2  UNL     1      22.477  -0.897  52.868  1.00  0.00    -0.373 OA
HETATM   24  C11 UNL     1      21.847  -1.565  53.876  1.00  0.00     0.203 C 
ENDBRANCH  14  23
TORSDOF 1
ENDMDL
MODEL 4
REMARK VINA RESULT:      -6.5      8.001      9.950
REMARK  1 active torsions:
REMARK  status: ('A' for Active; 'I' for Inactive)
REMARK    1  A    between atoms: C10_14  and  O2_15 
ROOT
HETATM    1  C1  UNL     1      22.664   6.523  46.020  1.00  0.00     0.039 C 
HETATM    2  C2  UNL     1      22.477   5.632  47.160  1.00  0.00     0.007 C 
HETATM    3  C3  UNL     1      22.655   6.453  48.161  1.00  0.00     0.085 C 
HETATM    4  O1  UNL     1      22.937   7.770  48.205  1.00  0.00    -0.303 OA
HETATM    5  C4  UNL     1      24.077   8.478  47.790  1.00  0.00     0.260 C 
HETATM    6  N1  UNL     1      24.672   8.618  48.874  1.00  0.00    -0.230 NA
HETATM    7  C5  UNL     1      25.808   9.147  49.452  1.00  0.00     0.231 C 
HETATM    8  N2  UNL     1      26.284   8.087  50.171  1.00  0.00    -0.252 NA
HETATM    9  C6  UNL     1      25.487   7.029  50.017  1.00  0.00     0.245 C 
HETATM   10  N3  UNL     1      25.559   5.703  50.501  1.00  0.00    -0.364 N 
HETATM   11  C7  UNL     1      24.633   4.518  50.479  1.00  0.00     0.043 C 
HETATM   12  C8  UNL     1      25.294   3.456  49.924  1.00  0.00    -0.003 C 
HETATM   13  C9  UNL     1      26.672   3.319  49.392  1.00  0.00     0.038 C 
HETATM   14  C10 UNL     1      23.247   4.036  50.819  1.00  0.00     0.136 C 
HETATM   15  C12 UNL     1      22.148   4.452  49.843  1.00  0.00     0.035 C 
HETATM   16  C13 UNL     1      22.495   5.688  49.453  1.00  0.00     0.025 C 
HETATM   17  C14 UNL     1      22.572   6.306  50.831  1.00  0.00     0.053 C 
HETATM   18  P1  UNL     1      23.742   7.621  50.687  1.00  0.00     0.020 P 
HETATM   19  N4  UNL     1      22.325   5.875  52.149  1.00  0.00    -0.385 N 
HETATM   20  C15 UNL     1      22.892   4.554  52.226  1.00  0.00     0.168 C 
HETATM   21  H8  UNL     1      26.458   5.515  50.980  1.00  0.00     0.162 HD
HETATM   22  H17 UNL     1      21.893   6.093  53.057  1.00  0.00     0.159 HD
ENDROOT
BRANCH  14  23
HETATM   23  O2  UNL     1      23.272   2.678  50.913  1.00  0.00    -0.373 OA
HETATM   24  C11 UNL     1      22.431   2.085  51.807  1.00  0.00     0.203 C 
ENDBRANCH  14  23
TORSDOF 1
ENDMDL
MODEL 5
REMARK VINA RESULT:      -6.3      4.097      6.323
REMARK  1 active torsions:
REMARK  status: ('A' for Active; 'I' for Inactive)
REMARK    1  A    between atoms: C10_14  and  O2_15 
ROOT
HETATM    1  C1  UNL     1      27.390   9.509  44.432  1.00  0.00     0.039 C 
HETATM    2  C2  UNL     1      28.589   9.016  45.102  1.00  0.00     0.007 C 
HETATM    3  C3  UNL     1      28.070   8.349  46.099  1.00  0.00     0.085 C 
HETATM    4  O1  UNL     1      26.792   8.132  46.470  1.00  0.00    -0.303 OA
HETATM    5  C4  UNL     1      25.807   9.024  46.924  1.00  0.00     0.260 C 
HETATM    6  N1  UNL     1      25.880   8.846  48.153  1.00  0.00    -0.230 NA
HETATM    7  C5  UNL     1      25.348   9.244  49.363  1.00  0.00     0.231 C 
HETATM    8  N2  UNL     1      26.468   9.548  50.083  1.00  0.00    -0.252 NA
HETATM    9  C6  UNL     1      27.561   9.345  49.346  1.00  0.00     0.245 C 
HETATM   10  N3  UNL     1      28.935   9.547  49.604  1.00  0.00    -0.364 N 
HETATM   11  C7  UNL     1      30.208   9.211  48.876  1.00  0.00     0.043 C 
HETATM   12  C8  UNL     1      30.934  10.359  48.709  1.00  0.00    -0.003 C 
HETATM   13  C9  UNL     1      30.668  11.762  49.110  1.00  0.00     0.038 C 
HETATM   14  C10 UNL     1      31.003   8.099  48.242  1.00  0.00     0.136 C 
HETATM   15  C12 UNL     1      30.525   7.654  46.861  1.00  0.00     0.035 C 
HETATM   16  C13 UNL     1      29.188   7.752  46.920  1.00  0.00     0.025 C 
HETATM   17  C14 UNL     1      28.987   6.862  48.126  1.00  0.00     0.053 C 
HETATM   18  P1  UNL     1      27.501   7.439  48.887  1.00  0.00     0.020 P 
HETATM   19  N4  UNL     1      29.813   6.081  48.957  1.00  0.00    -0.385 N 
HETATM   20  C15 UNL     1      30.980   6.890  49.196  1.00  0.00     0.168 C 
HETATM   21  H8  UNL     1      29.092  10.040  50.501  1.00  0.00     0.162 HD
HETATM   22  H17 UNL     1      29.943   5.179  49.435  1.00  0.00     0.159 HD
ENDROOT
BRANCH  14  23
HETATM   23  O2  UNL     1      32.304   8.491  48.161  1.00  0.00    -0.373 OA
HETATM   24  C11 UNL     1      33.260   7.614  48.582  1.00  0.00     0.203 C 
ENDBRANCH  14  23
TORSDOF 1
ENDMDL
MODEL 6
REMARK VINA RESULT:      -6.2      7.138      9.583
REMARK  1 active torsions:
REMARK  status: ('A' for Active; 'I' for Inactive)
REMARK    1  A    between atoms: C10_14  and  O2_15 
ROOT
HETATM    1  C1  UNL     1      22.943   3.166  48.894  1.00  0.00     0.039 C 
HETATM    2  C2  UNL     1      24.167   3.947  48.745  1.00  0.00     0.007 C 
HETATM    3  C3  UNL     1      23.973   4.898  49.620  1.00  0.00     0.085 C 
HETATM    4  O1  UNL     1      22.952   5.152  50.463  1.00  0.00    -0.303 OA
HETATM    5  C4  UNL     1      21.618   5.507  50.204  1.00  0.00     0.260 C 
HETATM    6  N1  UNL     1      21.668   6.739  50.369  1.00  0.00    -0.230 NA
HETATM    7  C5  UNL     1      20.909   7.891  50.339  1.00  0.00     0.231 C 
HETATM    8  N2  UNL     1      21.659   8.708  49.542  1.00  0.00    -0.252 NA
HETATM    9  C6  UNL     1      22.763   8.077  49.141  1.00  0.00     0.245 C 
HETATM   10  N3  UNL     1      23.822   8.458  48.287  1.00  0.00    -0.364 N 
HETATM   11  C7  UNL     1      25.147   7.853  47.910  1.00  0.00     0.043 C 
HETATM   12  C8  UNL     1      25.207   7.743  46.547  1.00  0.00    -0.003 C 
HETATM   13  C9  UNL     1      24.239   8.106  45.484  1.00  0.00     0.038 C 
HETATM   14  C10 UNL     1      26.443   7.303  48.448  1.00  0.00     0.136 C 
HETATM   15  C12 UNL     1      26.371   5.888  49.018  1.00  0.00     0.035 C 
HETATM   16  C13 UNL     1      25.166   5.824  49.607  1.00  0.00     0.025 C 
HETATM   17  C14 UNL     1      25.341   7.014  50.524  1.00  0.00     0.053 C 
HETATM   18  P1  UNL     1      23.709   7.630  50.800  1.00  0.00     0.020 P 
HETATM   19  N4  UNL     1      26.375   7.924  50.816  1.00  0.00    -0.385 N 
HETATM   20  C15 UNL     1      26.952   8.262  49.541  1.00  0.00     0.168 C 
HETATM   21  H8  UNL     1      23.634   9.361  47.817  1.00  0.00     0.162 HD
HETATM   22  H17 UNL     1      26.901   8.419  51.549  1.00  0.00     0.159 HD
ENDROOT
BRANCH  14  23
HETATM   23  O2  UNL     1      27.372   7.339  47.453  1.00  0.00    -0.373 OA
HETATM   24  C11 UNL     1      28.627   6.888  47.738  1.00  0.00     0.203 C 
ENDBRANCH  14  23
TORSDOF 1
ENDMDL
MODEL 7
REMARK VINA RESULT:      -6.1      8.653     11.325
REMARK  1 active torsions:
REMARK  status: ('A' for Active; 'I' for Inactive)
REMARK    1  A    between atoms: C10_14  and  O2_15 
ROOT
HETATM    1  C1  UNL     1      27.193   4.362  49.034  1.00  0.00     0.039 C 
HETATM    2  C2  UNL     1      26.073   5.293  48.942  1.00  0.00     0.007 C 
HETATM    3  C3  UNL     1      25.386   4.974  50.007  1.00  0.00     0.085 C 
HETATM    4  O1  UNL     1      25.591   4.052  50.968  1.00  0.00    -0.303 OA
HETATM    5  C4  UNL     1      25.605   2.649  50.904  1.00  0.00     0.260 C 
HETATM    6  N1  UNL     1      24.460   2.385  51.312  1.00  0.00    -0.230 NA
HETATM    7  C5  UNL     1      23.595   1.344  51.583  1.00  0.00     0.231 C 
HETATM    8  N2  UNL     1      22.470   1.724  50.908  1.00  0.00    -0.252 NA
HETATM    9  C6  UNL     1      22.671   2.889  50.292  1.00  0.00     0.245 C 
HETATM   10  N3  UNL     1      21.855   3.673  49.445  1.00  0.00    -0.364 N 
HETATM   11  C7  UNL     1      21.970   5.046  48.840  1.00  0.00     0.043 C 
HETATM   12  C8  UNL     1      21.823   4.941  47.484  1.00  0.00    -0.003 C 
HETATM   13  C9  UNL     1      21.585   3.770  46.605  1.00  0.00     0.038 C 
HETATM   14  C10 UNL     1      22.198   6.505  49.140  1.00  0.00     0.136 C 
HETATM   15  C12 UNL     1      23.647   6.902  49.415  1.00  0.00     0.035 C 
HETATM   16  C13 UNL     1      24.162   5.856  50.079  1.00  0.00     0.025 C 
HETATM   17  C14 UNL     1      23.148   5.827  51.201  1.00  0.00     0.053 C 
HETATM   18  P1  UNL     1      23.095   4.146  51.737  1.00  0.00     0.020 P 
HETATM   19  N4  UNL     1      22.038   6.606  51.582  1.00  0.00    -0.385 N 
HETATM   20  C15 UNL     1      21.333   6.883  50.358  1.00  0.00     0.168 C 
HETATM   21  H8  UNL     1      20.980   3.182  49.188  1.00  0.00     0.162 HD
HETATM   22  H17 UNL     1      21.543   7.075  52.353  1.00  0.00     0.159 HD
ENDROOT
BRANCH  14  23
HETATM   23  O2  UNL     1      21.721   7.239  48.098  1.00  0.00    -0.373 OA
HETATM   24  C11 UNL     1      21.687   8.595  48.237  1.00  0.00     0.203 C 
ENDBRANCH  14  23
TORSDOF 1
ENDMDL
MODEL 8
REMARK VINA RESULT:      -6.1     10.217     12.379
REMARK  1 active torsions:
REMARK  status: ('A' for Active; 'I' for Inactive)
REMARK    1  A    between atoms: C10_14  and  O2_15 
ROOT
HETATM    1  C1  UNL     1      20.624   3.498  46.377  1.00  0.00     0.039 C 
HETATM    2  C2  UNL     1      21.865   3.561  47.143  1.00  0.00     0.007 C 
HETATM    3  C3  UNL     1      21.559   2.838  48.188  1.00  0.00     0.085 C 
HETATM    4  O1  UNL     1      20.432   2.184  48.532  1.00  0.00    -0.303 OA
HETATM    5  C4  UNL     1      19.152   2.668  48.847  1.00  0.00     0.260 C 
HETATM    6  N1  UNL     1      19.191   2.642  50.090  1.00  0.00    -0.230 NA
HETATM    7  C5  UNL     1      18.456   2.913  51.226  1.00  0.00     0.231 C 
HETATM    8  N2  UNL     1      19.320   3.683  51.950  1.00  0.00    -0.252 NA
HETATM    9  C6  UNL     1      20.463   3.848  51.282  1.00  0.00     0.245 C 
HETATM   10  N3  UNL     1      21.636   4.582  51.568  1.00  0.00    -0.364 N 
HETATM   11  C7  UNL     1      22.995   4.694  50.931  1.00  0.00     0.043 C 
HETATM   12  C8  UNL     1      23.247   6.012  50.665  1.00  0.00    -0.003 C 
HETATM   13  C9  UNL     1      22.443   7.237  50.897  1.00  0.00     0.038 C 
HETATM   14  C10 UNL     1      24.195   3.918  50.455  1.00  0.00     0.136 C 
HETATM   15  C12 UNL     1      24.028   3.203  49.116  1.00  0.00     0.035 C 
HETATM   16  C13 UNL     1      22.752   2.789  49.113  1.00  0.00     0.025 C 
HETATM   17  C14 UNL     1      22.807   2.000  50.402  1.00  0.00     0.053 C 
HETATM   18  P1  UNL     1      21.159   2.031  51.037  1.00  0.00     0.020 P 
HETATM   19  N4  UNL     1      23.799   1.671  51.346  1.00  0.00    -0.385 N 
HETATM   20  C15 UNL     1      24.554   2.881  51.537  1.00  0.00     0.168 C 
HETATM   21  H8  UNL     1      21.526   5.174  52.410  1.00  0.00     0.162 HD
HETATM   22  H17 UNL     1      24.221   0.933  51.926  1.00  0.00     0.159 HD
ENDROOT
BRANCH  14  23
HETATM   23  O2  UNL     1      25.257   4.768  50.381  1.00  0.00    -0.373 OA
HETATM   24  C11 UNL     1      26.282   4.434  49.546  1.00  0.00     0.203 C 
ENDBRANCH  14  23
TORSDOF 1
ENDMDL
MODEL 9
REMARK VINA RESULT:      -6.0     22.335     24.262
REMARK  1 active torsions:
REMARK  status: ('A' for Active; 'I' for Inactive)
REMARK    1  A    between atoms: C10_14  and  O2_15 
ROOT
HETATM    1  C1  UNL     1      43.215  -3.665  69.979  1.00  0.00     0.039 C 
HETATM    2  C2  UNL     1      41.833  -3.812  69.533  1.00  0.00     0.007 C 
HETATM    3  C3  UNL     1      41.741  -2.846  68.658  1.00  0.00     0.085 C 
HETATM    4  O1  UNL     1      42.632  -1.928  68.233  1.00  0.00    -0.303 OA
HETATM    5  C4  UNL     1      43.251  -0.868  68.915  1.00  0.00     0.260 C 
HETATM    6  N1  UNL     1      42.543   0.088  68.554  1.00  0.00    -0.230 NA
HETATM    7  C5  UNL     1      42.372   1.451  68.688  1.00  0.00     0.231 C 
HETATM    8  N2  UNL     1      41.048   1.545  69.005  1.00  0.00    -0.252 NA
HETATM    9  C6  UNL     1      40.497   0.331  69.055  1.00  0.00     0.245 C 
HETATM   10  N3  UNL     1      39.195  -0.112  69.378  1.00  0.00    -0.364 N 
HETATM   11  C7  UNL     1      38.483  -1.437  69.317  1.00  0.00     0.043 C 
HETATM   12  C8  UNL     1      37.975  -1.718  70.556  1.00  0.00    -0.003 C 
HETATM   13  C9  UNL     1      38.019  -0.967  71.835  1.00  0.00     0.038 C 
HETATM   14  C10 UNL     1      38.116  -2.593  68.425  1.00  0.00     0.136 C 
HETATM   15  C12 UNL     1      39.236  -3.595  68.151  1.00  0.00     0.035 C 
HETATM   16  C13 UNL     1      40.347  -2.845  68.077  1.00  0.00     0.025 C 
HETATM   17  C14 UNL     1      39.870  -1.910  66.988  1.00  0.00     0.053 C 
HETATM   18  P1  UNL     1      40.750  -0.402  67.254  1.00  0.00     0.020 P 
HETATM   19  N4  UNL     1      38.716  -1.790  66.190  1.00  0.00    -0.385 N 
HETATM   20  C15 UNL     1      37.613  -2.023  67.085  1.00  0.00     0.168 C 
HETATM   21  H8  UNL     1      38.602   0.657  69.736  1.00  0.00     0.162 HD
HETATM   22  H17 UNL     1      38.338  -1.635  65.246  1.00  0.00     0.159 HD
ENDROOT
BRANCH  14  23
HETATM   23  O2  UNL     1      37.056  -3.246  68.978  1.00  0.00    -0.373 OA
HETATM   24  C11 UNL     1      36.775  -4.501  68.526  1.00  0.00     0.203 C 
ENDBRANCH  14  23
TORSDOF 1
ENDMDL
