MODEL 1
REMARK VINA RESULT:      -7.3      0.000      0.000
REMARK  6 active torsions:
REMARK  status: ('A' for Active; 'I' for Inactive)
REMARK    1  A    between atoms: O1_2  and  C2_3 
REMARK    2  A    between atoms: C5_6  and  S1_7 
REMARK    3  A    between atoms: S1_7  and  C6_8 
REMARK    4  A    between atoms: C10_14  and  O2_15 
REMARK    5  A    between atoms: C12_17  and  O3_18 
REMARK    6  A    between atoms: C16_22  and  O4_23 
ROOT
HETATM    1  C6  UNL     1      23.130  -0.042  53.445  1.00  0.00     0.112 A 
HETATM    2  N1  UNL     1      23.587  -0.714  54.527  1.00  0.00    -0.234 NA
HETATM    3  C7  UNL     1      22.724  -1.462  55.266  1.00  0.00     0.234 A 
HETATM    4  N2  UNL     1      21.419  -1.540  54.931  1.00  0.00    -0.241 NA
HETATM    5  C8  UNL     1      20.935  -0.896  53.876  1.00  0.00     0.074 A 
HETATM    6  C9  UNL     1      19.607  -0.957  53.510  1.00  0.00     0.072 A 
HETATM    7  C10 UNL     1      19.139  -0.273  52.406  1.00  0.00     0.103 A 
HETATM    8  C12 UNL     1      19.968   0.508  51.608  1.00  0.00     0.102 A 
HETATM    9  C14 UNL     1      21.290   0.550  52.000  1.00  0.00     0.056 A 
HETATM   10  C15 UNL     1      21.785  -0.121  53.096  1.00  0.00     0.031 A 
ENDROOT
BRANCH   1  11
HETATM   11  S1  UNL     1      24.203   0.958  52.428  1.00  0.00    -0.071 SA
BRANCH  11  12
HETATM   12  C5  UNL     1      25.844   0.952  53.135  1.00  0.00     0.020 A 
HETATM   13  C4  UNL     1      26.553   2.012  53.500  1.00  0.00     0.020 A 
HETATM   14  C3  UNL     1      27.843   1.584  54.031  1.00  0.00     0.036 A 
HETATM   15  C2  UNL     1      27.885   0.264  53.975  1.00  0.00     0.079 A 
HETATM   16  C16 UNL     1      26.620  -0.284  53.400  1.00  0.00     0.217 A 
BRANCH  15  17
HETATM   17  O1  UNL     1      28.803  -0.739  54.314  1.00  0.00    -0.357 OA
HETATM   18  C1  UNL     1      30.084  -0.750  53.696  1.00  0.00     0.209 C 
ENDBRANCH  15  17
BRANCH  16  19
HETATM   19  O4  UNL     1      26.970  -0.951  52.233  1.00  0.00    -0.379 OA
HETATM   20  C17 UNL     1      26.781  -2.312  52.293  1.00  0.00     0.202 C 
ENDBRANCH  16  19
ENDBRANCH  11  12
ENDBRANCH   1  11
BRANCH   8  21
HETATM   21  O3  UNL     1      19.438   1.169  50.517  1.00  0.00    -0.353 OA
HETATM   22  C13 UNL     1      20.238   1.384  49.384  1.00  0.00     0.210 C 
ENDBRANCH   8  21
BRANCH   7  23
HETATM   23  O2  UNL     1      17.805  -0.346  52.054  1.00  0.00    -0.353 OA
HETATM   24  C11 UNL     1      16.822  -0.962  52.855  1.00  0.00     0.210 C 
ENDBRANCH   7  23
TORSDOF 6
ENDMDL
MODEL 2
REMARK VINA RESULT:      -7.1      2.724      6.941
REMARK  6 active torsions:
REMARK  status: ('A' for Active; 'I' for Inactive)
REMARK    1  A    between atoms: O1_2  and  C2_3 
REMARK    2  A    between atoms: C5_6  and  S1_7 
REMARK    3  A    between atoms: S1_7  and  C6_8 
REMARK    4  A    between atoms: C10_14  and  O2_15 
REMARK    5  A    between atoms: C12_17  and  O3_18 
REMARK    6  A    between atoms: C16_22  and  O4_23 
ROOT
HETATM    1  C6  UNL     1      22.513   1.174  53.086  1.00  0.00     0.112 A 
HETATM    2  N1  UNL     1      21.610   0.461  53.797  1.00  0.00    -0.234 NA
HETATM    3  C7  UNL     1      22.018  -0.631  54.500  1.00  0.00     0.234 A 
HETATM    4  N2  UNL     1      23.313  -1.008  54.494  1.00  0.00    -0.241 NA
HETATM    5  C8  UNL     1      24.228  -0.334  53.809  1.00  0.00     0.074 A 
HETATM    6  C9  UNL     1      25.558  -0.695  53.784  1.00  0.00     0.072 A 
HETATM    7  C10 UNL     1      26.482   0.030  53.060  1.00  0.00     0.103 A 
HETATM    8  C12 UNL     1      26.132   1.155  52.322  1.00  0.00     0.102 A 
HETATM    9  C14 UNL     1      24.795   1.492  52.365  1.00  0.00     0.056 A 
HETATM   10  C15 UNL     1      23.851   0.787  53.078  1.00  0.00     0.031 A 
ENDROOT
BRANCH   1  11
HETATM   11  S1  UNL     1      22.053   2.615  52.141  1.00  0.00    -0.071 SA
BRANCH  11  12
HETATM   12  C5  UNL     1      21.903   2.159  50.420  1.00  0.00     0.020 A 
HETATM   13  C4  UNL     1      21.495   0.990  49.943  1.00  0.00     0.020 A 
HETATM   14  C3  UNL     1      21.515   1.019  48.484  1.00  0.00     0.036 A 
HETATM   15  C2  UNL     1      21.938   2.214  48.109  1.00  0.00     0.079 A 
HETATM   16  C16 UNL     1      22.231   3.070  49.297  1.00  0.00     0.217 A 
BRANCH  15  17
HETATM   17  O1  UNL     1      22.178   2.873  46.896  1.00  0.00    -0.357 OA
HETATM   18  C1  UNL     1      21.282   3.891  46.465  1.00  0.00     0.209 C 
ENDBRANCH  15  17
BRANCH  16  19
HETATM   19  O4  UNL     1      23.584   3.378  49.241  1.00  0.00    -0.379 OA
HETATM   20  C17 UNL     1      23.855   4.721  49.377  1.00  0.00     0.202 C 
ENDBRANCH  16  19
ENDBRANCH  11  12
ENDBRANCH   1  11
BRANCH   8  21
HETATM   21  O3  UNL     1      27.104   1.838  51.617  1.00  0.00    -0.353 OA
HETATM   22  C13 UNL     1      26.740   2.942  50.830  1.00  0.00     0.210 C 
ENDBRANCH   8  21
BRANCH   7  23
HETATM   23  O2  UNL     1      27.811  -0.348  53.048  1.00  0.00    -0.353 OA
HETATM   24  C11 UNL     1      28.712  -0.059  54.094  1.00  0.00     0.210 C 
ENDBRANCH   7  23
TORSDOF 6
ENDMDL
MODEL 3
REMARK VINA RESULT:      -7.1      4.895      6.337
REMARK  6 active torsions:
REMARK  status: ('A' for Active; 'I' for Inactive)
REMARK    1  A    between atoms: O1_2  and  C2_3 
REMARK    2  A    between atoms: C5_6  and  S1_7 
REMARK    3  A    between atoms: S1_7  and  C6_8 
REMARK    4  A    between atoms: C10_14  and  O2_15 
REMARK    5  A    between atoms: C12_17  and  O3_18 
REMARK    6  A    between atoms: C16_22  and  O4_23 
ROOT
HETATM    1  C6  UNL     1      25.662   2.639  51.122  1.00  0.00     0.112 A 
HETATM    2  N1  UNL     1      26.973   2.732  51.443  1.00  0.00    -0.234 NA
HETATM    3  C7  UNL     1      27.485   1.931  52.417  1.00  0.00     0.234 A 
HETATM    4  N2  UNL     1      26.698   1.045  53.063  1.00  0.00    -0.241 NA
HETATM    5  C8  UNL     1      25.408   0.924  52.775  1.00  0.00     0.074 A 
HETATM    6  C9  UNL     1      24.581   0.029  53.418  1.00  0.00     0.072 A 
HETATM    7  C10 UNL     1      23.244  -0.069  53.092  1.00  0.00     0.103 A 
HETATM    8  C12 UNL     1      22.658   0.719  52.108  1.00  0.00     0.102 A 
HETATM    9  C14 UNL     1      23.511   1.606  51.482  1.00  0.00     0.056 A 
HETATM   10  C15 UNL     1      24.848   1.725  51.787  1.00  0.00     0.031 A 
ENDROOT
BRANCH   1  11
HETATM   11  S1  UNL     1      24.921   3.656  49.857  1.00  0.00    -0.071 SA
BRANCH  11  12
HETATM   12  C5  UNL     1      26.143   4.810  49.250  1.00  0.00     0.020 A 
HETATM   13  C4  UNL     1      27.367   4.518  48.828  1.00  0.00     0.020 A 
HETATM   14  C3  UNL     1      28.050   5.740  48.415  1.00  0.00     0.036 A 
HETATM   15  C2  UNL     1      27.218   6.750  48.598  1.00  0.00     0.079 A 
HETATM   16  C16 UNL     1      25.914   6.271  49.149  1.00  0.00     0.217 A 
BRANCH  15  17
HETATM   17  O1  UNL     1      27.247   8.138  48.410  1.00  0.00    -0.357 OA
HETATM   18  C1  UNL     1      28.428   8.862  48.735  1.00  0.00     0.209 C 
ENDBRANCH  15  17
BRANCH  16  19
HETATM   19  O4  UNL     1      25.763   6.872  50.392  1.00  0.00    -0.379 OA
HETATM   20  C17 UNL     1      24.515   7.415  50.599  1.00  0.00     0.202 C 
ENDBRANCH  16  19
ENDBRANCH  11  12
ENDBRANCH   1  11
BRANCH   8  21
HETATM   21  O3  UNL     1      21.313   0.574  51.828  1.00  0.00    -0.353 OA
HETATM   22  C13 UNL     1      20.417   1.588  52.199  1.00  0.00     0.210 C 
ENDBRANCH   8  21
BRANCH   7  23
HETATM   23  O2  UNL     1      22.430  -0.973  53.748  1.00  0.00    -0.353 OA
HETATM   24  C11 UNL     1      22.543  -1.268  55.122  1.00  0.00     0.210 C 
ENDBRANCH   7  23
TORSDOF 6
ENDMDL
MODEL 4
REMARK VINA RESULT:      -7.0      4.048      7.385
REMARK  6 active torsions:
REMARK  status: ('A' for Active; 'I' for Inactive)
REMARK    1  A    between atoms: O1_2  and  C2_3 
REMARK    2  A    between atoms: C5_6  and  S1_7 
REMARK    3  A    between atoms: S1_7  and  C6_8 
REMARK    4  A    between atoms: C10_14  and  O2_15 
REMARK    5  A    between atoms: C12_17  and  O3_18 
REMARK    6  A    between atoms: C16_22  and  O4_23 
ROOT
HETATM    1  C6  UNL     1      23.245   2.466  52.585  1.00  0.00     0.112 A 
HETATM    2  N1  UNL     1      22.103   1.867  52.176  1.00  0.00    -0.234 NA
HETATM    3  C7  UNL     1      22.004   0.510  52.218  1.00  0.00     0.234 A 
HETATM    4  N2  UNL     1      23.032  -0.241  52.663  1.00  0.00    -0.241 NA
HETATM    5  C8  UNL     1      24.168   0.311  53.073  1.00  0.00     0.074 A 
HETATM    6  C9  UNL     1      25.234  -0.432  53.533  1.00  0.00     0.072 A 
HETATM    7  C10 UNL     1      26.400   0.177  53.951  1.00  0.00     0.103 A 
HETATM    8  C12 UNL     1      26.566   1.558  53.935  1.00  0.00     0.102 A 
HETATM    9  C14 UNL     1      25.482   2.273  53.470  1.00  0.00     0.056 A 
HETATM   10  C15 UNL     1      24.308   1.693  53.046  1.00  0.00     0.031 A 
ENDROOT
BRANCH   1  11
HETATM   11  S1  UNL     1      23.447   4.239  52.560  1.00  0.00    -0.071 SA
BRANCH  11  12
HETATM   12  C5  UNL     1      24.078   4.728  50.961  1.00  0.00     0.020 A 
HETATM   13  C4  UNL     1      25.240   4.377  50.427  1.00  0.00     0.020 A 
HETATM   14  C3  UNL     1      25.381   4.986  49.109  1.00  0.00     0.036 A 
HETATM   15  C2  UNL     1      24.293   5.697  48.874  1.00  0.00     0.079 A 
HETATM   16  C16 UNL     1      23.344   5.612  50.024  1.00  0.00     0.217 A 
BRANCH  15  17
HETATM   17  O1  UNL     1      23.809   6.501  47.833  1.00  0.00    -0.357 OA
HETATM   18  C1  UNL     1      24.611   7.571  47.347  1.00  0.00     0.209 C 
ENDBRANCH  15  17
BRANCH  16  19
HETATM   19  O4  UNL     1      23.199   6.903  50.516  1.00  0.00    -0.379 OA
HETATM   20  C17 UNL     1      21.890   7.279  50.714  1.00  0.00     0.202 C 
ENDBRANCH  16  19
ENDBRANCH  11  12
ENDBRANCH   1  11
BRANCH   8  21
HETATM   21  O3  UNL     1      27.758   2.106  54.367  1.00  0.00    -0.353 OA
HETATM   22  C13 UNL     1      28.696   2.552  53.423  1.00  0.00     0.210 C 
ENDBRANCH   8  21
BRANCH   7  23
HETATM   23  O2  UNL     1      27.459  -0.583  54.409  1.00  0.00    -0.353 OA
HETATM   24  C11 UNL     1      28.450  -1.125  53.565  1.00  0.00     0.210 C 
ENDBRANCH   7  23
TORSDOF 6
ENDMDL
MODEL 5
REMARK VINA RESULT:      -7.0      2.412      3.641
REMARK  6 active torsions:
REMARK  status: ('A' for Active; 'I' for Inactive)
REMARK    1  A    between atoms: O1_2  and  C2_3 
REMARK    2  A    between atoms: C5_6  and  S1_7 
REMARK    3  A    between atoms: S1_7  and  C6_8 
REMARK    4  A    between atoms: C10_14  and  O2_15 
REMARK    5  A    between atoms: C12_17  and  O3_18 
REMARK    6  A    between atoms: C16_22  and  O4_23 
ROOT
HETATM    1  C6  UNL     1      23.895   2.336  51.404  1.00  0.00     0.112 A 
HETATM    2  N1  UNL     1      24.346   2.935  50.278  1.00  0.00    -0.234 NA
HETATM    3  C7  UNL     1      23.588   2.901  49.149  1.00  0.00     0.234 A 
HETATM    4  N2  UNL     1      22.392   2.276  49.143  1.00  0.00    -0.241 NA
HETATM    5  C8  UNL     1      21.916   1.679  50.228  1.00  0.00     0.074 A 
HETATM    6  C9  UNL     1      20.697   1.034  50.251  1.00  0.00     0.072 A 
HETATM    7  C10 UNL     1      20.235   0.423  51.398  1.00  0.00     0.103 A 
HETATM    8  C12 UNL     1      20.960   0.422  52.585  1.00  0.00     0.102 A 
HETATM    9  C14 UNL     1      22.174   1.075  52.531  1.00  0.00     0.056 A 
HETATM   10  C15 UNL     1      22.661   1.692  51.401  1.00  0.00     0.031 A 
ENDROOT
BRANCH   1  11
HETATM   11  S1  UNL     1      24.834   2.341  52.922  1.00  0.00    -0.071 SA
BRANCH  11  12
HETATM   12  C5  UNL     1      25.832   0.860  52.992  1.00  0.00     0.020 A 
HETATM   13  C4  UNL     1      25.391  -0.388  53.080  1.00  0.00     0.020 A 
HETATM   14  C3  UNL     1      26.523  -1.309  53.112  1.00  0.00     0.036 A 
HETATM   15  C2  UNL     1      27.630  -0.591  53.041  1.00  0.00     0.079 A 
HETATM   16  C16 UNL     1      27.314   0.866  52.957  1.00  0.00     0.217 A 
BRANCH  15  17
HETATM   17  O1  UNL     1      29.008  -0.847  53.027  1.00  0.00    -0.357 OA
HETATM   18  C1  UNL     1      29.482  -2.138  53.389  1.00  0.00     0.209 C 
ENDBRANCH  15  17
BRANCH  16  19
HETATM   19  O4  UNL     1      27.869   1.460  54.084  1.00  0.00    -0.379 OA
HETATM   20  C17 UNL     1      28.742   2.484  53.800  1.00  0.00     0.202 C 
ENDBRANCH  16  19
ENDBRANCH  11  12
ENDBRANCH   1  11
BRANCH   8  21
HETATM   21  O3  UNL     1      20.441  -0.208  53.700  1.00  0.00    -0.353 OA
HETATM   22  C13 UNL     1      21.045  -1.383  54.173  1.00  0.00     0.210 C 
ENDBRANCH   8  21
BRANCH   7  23
HETATM   23  O2  UNL     1      19.011  -0.219  51.402  1.00  0.00    -0.353 OA
HETATM   24  C11 UNL     1      17.798   0.417  51.066  1.00  0.00     0.210 C 
ENDBRANCH   7  23
TORSDOF 6
ENDMDL
MODEL 6
REMARK VINA RESULT:      -6.9      3.322      8.127
REMARK  6 active torsions:
REMARK  status: ('A' for Active; 'I' for Inactive)
REMARK    1  A    between atoms: O1_2  and  C2_3 
REMARK    2  A    between atoms: C5_6  and  S1_7 
REMARK    3  A    between atoms: S1_7  and  C6_8 
REMARK    4  A    between atoms: C10_14  and  O2_15 
REMARK    5  A    between atoms: C12_17  and  O3_18 
REMARK    6  A    between atoms: C16_22  and  O4_23 
ROOT
HETATM    1  C6  UNL     1      24.438   2.256  51.792  1.00  0.00     0.112 A 
HETATM    2  N1  UNL     1      24.784   3.148  50.835  1.00  0.00    -0.234 NA
HETATM    3  C7  UNL     1      26.099   3.358  50.556  1.00  0.00     0.234 A 
HETATM    4  N2  UNL     1      27.060   2.686  51.223  1.00  0.00    -0.241 NA
HETATM    5  C8  UNL     1      26.760   1.803  52.167  1.00  0.00     0.074 A 
HETATM    6  C9  UNL     1      27.720   1.101  52.864  1.00  0.00     0.072 A 
HETATM    7  C10 UNL     1      27.371   0.190  53.840  1.00  0.00     0.103 A 
HETATM    8  C12 UNL     1      26.047  -0.072  54.174  1.00  0.00     0.102 A 
HETATM    9  C14 UNL     1      25.109   0.645  53.459  1.00  0.00     0.056 A 
HETATM   10  C15 UNL     1      25.428   1.560  52.482  1.00  0.00     0.031 A 
ENDROOT
BRANCH   1  11
HETATM   11  S1  UNL     1      22.736   1.927  52.212  1.00  0.00    -0.071 SA
BRANCH  11  12
HETATM   12  C5  UNL     1      21.740   2.044  50.732  1.00  0.00     0.020 A 
HETATM   13  C4  UNL     1      21.648   1.139  49.766  1.00  0.00     0.020 A 
HETATM   14  C3  UNL     1      20.731   1.612  48.735  1.00  0.00     0.036 A 
HETATM   15  C2  UNL     1      20.286   2.800  49.103  1.00  0.00     0.079 A 
HETATM   16  C16 UNL     1      20.877   3.206  50.413  1.00  0.00     0.217 A 
BRANCH  15  17
HETATM   17  O1  UNL     1      19.411   3.764  48.583  1.00  0.00    -0.357 OA
HETATM   18  C1  UNL     1      19.564   4.191  47.235  1.00  0.00     0.209 C 
ENDBRANCH  15  17
BRANCH  16  19
HETATM   19  O4  UNL     1      21.610   4.362  50.177  1.00  0.00    -0.379 OA
HETATM   20  C17 UNL     1      21.420   5.344  51.122  1.00  0.00     0.202 C 
ENDBRANCH  16  19
ENDBRANCH  11  12
ENDBRANCH   1  11
BRANCH   8  21
HETATM   21  O3  UNL     1      25.762  -0.996  55.161  1.00  0.00    -0.353 OA
HETATM   22  C13 UNL     1      24.426  -1.241  55.513  1.00  0.00     0.210 C 
ENDBRANCH   8  21
BRANCH   7  23
HETATM   23  O2  UNL     1      28.347  -0.504  54.529  1.00  0.00    -0.353 OA
HETATM   24  C11 UNL     1      29.566  -0.913  53.949  1.00  0.00     0.210 C 
ENDBRANCH   7  23
TORSDOF 6
ENDMDL
MODEL 7
REMARK VINA RESULT:      -6.9      2.281      7.682
REMARK  6 active torsions:
REMARK  status: ('A' for Active; 'I' for Inactive)
REMARK    1  A    between atoms: O1_2  and  C2_3 
REMARK    2  A    between atoms: C5_6  and  S1_7 
REMARK    3  A    between atoms: S1_7  and  C6_8 
REMARK    4  A    between atoms: C10_14  and  O2_15 
REMARK    5  A    between atoms: C12_17  and  O3_18 
REMARK    6  A    between atoms: C16_22  and  O4_23 
ROOT
HETATM    1  C6  UNL     1      22.060   0.140  52.809  1.00  0.00     0.112 A 
HETATM    2  N1  UNL     1      21.096  -0.367  53.612  1.00  0.00    -0.234 NA
HETATM    3  C7  UNL     1      21.449  -1.055  54.732  1.00  0.00     0.234 A 
HETATM    4  N2  UNL     1      22.748  -1.234  55.048  1.00  0.00    -0.241 NA
HETATM    5  C8  UNL     1      23.721  -0.751  54.286  1.00  0.00     0.074 A 
HETATM    6  C9  UNL     1      25.056  -0.918  54.585  1.00  0.00     0.072 A 
HETATM    7  C10 UNL     1      26.041  -0.401  53.769  1.00  0.00     0.103 A 
HETATM    8  C12 UNL     1      25.749   0.312  52.610  1.00  0.00     0.102 A 
HETATM    9  C14 UNL     1      24.405   0.463  52.338  1.00  0.00     0.056 A 
HETATM   10  C15 UNL     1      23.401  -0.043  53.133  1.00  0.00     0.031 A 
ENDROOT
BRANCH   1  11
HETATM   11  S1  UNL     1      21.674   1.053  51.325  1.00  0.00    -0.071 SA
BRANCH  11  12
HETATM   12  C5  UNL     1      19.956   1.545  51.376  1.00  0.00     0.020 A 
HETATM   13  C4  UNL     1      18.908   0.798  51.056  1.00  0.00     0.020 A 
HETATM   14  C3  UNL     1      17.681   1.567  51.233  1.00  0.00     0.036 A 
HETATM   15  C2  UNL     1      18.018   2.771  51.660  1.00  0.00     0.079 A 
HETATM   16  C16 UNL     1      19.500   2.891  51.799  1.00  0.00     0.217 A 
BRANCH  15  17
HETATM   17  O1  UNL     1      17.345   3.950  52.011  1.00  0.00    -0.357 OA
HETATM   18  C1  UNL     1      16.053   4.203  51.474  1.00  0.00     0.209 C 
ENDBRANCH  15  17
BRANCH  16  19
HETATM   19  O4  UNL     1      19.903   3.888  50.920  1.00  0.00    -0.379 OA
HETATM   20  C17 UNL     1      20.953   4.647  51.383  1.00  0.00     0.202 C 
ENDBRANCH  16  19
ENDBRANCH  11  12
ENDBRANCH   1  11
BRANCH   8  21
HETATM   21  O3  UNL     1      26.780   0.804  51.835  1.00  0.00    -0.353 OA
HETATM   22  C13 UNL     1      26.679   2.092  51.287  1.00  0.00     0.210 C 
ENDBRANCH   8  21
BRANCH   7  23
HETATM   23  O2  UNL     1      27.374  -0.578  54.084  1.00  0.00    -0.353 OA
HETATM   24  C11 UNL     1      28.109   0.317  54.889  1.00  0.00     0.210 C 
ENDBRANCH   7  23
TORSDOF 6
ENDMDL
MODEL 8
REMARK VINA RESULT:      -6.8      2.857      6.268
REMARK  6 active torsions:
REMARK  status: ('A' for Active; 'I' for Inactive)
REMARK    1  A    between atoms: O1_2  and  C2_3 
REMARK    2  A    between atoms: C5_6  and  S1_7 
REMARK    3  A    between atoms: S1_7  and  C6_8 
REMARK    4  A    between atoms: C10_14  and  O2_15 
REMARK    5  A    between atoms: C12_17  and  O3_18 
REMARK    6  A    between atoms: C16_22  and  O4_23 
ROOT
HETATM    1  C6  UNL     1      21.964   0.112  52.692  1.00  0.00     0.112 A 
HETATM    2  N1  UNL     1      20.958  -0.376  53.456  1.00  0.00    -0.234 NA
HETATM    3  C7  UNL     1      21.251  -1.059  54.595  1.00  0.00     0.234 A 
HETATM    4  N2  UNL     1      22.532  -1.254  54.971  1.00  0.00    -0.241 NA
HETATM    5  C8  UNL     1      23.545  -0.790  54.249  1.00  0.00     0.074 A 
HETATM    6  C9  UNL     1      24.863  -0.974  54.608  1.00  0.00     0.072 A 
HETATM    7  C10 UNL     1      25.890  -0.477  53.832  1.00  0.00     0.103 A 
HETATM    8  C12 UNL     1      25.660   0.229  52.656  1.00  0.00     0.102 A 
HETATM    9  C14 UNL     1      24.331   0.397  52.323  1.00  0.00     0.056 A 
HETATM   10  C15 UNL     1      23.287  -0.088  53.077  1.00  0.00     0.031 A 
ENDROOT
BRANCH   1  11
HETATM   11  S1  UNL     1      21.657   1.017  51.186  1.00  0.00    -0.071 SA
BRANCH  11  12
HETATM   12  C5  UNL     1      22.077   2.735  51.445  1.00  0.00     0.020 A 
HETATM   13  C4  UNL     1      21.781   3.471  52.508  1.00  0.00     0.020 A 
HETATM   14  C3  UNL     1      22.302   4.822  52.332  1.00  0.00     0.036 A 
HETATM   15  C2  UNL     1      22.905   4.874  51.158  1.00  0.00     0.079 A 
HETATM   16  C16 UNL     1      22.830   3.553  50.464  1.00  0.00     0.217 A 
BRANCH  15  17
HETATM   17  O1  UNL     1      23.589   5.840  50.408  1.00  0.00    -0.357 OA
HETATM   18  C1  UNL     1      24.983   5.681  50.170  1.00  0.00     0.209 C 
ENDBRANCH  15  17
BRANCH  16  19
HETATM   19  O4  UNL     1      22.118   3.761  49.290  1.00  0.00    -0.379 OA
HETATM   20  C17 UNL     1      22.682   3.166  48.185  1.00  0.00     0.202 C 
ENDBRANCH  16  19
ENDBRANCH  11  12
ENDBRANCH   1  11
BRANCH   8  21
HETATM   21  O3  UNL     1      26.732   0.700  51.923  1.00  0.00    -0.353 OA
HETATM   22  C13 UNL     1      26.792   2.061  51.584  1.00  0.00     0.210 C 
ENDBRANCH   8  21
BRANCH   7  23
HETATM   23  O2  UNL     1      27.205  -0.671  54.207  1.00  0.00    -0.353 OA
HETATM   24  C11 UNL     1      27.946   0.265  54.958  1.00  0.00     0.210 C 
ENDBRANCH   7  23
TORSDOF 6
ENDMDL
MODEL 9
REMARK VINA RESULT:      -6.7      2.656      7.430
REMARK  6 active torsions:
REMARK  status: ('A' for Active; 'I' for Inactive)
REMARK    1  A    between atoms: O1_2  and  C2_3 
REMARK    2  A    between atoms: C5_6  and  S1_7 
REMARK    3  A    between atoms: S1_7  and  C6_8 
REMARK    4  A    between atoms: C10_14  and  O2_15 
REMARK    5  A    between atoms: C12_17  and  O3_18 
REMARK    6  A    between atoms: C16_22  and  O4_23 
ROOT
HETATM    1  C6  UNL     1      24.333   3.259  51.515  1.00  0.00     0.112 A 
HETATM    2  N1  UNL     1      25.003   4.033  50.630  1.00  0.00    -0.234 NA
HETATM    3  C7  UNL     1      26.246   3.661  50.219  1.00  0.00     0.234 A 
HETATM    4  N2  UNL     1      26.815   2.531  50.685  1.00  0.00    -0.241 NA
HETATM    5  C8  UNL     1      26.189   1.746  51.553  1.00  0.00     0.074 A 
HETATM    6  C9  UNL     1      26.746   0.585  52.046  1.00  0.00     0.072 A 
HETATM    7  C10 UNL     1      26.065  -0.206  52.948  1.00  0.00     0.103 A 
HETATM    8  C12 UNL     1      24.792   0.115  53.408  1.00  0.00     0.102 A 
HETATM    9  C14 UNL     1      24.262   1.282  52.897  1.00  0.00     0.056 A 
HETATM   10  C15 UNL     1      24.918   2.091  51.997  1.00  0.00     0.031 A 
ENDROOT
BRANCH   1  11
HETATM   11  S1  UNL     1      22.701   3.681  52.097  1.00  0.00    -0.071 SA
BRANCH  11  12
HETATM   12  C5  UNL     1      21.525   2.515  51.426  1.00  0.00     0.020 A 
HETATM   13  C4  UNL     1      21.563   1.954  50.224  1.00  0.00     0.020 A 
HETATM   14  C3  UNL     1      20.422   1.060  50.061  1.00  0.00     0.036 A 
HETATM   15  C2  UNL     1      19.714   1.101  51.176  1.00  0.00     0.079 A 
HETATM   16  C16 UNL     1      20.336   2.029  52.167  1.00  0.00     0.217 A 
BRANCH  15  17
HETATM   17  O1  UNL     1      18.542   0.502  51.658  1.00  0.00    -0.357 OA
HETATM   18  C1  UNL     1      18.633  -0.502  52.662  1.00  0.00     0.209 C 
ENDBRANCH  15  17
BRANCH  16  19
HETATM   19  O4  UNL     1      19.410   3.037  52.404  1.00  0.00    -0.379 OA
HETATM   20  C17 UNL     1      19.178   3.845  51.315  1.00  0.00     0.202 C 
ENDBRANCH  16  19
ENDBRANCH  11  12
ENDBRANCH   1  11
BRANCH   8  21
HETATM   21  O3  UNL     1      24.163  -0.718  54.312  1.00  0.00    -0.353 OA
HETATM   22  C13 UNL     1      22.774  -0.904  54.229  1.00  0.00     0.210 C 
ENDBRANCH   8  21
BRANCH   7  23
HETATM   23  O2  UNL     1      26.639  -1.366  53.432  1.00  0.00    -0.353 OA
HETATM   24  C11 UNL     1      27.222  -2.349  52.605  1.00  0.00     0.210 C 
ENDBRANCH   7  23
TORSDOF 6
ENDMDL
