MODEL 1
REMARK VINA RESULT:      -8.7      0.000      0.000
REMARK  4 active torsions:
REMARK  status: ('A' for Active; 'I' for Inactive)
REMARK    1  A    between atoms: O1_2  and  C2_3 
REMARK    2  A    between atoms: C13_15  and  N2_16 
REMARK    3  A    between atoms: N2_16  and  C14_17 
REMARK    4  A    between atoms: C18_21  and  N3_22 
ROOT
HETATM    1  C2  UNL     1      25.973   0.241  54.240  1.00  0.00     0.074 C 
HETATM    2  C3  UNL     1      24.960  -0.785  54.499  1.00  0.00     0.034 C 
HETATM    3  C4  UNL     1      23.578  -0.824  53.910  1.00  0.00     0.000 C 
HETATM    4  C5  UNL     1      22.740  -0.175  53.110  1.00  0.00    -0.007 C 
HETATM    5  C6  UNL     1      21.586   0.219  52.319  1.00  0.00     0.146 C 
HETATM    6  N1  UNL     1      22.023   0.616  50.884  1.00  0.00    -0.390 N 
HETATM    7  C7  UNL     1      23.001   1.424  51.542  1.00  0.00     0.045 A 
HETATM    8  C8  UNL     1      24.085   1.906  52.234  1.00  0.00     0.314 A 
HETATM    9  C9  UNL     1      24.380   3.135  52.893  1.00  0.00     0.180 A 
HETATM   10  C10 UNL     1      23.682   4.317  53.079  1.00  0.00     0.036 A 
HETATM   11  C11 UNL     1      22.513   4.045  52.397  1.00  0.00     0.002 A 
HETATM   12  C12 UNL     1      22.698   2.599  51.888  1.00  0.00     0.120 A 
HETATM   13  C13 UNL     1      24.324   3.055  50.837  1.00  0.00     0.153 C 
HETATM   14  N4  UNL     1      25.682   2.845  51.416  1.00  0.00    -0.063 NA
HETATM   15  N5  UNL     1      25.565   2.351  52.884  1.00  0.00     0.084 N 
HETATM   16  C20 UNL     1      26.371   1.494  53.637  1.00  0.00     0.339 C 
HETATM   17  H9  UNL     1      21.921   0.566  49.907  1.00  0.00     0.159 HD
ENDROOT
BRANCH  13  18
HETATM   18  N2  UNL     1      24.739   3.667  49.376  1.00  0.00    -0.342 N 
HETATM   19  H13 UNL     1      24.467   2.840  48.832  1.00  0.00     0.167 HD
BRANCH  18  20
HETATM   20  C14 UNL     1      25.214   4.950  49.476  1.00  0.00     0.035 A 
HETATM   21  C15 UNL     1      26.437   5.314  48.764  1.00  0.00     0.029 A 
HETATM   22  C16 UNL     1      26.780   6.634  48.995  1.00  0.00     0.004 A 
HETATM   23  C17 UNL     1      26.104   7.555  49.791  1.00  0.00     0.029 A 
HETATM   24  C18 UNL     1      24.930   7.210  50.479  1.00  0.00     0.027 A 
HETATM   25  C19 UNL     1      24.693   5.901  50.180  1.00  0.00     0.058 A 
BRANCH  24  26
HETATM   26  N3  UNL     1      24.369   8.215  51.246  1.00  0.00    -0.399 N 
HETATM   27  H17 UNL     1      23.328   8.128  51.447  1.00  0.00     0.156 HD
HETATM   28  H18 UNL     1      25.098   8.949  51.515  1.00  0.00     0.156 HD
ENDBRANCH  24  26
ENDBRANCH  18  20
ENDBRANCH  13  18
BRANCH   1  29
HETATM   29  O1  UNL     1      26.946  -0.328  55.002  1.00  0.00    -0.358 OA
HETATM   30  C1  UNL     1      28.273   0.064  54.987  1.00  0.00     0.209 C 
ENDBRANCH   1  29
TORSDOF 4
ENDMDL
MODEL 2
REMARK VINA RESULT:      -8.6      1.970      3.541
REMARK  4 active torsions:
REMARK  status: ('A' for Active; 'I' for Inactive)
REMARK    1  A    between atoms: O1_2  and  C2_3 
REMARK    2  A    between atoms: C13_15  and  N2_16 
REMARK    3  A    between atoms: N2_16  and  C14_17 
REMARK    4  A    between atoms: C18_21  and  N3_22 
ROOT
HETATM    1  C2  UNL     1      23.862   0.056  53.457  1.00  0.00     0.074 C 
HETATM    2  C3  UNL     1      25.297  -0.167  53.268  1.00  0.00     0.034 C 
HETATM    3  C4  UNL     1      26.195   0.615  52.352  1.00  0.00     0.000 C 
HETATM    4  C5  UNL     1      26.214   1.603  51.464  1.00  0.00    -0.007 C 
HETATM    5  C6  UNL     1      26.631   2.600  50.493  1.00  0.00     0.146 C 
HETATM    6  N1  UNL     1      26.043   3.990  50.856  1.00  0.00    -0.390 N 
HETATM    7  C7  UNL     1      24.802   3.293  50.976  1.00  0.00     0.045 A 
HETATM    8  C8  UNL     1      23.747   2.506  51.374  1.00  0.00     0.314 A 
HETATM    9  C9  UNL     1      22.608   1.961  50.714  1.00  0.00     0.180 A 
HETATM   10  C10 UNL     1      22.128   2.023  49.416  1.00  0.00     0.036 A 
HETATM   11  C11 UNL     1      23.072   2.837  48.823  1.00  0.00     0.002 A 
HETATM   12  C12 UNL     1      24.079   3.138  49.954  1.00  0.00     0.120 A 
HETATM   13  C13 UNL     1      22.700   3.977  51.114  1.00  0.00     0.153 C 
HETATM   14  N4  UNL     1      22.011   3.179  52.169  1.00  0.00    -0.063 NA
HETATM   15  N5  UNL     1      22.473   1.698  52.104  1.00  0.00     0.084 N 
HETATM   16  C20 UNL     1      22.635   0.736  53.104  1.00  0.00     0.339 C 
HETATM   17  H9  UNL     1      26.143   4.959  50.996  1.00  0.00     0.159 HD
ENDROOT
BRANCH  13  18
HETATM   18  N2  UNL     1      21.958   5.421  51.333  1.00  0.00    -0.342 N 
HETATM   19  H13 UNL     1      21.149   5.049  51.847  1.00  0.00     0.167 HD
BRANCH  18  20
HETATM   20  C14 UNL     1      22.688   6.456  50.806  1.00  0.00     0.035 A 
HETATM   21  C15 UNL     1      22.027   7.419  49.929  1.00  0.00     0.029 A 
HETATM   22  C16 UNL     1      22.915   8.377  49.473  1.00  0.00     0.004 A 
HETATM   23  C17 UNL     1      24.273   8.474  49.762  1.00  0.00     0.029 A 
HETATM   24  C18 UNL     1      24.913   7.549  50.603  1.00  0.00     0.027 A 
HETATM   25  C19 UNL     1      23.951   6.663  50.986  1.00  0.00     0.058 A 
BRANCH  24  26
HETATM   26  N3  UNL     1      26.268   7.754  50.793  1.00  0.00    -0.399 N 
HETATM   27  H17 UNL     1      26.725   8.487  50.172  1.00  0.00     0.156 HD
HETATM   28  H18 UNL     1      26.653   7.112  51.557  1.00  0.00     0.156 HD
ENDBRANCH  24  26
ENDBRANCH  18  20
ENDBRANCH  13  18
BRANCH   1  29
HETATM   29  O1  UNL     1      23.695  -0.906  54.405  1.00  0.00    -0.358 OA
HETATM   30  C1  UNL     1      22.471  -1.256  54.949  1.00  0.00     0.209 C 
ENDBRANCH   1  29
TORSDOF 4
ENDMDL
MODEL 3
REMARK VINA RESULT:      -8.5      2.088      3.852
REMARK  4 active torsions:
REMARK  status: ('A' for Active; 'I' for Inactive)
REMARK    1  A    between atoms: O1_2  and  C2_3 
REMARK    2  A    between atoms: C13_15  and  N2_16 
REMARK    3  A    between atoms: N2_16  and  C14_17 
REMARK    4  A    between atoms: C18_21  and  N3_22 
ROOT
HETATM    1  C2  UNL     1      21.525   0.279  53.253  1.00  0.00     0.074 C 
HETATM    2  C3  UNL     1      22.555  -0.658  53.708  1.00  0.00     0.034 C 
HETATM    3  C4  UNL     1      24.039  -0.436  53.637  1.00  0.00     0.000 C 
HETATM    4  C5  UNL     1      24.972   0.421  53.240  1.00  0.00    -0.007 C 
HETATM    5  C6  UNL     1      26.238   1.081  52.964  1.00  0.00     0.146 C 
HETATM    6  N1  UNL     1      26.191   2.560  53.432  1.00  0.00    -0.390 N 
HETATM    7  C7  UNL     1      24.956   2.615  52.715  1.00  0.00     0.045 A 
HETATM    8  C8  UNL     1      23.657   2.488  52.286  1.00  0.00     0.314 A 
HETATM    9  C9  UNL     1      23.005   2.643  51.028  1.00  0.00     0.180 A 
HETATM   10  C10 UNL     1      23.437   2.989  49.758  1.00  0.00     0.036 A 
HETATM   11  C11 UNL     1      24.782   3.202  49.984  1.00  0.00     0.002 A 
HETATM   12  C12 UNL     1      24.968   2.895  51.485  1.00  0.00     0.120 A 
HETATM   13  C13 UNL     1      23.677   4.297  52.051  1.00  0.00     0.153 C 
HETATM   14  N4  UNL     1      22.254   3.948  52.329  1.00  0.00    -0.063 NA
HETATM   15  N5  UNL     1      22.004   2.447  52.016  1.00  0.00     0.084 N 
HETATM   16  C20 UNL     1      21.145   1.513  52.600  1.00  0.00     0.339 C 
HETATM   17  H9  UNL     1      26.584   3.327  53.907  1.00  0.00     0.159 HD
ENDROOT
BRANCH  13  18
HETATM   18  N2  UNL     1      23.627   5.907  52.344  1.00  0.00    -0.342 N 
HETATM   19  H13 UNL     1      23.307   5.829  53.318  1.00  0.00     0.167 HD
BRANCH  18  20
HETATM   20  C14 UNL     1      24.035   6.639  51.258  1.00  0.00     0.035 A 
HETATM   21  C15 UNL     1      23.040   7.367  50.475  1.00  0.00     0.029 A 
HETATM   22  C16 UNL     1      23.624   8.027  49.408  1.00  0.00     0.004 A 
HETATM   23  C17 UNL     1      24.971   8.039  49.058  1.00  0.00     0.029 A 
HETATM   24  C18 UNL     1      25.931   7.338  49.806  1.00  0.00     0.027 A 
HETATM   25  C19 UNL     1      25.248   6.733  50.819  1.00  0.00     0.058 A 
BRANCH  24  26
HETATM   26  N3  UNL     1      27.230   7.422  49.338  1.00  0.00    -0.399 N 
HETATM   27  H17 UNL     1      27.439   6.904  48.433  1.00  0.00     0.156 HD
HETATM   28  H18 UNL     1      27.840   8.009  49.992  1.00  0.00     0.156 HD
ENDBRANCH  24  26
ENDBRANCH  18  20
ENDBRANCH  13  18
BRANCH   1  29
HETATM   29  O1  UNL     1      20.465  -0.480  53.638  1.00  0.00    -0.358 OA
HETATM   30  C1  UNL     1      19.221  -0.441  53.033  1.00  0.00     0.209 C 
ENDBRANCH   1  29
TORSDOF 4
ENDMDL
MODEL 4
REMARK VINA RESULT:      -7.8      3.352      6.907
REMARK  4 active torsions:
REMARK  status: ('A' for Active; 'I' for Inactive)
REMARK    1  A    between atoms: O1_2  and  C2_3 
REMARK    2  A    between atoms: C13_15  and  N2_16 
REMARK    3  A    between atoms: N2_16  and  C14_17 
REMARK    4  A    between atoms: C18_21  and  N3_22 
ROOT
HETATM    1  C2  UNL     1      22.571   7.196  48.300  1.00  0.00     0.074 C 
HETATM    2  C3  UNL     1      21.823   6.452  47.284  1.00  0.00     0.034 C 
HETATM    3  C4  UNL     1      21.785   4.956  47.140  1.00  0.00     0.000 C 
HETATM    4  C5  UNL     1      22.257   3.823  47.647  1.00  0.00    -0.007 C 
HETATM    5  C6  UNL     1      22.533   2.423  47.920  1.00  0.00     0.146 C 
HETATM    6  N1  UNL     1      22.397   2.129  49.438  1.00  0.00    -0.390 N 
HETATM    7  C7  UNL     1      23.234   3.275  49.605  1.00  0.00     0.045 A 
HETATM    8  C8  UNL     1      23.759   4.543  49.681  1.00  0.00     0.314 A 
HETATM    9  C9  UNL     1      25.082   5.074  49.686  1.00  0.00     0.180 A 
HETATM   10  C10 UNL     1      26.344   4.508  49.621  1.00  0.00     0.036 A 
HETATM   11  C11 UNL     1      26.031   3.165  49.570  1.00  0.00     0.002 A 
HETATM   12  C12 UNL     1      24.487   3.134  49.583  1.00  0.00     0.120 A 
HETATM   13  C13 UNL     1      24.369   4.069  51.334  1.00  0.00     0.153 C 
HETATM   14  N4  UNL     1      24.172   5.546  51.391  1.00  0.00    -0.063 NA
HETATM   15  N5  UNL     1      24.183   6.141  49.956  1.00  0.00     0.084 N 
HETATM   16  C20 UNL     1      23.507   7.231  49.403  1.00  0.00     0.339 C 
HETATM   17  H9  UNL     1      22.058   1.585  50.183  1.00  0.00     0.159 HD
ENDROOT
BRANCH  13  18
HETATM   18  N2  UNL     1      24.431   3.738  52.936  1.00  0.00    -0.342 N 
HETATM   19  H13 UNL     1      24.083   4.653  53.249  1.00  0.00     0.167 HD
BRANCH  18  20
HETATM   20  C14 UNL     1      24.860   2.458  53.178  1.00  0.00     0.035 A 
HETATM   21  C15 UNL     1      24.023   1.335  52.763  1.00  0.00     0.029 A 
HETATM   22  C16 UNL     1      24.598   0.124  53.106  1.00  0.00     0.004 A 
HETATM   23  C17 UNL     1      25.807  -0.079  53.764  1.00  0.00     0.029 A 
HETATM   24  C18 UNL     1      26.615   0.997  54.167  1.00  0.00     0.027 A 
HETATM   25  C19 UNL     1      25.954   2.125  53.782  1.00  0.00     0.058 A 
BRANCH  24  26
HETATM   26  N3  UNL     1      27.782   0.654  54.825  1.00  0.00    -0.399 N 
HETATM   27  H17 UNL     1      27.676   0.327  55.832  1.00  0.00     0.156 HD
HETATM   28  H18 UNL     1      28.635   0.786  54.194  1.00  0.00     0.156 HD
ENDBRANCH  24  26
ENDBRANCH  18  20
ENDBRANCH  13  18
BRANCH   1  29
HETATM   29  O1  UNL     1      22.145   8.428  47.911  1.00  0.00    -0.358 OA
HETATM   30  C1  UNL     1      21.653   9.389  48.778  1.00  0.00     0.209 C 
ENDBRANCH   1  29
TORSDOF 4
ENDMDL
MODEL 5
REMARK VINA RESULT:      -7.4      2.968      5.101
REMARK  4 active torsions:
REMARK  status: ('A' for Active; 'I' for Inactive)
REMARK    1  A    between atoms: O1_2  and  C2_3 
REMARK    2  A    between atoms: C13_15  and  N2_16 
REMARK    3  A    between atoms: N2_16  and  C14_17 
REMARK    4  A    between atoms: C18_21  and  N3_22 
ROOT
HETATM    1  C2  UNL     1      25.077   0.404  53.010  1.00  0.00     0.074 C 
HETATM    2  C3  UNL     1      26.465   0.683  52.634  1.00  0.00     0.034 C 
HETATM    3  C4  UNL     1      26.918   1.737  51.663  1.00  0.00     0.000 C 
HETATM    4  C5  UNL     1      26.487   2.687  50.841  1.00  0.00    -0.007 C 
HETATM    5  C6  UNL     1      26.412   3.781  49.887  1.00  0.00     0.146 C 
HETATM    6  N1  UNL     1      25.450   4.884  50.403  1.00  0.00    -0.390 N 
HETATM    7  C7  UNL     1      24.540   3.806  50.632  1.00  0.00     0.045 A 
HETATM    8  C8  UNL     1      23.872   2.703  51.107  1.00  0.00     0.314 A 
HETATM    9  C9  UNL     1      22.901   1.815  50.560  1.00  0.00     0.180 A 
HETATM   10  C10 UNL     1      22.257   1.731  49.336  1.00  0.00     0.036 A 
HETATM   11  C11 UNL     1      22.787   2.825  48.682  1.00  0.00     0.002 A 
HETATM   12  C12 UNL     1      23.779   3.432  49.698  1.00  0.00     0.120 A 
HETATM   13  C13 UNL     1      22.369   3.737  51.066  1.00  0.00     0.153 C 
HETATM   14  N4  UNL     1      22.135   2.737  52.148  1.00  0.00    -0.063 NA
HETATM   15  N5  UNL     1      23.051   1.500  51.937  1.00  0.00     0.084 N 
HETATM   16  C20 UNL     1      23.658   0.634  52.850  1.00  0.00     0.339 C 
HETATM   17  H9  UNL     1      25.239   5.827  50.587  1.00  0.00     0.159 HD
ENDROOT
BRANCH  13  18
HETATM   18  N2  UNL     1      21.226   4.841  51.461  1.00  0.00    -0.342 N 
HETATM   19  H13 UNL     1      21.829   5.407  52.071  1.00  0.00     0.167 HD
BRANCH  18  20
HETATM   20  C14 UNL     1      20.033   4.588  50.834  1.00  0.00     0.035 A 
HETATM   21  C15 UNL     1      19.834   5.056  49.464  1.00  0.00     0.029 A 
HETATM   22  C16 UNL     1      18.571   4.735  49.000  1.00  0.00     0.004 A 
HETATM   23  C17 UNL     1      17.565   4.063  49.689  1.00  0.00     0.029 A 
HETATM   24  C18 UNL     1      17.749   3.614  51.006  1.00  0.00     0.027 A 
HETATM   25  C19 UNL     1      19.015   3.983  51.354  1.00  0.00     0.058 A 
BRANCH  24  26
HETATM   26  N3  UNL     1      16.663   2.976  51.578  1.00  0.00    -0.399 N 
HETATM   27  H17 UNL     1      16.668   2.897  52.639  1.00  0.00     0.156 HD
HETATM   28  H18 UNL     1      15.973   2.644  50.832  1.00  0.00     0.156 HD
ENDBRANCH  24  26
ENDBRANCH  18  20
ENDBRANCH  13  18
BRANCH   1  29
HETATM   29  O1  UNL     1      25.370  -0.572  53.911  1.00  0.00    -0.358 OA
HETATM   30  C1  UNL     1      26.039  -0.352  55.103  1.00  0.00     0.209 C 
ENDBRANCH   1  29
TORSDOF 4
ENDMDL
MODEL 6
REMARK VINA RESULT:      -7.2      4.695      7.841
REMARK  4 active torsions:
REMARK  status: ('A' for Active; 'I' for Inactive)
REMARK    1  A    between atoms: O1_2  and  C2_3 
REMARK    2  A    between atoms: C13_15  and  N2_16 
REMARK    3  A    between atoms: N2_16  and  C14_17 
REMARK    4  A    between atoms: C18_21  and  N3_22 
ROOT
HETATM    1  C2  UNL     1      24.304   6.551  50.636  1.00  0.00     0.074 C 
HETATM    2  C3  UNL     1      24.683   5.155  50.409  1.00  0.00     0.034 C 
HETATM    3  C4  UNL     1      25.904   4.684  49.669  1.00  0.00     0.000 C 
HETATM    4  C5  UNL     1      26.972   5.101  48.998  1.00  0.00    -0.007 C 
HETATM    5  C6  UNL     1      28.214   5.160  48.247  1.00  0.00     0.146 C 
HETATM    6  N1  UNL     1      29.182   6.194  48.882  1.00  0.00    -0.390 N 
HETATM    7  C7  UNL     1      28.056   7.073  48.857  1.00  0.00     0.045 A 
HETATM    8  C8  UNL     1      26.869   7.726  49.087  1.00  0.00     0.314 A 
HETATM    9  C9  UNL     1      26.065   8.626  48.329  1.00  0.00     0.180 A 
HETATM   10  C10 UNL     1      26.181   9.191  47.070  1.00  0.00     0.036 A 
HETATM   11  C11 UNL     1      27.387   8.664  46.653  1.00  0.00     0.002 A 
HETATM   12  C12 UNL     1      27.832   7.760  47.824  1.00  0.00     0.120 A 
HETATM   13  C13 UNL     1      27.852   9.262  49.126  1.00  0.00     0.153 C 
HETATM   14  N4  UNL     1      26.671   9.523  49.999  1.00  0.00    -0.063 NA
HETATM   15  N5  UNL     1      25.517   8.549  49.638  1.00  0.00     0.084 N 
HETATM   16  C20 UNL     1      24.520   7.966  50.424  1.00  0.00     0.339 C 
HETATM   17  H9  UNL     1      30.072   6.451  49.213  1.00  0.00     0.159 HD
ENDROOT
BRANCH  13  18
HETATM   18  N2  UNL     1      28.838  10.469  49.630  1.00  0.00    -0.342 N 
HETATM   19  H13 UNL     1      28.223  10.804  50.382  1.00  0.00     0.167 HD
BRANCH  18  20
HETATM   20  C14 UNL     1      30.005  10.511  48.911  1.00  0.00     0.035 A 
HETATM   21  C15 UNL     1      30.422  11.771  48.300  1.00  0.00     0.029 A 
HETATM   22  C16 UNL     1      31.604  11.623  47.597  1.00  0.00     0.004 A 
HETATM   23  C17 UNL     1      32.353  10.460  47.441  1.00  0.00     0.029 A 
HETATM   24  C18 UNL     1      31.956   9.246  48.024  1.00  0.00     0.027 A 
HETATM   25  C19 UNL     1      30.791   9.510  48.682  1.00  0.00     0.058 A 
BRANCH  24  26
HETATM   26  N3  UNL     1      32.783   8.165  47.776  1.00  0.00    -0.399 N 
HETATM   27  H17 UNL     1      33.824   8.375  47.712  1.00  0.00     0.156 HD
HETATM   28  H18 UNL     1      32.220   7.262  47.677  1.00  0.00     0.156 HD
ENDBRANCH  24  26
ENDBRANCH  18  20
ENDBRANCH  13  18
BRANCH   1  29
HETATM   29  O1  UNL     1      23.193   6.276  51.371  1.00  0.00    -0.358 OA
HETATM   30  C1  UNL     1      22.596   5.029  51.439  1.00  0.00     0.209 C 
ENDBRANCH   1  29
TORSDOF 4
ENDMDL
MODEL 7
REMARK VINA RESULT:      -7.2      3.148      7.286
REMARK  4 active torsions:
REMARK  status: ('A' for Active; 'I' for Inactive)
REMARK    1  A    between atoms: O1_2  and  C2_3 
REMARK    2  A    between atoms: C13_15  and  N2_16 
REMARK    3  A    between atoms: N2_16  and  C14_17 
REMARK    4  A    between atoms: C18_21  and  N3_22 
ROOT
HETATM    1  C2  UNL     1      23.148   6.741  48.287  1.00  0.00     0.074 C 
HETATM    2  C3  UNL     1      24.549   7.028  47.974  1.00  0.00     0.034 C 
HETATM    3  C4  UNL     1      25.735   6.227  48.433  1.00  0.00     0.000 C 
HETATM    4  C5  UNL     1      26.096   5.175  49.158  1.00  0.00    -0.007 C 
HETATM    5  C6  UNL     1      26.858   4.128  49.819  1.00  0.00     0.146 C 
HETATM    6  N1  UNL     1      26.212   2.741  49.559  1.00  0.00    -0.390 N 
HETATM    7  C7  UNL     1      24.994   3.375  49.954  1.00  0.00     0.045 A 
HETATM    8  C8  UNL     1      23.849   4.130  50.034  1.00  0.00     0.314 A 
HETATM    9  C9  UNL     1      23.009   4.556  51.104  1.00  0.00     0.180 A 
HETATM   10  C10 UNL     1      23.029   4.364  52.476  1.00  0.00     0.036 A 
HETATM   11  C11 UNL     1      24.144   3.560  52.615  1.00  0.00     0.002 A 
HETATM   12  C12 UNL     1      24.684   3.407  51.176  1.00  0.00     0.120 A 
HETATM   13  C13 UNL     1      23.000   2.586  50.509  1.00  0.00     0.153 C 
HETATM   14  N4  UNL     1      21.959   3.426  49.849  1.00  0.00    -0.063 NA
HETATM   15  N5  UNL     1      22.378   4.921  49.885  1.00  0.00     0.084 N 
HETATM   16  C20 UNL     1      22.147   5.967  48.989  1.00  0.00     0.339 C 
HETATM   17  H9  UNL     1      26.279   1.794  49.302  1.00  0.00     0.159 HD
ENDROOT
BRANCH  13  18
HETATM   18  N2  UNL     1      22.264   1.125  50.433  1.00  0.00    -0.342 N 
HETATM   19  H13 UNL     1      22.204   1.089  49.408  1.00  0.00     0.167 HD
BRANCH  18  20
HETATM   20  C14 UNL     1      22.076   0.582  51.678  1.00  0.00     0.035 A 
HETATM   21  C15 UNL     1      23.236   0.343  52.534  1.00  0.00     0.029 A 
HETATM   22  C16 UNL     1      22.864  -0.229  53.738  1.00  0.00     0.004 A 
HETATM   23  C17 UNL     1      21.578  -0.566  54.150  1.00  0.00     0.029 A 
HETATM   24  C18 UNL     1      20.461  -0.342  53.330  1.00  0.00     0.027 A 
HETATM   25  C19 UNL     1      20.944   0.217  52.184  1.00  0.00     0.058 A 
BRANCH  24  26
HETATM   26  N3  UNL     1      19.244  -0.739  53.855  1.00  0.00    -0.399 N 
HETATM   27  H17 UNL     1      19.224  -0.933  54.901  1.00  0.00     0.156 HD
HETATM   28  H18 UNL     1      18.494  -0.797  53.095  1.00  0.00     0.156 HD
ENDBRANCH  24  26
ENDBRANCH  18  20
ENDBRANCH  13  18
BRANCH   1  29
HETATM   29  O1  UNL     1      22.629   7.764  47.556  1.00  0.00    -0.358 OA
HETATM   30  C1  UNL     1      22.994   9.090  47.709  1.00  0.00     0.209 C 
ENDBRANCH   1  29
TORSDOF 4
ENDMDL
MODEL 8
REMARK VINA RESULT:      -7.1      3.314      7.178
REMARK  4 active torsions:
REMARK  status: ('A' for Active; 'I' for Inactive)
REMARK    1  A    between atoms: O1_2  and  C2_3 
REMARK    2  A    between atoms: C13_15  and  N2_16 
REMARK    3  A    between atoms: N2_16  and  C14_17 
REMARK    4  A    between atoms: C18_21  and  N3_22 
ROOT
HETATM    1  C2  UNL     1      24.141   8.455  48.286  1.00  0.00     0.074 C 
HETATM    2  C3  UNL     1      23.286   8.136  47.140  1.00  0.00     0.034 C 
HETATM    3  C4  UNL     1      22.680   6.794  46.842  1.00  0.00     0.000 C 
HETATM    4  C5  UNL     1      22.602   5.539  47.270  1.00  0.00    -0.007 C 
HETATM    5  C6  UNL     1      22.270   4.132  47.421  1.00  0.00     0.146 C 
HETATM    6  N1  UNL     1      21.850   3.829  48.884  1.00  0.00    -0.390 N 
HETATM    7  C7  UNL     1      23.044   4.529  49.238  1.00  0.00     0.045 A 
HETATM    8  C8  UNL     1      24.013   5.471  49.486  1.00  0.00     0.314 A 
HETATM    9  C9  UNL     1      25.428   5.423  49.658  1.00  0.00     0.180 A 
HETATM   10  C10 UNL     1      26.363   4.402  49.644  1.00  0.00     0.036 A 
HETATM   11  C11 UNL     1      25.554   3.304  49.430  1.00  0.00     0.002 A 
HETATM   12  C12 UNL     1      24.133   3.897  49.308  1.00  0.00     0.120 A 
HETATM   13  C13 UNL     1      24.186   4.695  51.128  1.00  0.00     0.153 C 
HETATM   14  N4  UNL     1      24.582   6.120  51.318  1.00  0.00    -0.063 NA
HETATM   15  N5  UNL     1      24.998   6.744  49.958  1.00  0.00     0.084 N 
HETATM   16  C20 UNL     1      24.876   8.044  49.462  1.00  0.00     0.339 C 
HETATM   17  H9  UNL     1      21.238   3.424  49.539  1.00  0.00     0.159 HD
ENDROOT
BRANCH  13  18
HETATM   18  N2  UNL     1      23.922   4.273  52.688  1.00  0.00    -0.342 N 
HETATM   19  H13 UNL     1      23.712   5.222  53.022  1.00  0.00     0.167 HD
BRANCH  18  20
HETATM   20  C14 UNL     1      24.050   2.921  52.881  1.00  0.00     0.035 A 
HETATM   21  C15 UNL     1      25.322   2.387  53.362  1.00  0.00     0.029 A 
HETATM   22  C16 UNL     1      25.279   1.009  53.476  1.00  0.00     0.004 A 
HETATM   23  C17 UNL     1      24.205   0.172  53.186  1.00  0.00     0.029 A 
HETATM   24  C18 UNL     1      22.982   0.679  52.721  1.00  0.00     0.027 A 
HETATM   25  C19 UNL     1      23.141   2.031  52.648  1.00  0.00     0.058 A 
BRANCH  24  26
HETATM   26  N3  UNL     1      22.005  -0.264  52.456  1.00  0.00    -0.399 N 
HETATM   27  H17 UNL     1      21.612  -0.270  51.468  1.00  0.00     0.156 HD
HETATM   28  H18 UNL     1      21.790  -0.852  53.323  1.00  0.00     0.156 HD
ENDBRANCH  24  26
ENDBRANCH  18  20
ENDBRANCH  13  18
BRANCH   1  29
HETATM   29  O1  UNL     1      24.284   9.775  47.990  1.00  0.00    -0.358 OA
HETATM   30  C1  UNL     1      25.506  10.404  47.822  1.00  0.00     0.209 C 
ENDBRANCH   1  29
TORSDOF 4
ENDMDL
MODEL 9
REMARK VINA RESULT:      -7.1      3.339      6.064
REMARK  4 active torsions:
REMARK  status: ('A' for Active; 'I' for Inactive)
REMARK    1  A    between atoms: O1_2  and  C2_3 
REMARK    2  A    between atoms: C13_15  and  N2_16 
REMARK    3  A    between atoms: N2_16  and  C14_17 
REMARK    4  A    between atoms: C18_21  and  N3_22 
ROOT
HETATM    1  C2  UNL     1      25.882   1.878  51.509  1.00  0.00     0.074 C 
HETATM    2  C3  UNL     1      26.558   2.827  50.622  1.00  0.00     0.034 C 
HETATM    3  C4  UNL     1      25.883   3.801  49.697  1.00  0.00     0.000 C 
HETATM    4  C5  UNL     1      24.698   4.216  49.266  1.00  0.00    -0.007 C 
HETATM    5  C6  UNL     1      23.630   4.930  48.585  1.00  0.00     0.146 C 
HETATM    6  N1  UNL     1      22.539   5.367  49.598  1.00  0.00    -0.390 N 
HETATM    7  C7  UNL     1      22.592   4.011  50.047  1.00  0.00     0.045 A 
HETATM    8  C8  UNL     1      22.934   2.806  50.612  1.00  0.00     0.314 A 
HETATM    9  C9  UNL     1      22.513   1.458  50.415  1.00  0.00     0.180 A 
HETATM   10  C10 UNL     1      21.589   0.853  49.578  1.00  0.00     0.036 A 
HETATM   11  C11 UNL     1      21.079   1.948  48.910  1.00  0.00     0.002 A 
HETATM   12  C12 UNL     1      21.870   3.145  49.482  1.00  0.00     0.120 A 
HETATM   13  C13 UNL     1      21.264   2.803  51.344  1.00  0.00     0.153 C 
HETATM   14  N4  UNL     1      22.111   2.012  52.283  1.00  0.00    -0.063 NA
HETATM   15  N5  UNL     1      23.372   1.485  51.545  1.00  0.00     0.084 N 
HETATM   16  C20 UNL     1      24.674   1.249  51.995  1.00  0.00     0.339 C 
HETATM   17  H9  UNL     1      21.935   6.045  49.976  1.00  0.00     0.159 HD
ENDROOT
BRANCH  13  18
HETATM   18  N2  UNL     1      19.992   3.122  52.325  1.00  0.00    -0.342 N 
HETATM   19  H13 UNL     1      20.549   3.477  53.112  1.00  0.00     0.167 HD
BRANCH  18  20
HETATM   20  C14 UNL     1      18.795   2.833  51.721  1.00  0.00     0.035 A 
HETATM   21  C15 UNL     1      18.440   1.438  51.473  1.00  0.00     0.029 A 
HETATM   22  C16 UNL     1      17.215   1.335  50.838  1.00  0.00     0.004 A 
HETATM   23  C17 UNL     1      16.376   2.376  50.450  1.00  0.00     0.029 A 
HETATM   24  C18 UNL     1      16.713   3.718  50.684  1.00  0.00     0.027 A 
HETATM   25  C19 UNL     1      17.926   3.696  51.306  1.00  0.00     0.058 A 
BRANCH  24  26
HETATM   26  N3  UNL     1      15.797   4.652  50.234  1.00  0.00    -0.399 N 
HETATM   27  H17 UNL     1      14.776   4.460  50.466  1.00  0.00     0.156 HD
HETATM   28  H18 UNL     1      16.279   5.440  49.697  1.00  0.00     0.156 HD
ENDBRANCH  24  26
ENDBRANCH  18  20
ENDBRANCH  13  18
BRANCH   1  29
HETATM   29  O1  UNL     1      27.017   1.375  52.066  1.00  0.00    -0.358 OA
HETATM   30  C1  UNL     1      27.632   1.905  53.187  1.00  0.00     0.209 C 
ENDBRANCH   1  29
TORSDOF 4
ENDMDL
