MODEL 1
REMARK VINA RESULT:      -8.0      0.000      0.000
REMARK  5 active torsions:
REMARK  status: ('A' for Active; 'I' for Inactive)
REMARK    1  A    between atoms: O1_2  and  C2_3 
REMARK    2  A    between atoms: C2_3  and  O2_4 
REMARK    3  A    between atoms: O2_4  and  C3_5 
REMARK    4  A    between atoms: C6_9  and  C7_10 
REMARK    5  A    between atoms: C15_19  and  N2_20 
ROOT
HETATM    1  C3  UNL     1      23.242   2.689  52.035  1.00  0.00     0.153 C 
HETATM    2  C4  UNL     1      22.941   2.017  50.735  1.00  0.00     0.029 C 
HETATM    3  C5  UNL     1      23.521   2.523  49.613  1.00  0.00     0.134 C 
HETATM    4  O3  UNL     1      24.341   3.642  49.882  1.00  0.00    -0.353 OA
HETATM    5  C6  UNL     1      25.663   3.597  49.315  1.00  0.00     0.162 C 
HETATM    6  C12 UNL     1      26.500   2.852  50.332  1.00  0.00     0.038 C 
HETATM    7  C13 UNL     1      26.692   1.980  51.340  1.00  0.00     0.057 C 
HETATM    8  C14 UNL     1      25.978   1.027  52.223  1.00  0.00     0.067 A 
HETATM    9  N1  UNL     1      26.886   0.052  52.268  1.00  0.00    -0.067 NA
HETATM   10  C15 UNL     1      26.774  -1.104  52.957  1.00  0.00     0.720 A 
HETATM   11  N3  UNL     1      25.654  -1.255  53.638  1.00  0.00    -0.075 NA
HETATM   12  C16 UNL     1      24.710  -0.287  53.614  1.00  0.00     0.145 A 
HETATM   13  C17 UNL     1      24.796   0.898  52.922  1.00  0.00    -0.011 A 
HETATM   14  C18 UNL     1      23.602   1.730  53.111  1.00  0.00     0.078 C 
ENDROOT
BRANCH   5  15
HETATM   15  C7  UNL     1      26.128   5.000  49.218  1.00  0.00    -0.047 A 
HETATM   16  C8  UNL     1      25.611   6.150  49.649  1.00  0.00     0.005 A 
HETATM   17  C9  UNL     1      26.440   7.310  49.314  1.00  0.00    -0.003 A 
HETATM   18  C10 UNL     1      27.472   6.808  48.668  1.00  0.00    -0.022 A 
HETATM   19  C11 UNL     1      27.398   5.336  48.535  1.00  0.00     0.064 A 
ENDBRANCH   5  15
BRANCH   1  20
HETATM   20  O2  UNL     1      22.067   3.384  52.383  1.00  0.00    -0.358 OA
BRANCH  20  21
HETATM   21  C2  UNL     1      20.965   2.533  52.498  1.00  0.00     0.337 C 
BRANCH  21  22
HETATM   22  O1  UNL     1      19.760   3.223  52.491  1.00  0.00    -0.372 OA
HETATM   23  C1  UNL     1      19.520   3.912  51.315  1.00  0.00     0.204 C 
ENDBRANCH  21  22
ENDBRANCH  20  21
ENDBRANCH   1  20
BRANCH  10  24
HETATM   24  N2  UNL     1      27.683  -2.208  53.078  1.00  0.00    -0.231 N 
HETATM   25  H17 UNL     1      27.086  -2.885  53.606  1.00  0.00     0.174 HD
HETATM   26  H18 UNL     1      28.619  -2.059  52.644  1.00  0.00     0.174 HD
ENDBRANCH  10  24
TORSDOF 5
ENDMDL
MODEL 2
REMARK VINA RESULT:      -7.4      2.939      5.858
REMARK  5 active torsions:
REMARK  status: ('A' for Active; 'I' for Inactive)
REMARK    1  A    between atoms: O1_2  and  C2_3 
REMARK    2  A    between atoms: C2_3  and  O2_4 
REMARK    3  A    between atoms: O2_4  and  C3_5 
REMARK    4  A    between atoms: C6_9  and  C7_10 
REMARK    5  A    between atoms: C15_19  and  N2_20 
ROOT
HETATM    1  C3  UNL     1      23.178   1.646  50.986  1.00  0.00     0.153 C 
HETATM    2  C4  UNL     1      23.200   2.376  52.289  1.00  0.00     0.029 C 
HETATM    3  C5  UNL     1      24.151   2.022  53.196  1.00  0.00     0.134 C 
HETATM    4  O3  UNL     1      24.986   0.981  52.729  1.00  0.00    -0.353 OA
HETATM    5  C6  UNL     1      26.401   1.212  52.857  1.00  0.00     0.162 C 
HETATM    6  C12 UNL     1      26.791   1.966  51.605  1.00  0.00     0.038 C 
HETATM    7  C13 UNL     1      26.557   2.776  50.555  1.00  0.00     0.057 C 
HETATM    8  C14 UNL     1      25.495   3.578  49.900  1.00  0.00     0.067 A 
HETATM    9  N1  UNL     1      26.217   4.639  49.542  1.00  0.00    -0.067 NA
HETATM   10  C15 UNL     1      25.757   5.723  48.878  1.00  0.00     0.720 A 
HETATM   11  N3  UNL     1      24.474   5.699  48.571  1.00  0.00    -0.075 NA
HETATM   12  C16 UNL     1      23.711   4.639  48.921  1.00  0.00     0.145 A 
HETATM   13  C17 UNL     1      24.151   3.525  49.596  1.00  0.00    -0.011 A 
HETATM   14  C18 UNL     1      23.071   2.557  49.817  1.00  0.00     0.078 C 
ENDROOT
BRANCH   5  15
HETATM   15  C7  UNL     1      27.047  -0.121  52.858  1.00  0.00    -0.047 A 
HETATM   16  C8  UNL     1      26.624  -1.325  52.475  1.00  0.00     0.005 A 
HETATM   17  C9  UNL     1      27.630  -2.372  52.668  1.00  0.00    -0.003 A 
HETATM   18  C10 UNL     1      28.669  -1.747  53.181  1.00  0.00    -0.022 A 
HETATM   19  C11 UNL     1      28.430  -0.297  53.357  1.00  0.00     0.064 A 
ENDBRANCH   5  15
BRANCH   1  20
HETATM   20  O2  UNL     1      22.050   0.804  51.044  1.00  0.00    -0.358 OA
BRANCH  20  21
HETATM   21  C2  UNL     1      21.053   1.313  51.879  1.00  0.00     0.337 C 
BRANCH  21  22
HETATM   22  O1  UNL     1      20.373   0.315  52.563  1.00  0.00    -0.372 OA
HETATM   23  C1  UNL     1      20.596   0.325  53.929  1.00  0.00     0.204 C 
ENDBRANCH  21  22
ENDBRANCH  20  21
ENDBRANCH   1  20
BRANCH  10  24
HETATM   24  N2  UNL     1      26.439   6.907  48.441  1.00  0.00    -0.231 N 
HETATM   25  H17 UNL     1      27.279   6.880  49.065  1.00  0.00     0.174 HD
HETATM   26  H18 UNL     1      25.961   7.438  47.683  1.00  0.00     0.174 HD
ENDBRANCH  10  24
TORSDOF 5
ENDMDL
MODEL 3
REMARK VINA RESULT:      -7.3      3.359      4.945
REMARK  5 active torsions:
REMARK  status: ('A' for Active; 'I' for Inactive)
REMARK    1  A    between atoms: O1_2  and  C2_3 
REMARK    2  A    between atoms: C2_3  and  O2_4 
REMARK    3  A    between atoms: O2_4  and  C3_5 
REMARK    4  A    between atoms: C6_9  and  C7_10 
REMARK    5  A    between atoms: C15_19  and  N2_20 
ROOT
HETATM    1  C3  UNL     1      24.168   1.621  52.286  1.00  0.00     0.153 C 
HETATM    2  C4  UNL     1      23.624   2.789  53.042  1.00  0.00     0.029 C 
HETATM    3  C5  UNL     1      23.983   4.034  52.626  1.00  0.00     0.134 C 
HETATM    4  O3  UNL     1      24.845   4.005  51.505  1.00  0.00    -0.353 OA
HETATM    5  C6  UNL     1      24.468   4.855  50.407  1.00  0.00     0.162 C 
HETATM    6  C12 UNL     1      23.510   4.025  49.580  1.00  0.00     0.038 C 
HETATM    7  C13 UNL     1      22.598   3.053  49.393  1.00  0.00     0.057 C 
HETATM    8  C14 UNL     1      21.847   1.991  50.105  1.00  0.00     0.067 A 
HETATM    9  N1  UNL     1      20.668   2.115  49.494  1.00  0.00    -0.067 NA
HETATM   10  C15 UNL     1      19.568   1.371  49.739  1.00  0.00     0.720 A 
HETATM   11  N3  UNL     1      19.701   0.448  50.672  1.00  0.00    -0.075 NA
HETATM   12  C16 UNL     1      20.881   0.295  51.313  1.00  0.00     0.145 A 
HETATM   13  C17 UNL     1      22.017   1.037  51.086  1.00  0.00    -0.011 A 
HETATM   14  C18 UNL     1      23.127   0.616  51.948  1.00  0.00     0.078 C 
ENDROOT
BRANCH   5  15
HETATM   15  C7  UNL     1      25.702   5.113  49.631  1.00  0.00    -0.047 A 
HETATM   16  C8  UNL     1      26.169   6.201  49.018  1.00  0.00     0.005 A 
HETATM   17  C9  UNL     1      27.460   5.978  48.363  1.00  0.00    -0.003 A 
HETATM   18  C10 UNL     1      27.747   4.716  48.609  1.00  0.00    -0.022 A 
HETATM   19  C11 UNL     1      26.702   4.042  49.412  1.00  0.00     0.064 A 
ENDBRANCH   5  15
BRANCH   1  20
HETATM   20  O2  UNL     1      25.138   1.044  53.129  1.00  0.00    -0.358 OA
BRANCH  20  21
HETATM   21  C2  UNL     1      24.724  -0.187  53.645  1.00  0.00     0.337 C 
BRANCH  21  22
HETATM   22  O1  UNL     1      25.793  -1.015  53.962  1.00  0.00    -0.372 OA
HETATM   23  C1  UNL     1      26.607  -1.310  52.883  1.00  0.00     0.204 C 
ENDBRANCH  21  22
ENDBRANCH  20  21
ENDBRANCH   1  20
BRANCH  10  24
HETATM   24  N2  UNL     1      18.262   1.415  49.144  1.00  0.00    -0.231 N 
HETATM   25  H17 UNL     1      17.767   0.701  49.726  1.00  0.00     0.174 HD
HETATM   26  H18 UNL     1      18.160   2.089  48.356  1.00  0.00     0.174 HD
ENDBRANCH  10  24
TORSDOF 5
ENDMDL
MODEL 4
REMARK VINA RESULT:      -7.1      2.194      3.072
REMARK  5 active torsions:
REMARK  status: ('A' for Active; 'I' for Inactive)
REMARK    1  A    between atoms: O1_2  and  C2_3 
REMARK    2  A    between atoms: C2_3  and  O2_4 
REMARK    3  A    between atoms: O2_4  and  C3_5 
REMARK    4  A    between atoms: C6_9  and  C7_10 
REMARK    5  A    between atoms: C15_19  and  N2_20 
ROOT
HETATM    1  C3  UNL     1      20.565   2.301  51.353  1.00  0.00     0.153 C 
HETATM    2  C4  UNL     1      20.741   1.217  50.340  1.00  0.00     0.029 C 
HETATM    3  C5  UNL     1      21.796   1.316  49.486  1.00  0.00     0.134 C 
HETATM    4  O3  UNL     1      22.574   2.474  49.714  1.00  0.00    -0.353 OA
HETATM    5  C6  UNL     1      23.993   2.260  49.827  1.00  0.00     0.162 C 
HETATM    6  C12 UNL     1      24.225   1.926  51.284  1.00  0.00     0.038 C 
HETATM    7  C13 UNL     1      23.862   1.458  52.494  1.00  0.00     0.057 C 
HETATM    8  C14 UNL     1      22.725   0.855  53.230  1.00  0.00     0.067 A 
HETATM    9  N1  UNL     1      23.394  -0.028  53.972  1.00  0.00    -0.067 NA
HETATM   10  C15 UNL     1      22.851  -0.879  54.871  1.00  0.00     0.720 A 
HETATM   11  N3  UNL     1      21.541  -0.806  55.005  1.00  0.00    -0.075 NA
HETATM   12  C16 UNL     1      20.831   0.077  54.267  1.00  0.00     0.145 A 
HETATM   13  C17 UNL     1      21.355   0.954  53.345  1.00  0.00    -0.011 A 
HETATM   14  C18 UNL     1      20.314   1.777  52.720  1.00  0.00     0.078 C 
ENDROOT
BRANCH   5  15
HETATM   15  C7  UNL     1      24.640   3.552  49.502  1.00  0.00    -0.047 A 
HETATM   16  C8  UNL     1      24.155   4.724  49.093  1.00  0.00     0.005 A 
HETATM   17  C9  UNL     1      25.195   5.735  48.894  1.00  0.00    -0.003 A 
HETATM   18  C10 UNL     1      26.320   5.123  49.200  1.00  0.00    -0.022 A 
HETATM   19  C11 UNL     1      26.109   3.716  49.607  1.00  0.00     0.064 A 
ENDBRANCH   5  15
BRANCH   1  20
HETATM   20  O2  UNL     1      19.457   3.052  50.914  1.00  0.00    -0.358 OA
BRANCH  20  21
HETATM   21  C2  UNL     1      18.292   2.733  51.616  1.00  0.00     0.337 C 
BRANCH  21  22
HETATM   22  O1  UNL     1      17.580   3.860  52.003  1.00  0.00    -0.372 OA
HETATM   23  C1  UNL     1      16.528   4.171  51.159  1.00  0.00     0.204 C 
ENDBRANCH  21  22
ENDBRANCH  20  21
ENDBRANCH   1  20
BRANCH  10  24
HETATM   24  N2  UNL     1      23.471  -1.857  55.718  1.00  0.00    -0.231 N 
HETATM   25  H17 UNL     1      22.665  -2.505  55.877  1.00  0.00     0.174 HD
HETATM   26  H18 UNL     1      24.475  -1.681  55.935  1.00  0.00     0.174 HD
ENDBRANCH  10  24
TORSDOF 5
ENDMDL
MODEL 5
REMARK VINA RESULT:      -7.0      2.055      5.900
REMARK  5 active torsions:
REMARK  status: ('A' for Active; 'I' for Inactive)
REMARK    1  A    between atoms: O1_2  and  C2_3 
REMARK    2  A    between atoms: C2_3  and  O2_4 
REMARK    3  A    between atoms: O2_4  and  C3_5 
REMARK    4  A    between atoms: C6_9  and  C7_10 
REMARK    5  A    between atoms: C15_19  and  N2_20 
ROOT
HETATM    1  C3  UNL     1      23.634   2.780  50.637  1.00  0.00     0.153 C 
HETATM    2  C4  UNL     1      23.307   3.726  51.746  1.00  0.00     0.029 C 
HETATM    3  C5  UNL     1      22.152   3.517  52.435  1.00  0.00     0.134 C 
HETATM    4  O3  UNL     1      21.432   2.396  51.963  1.00  0.00    -0.353 OA
HETATM    5  C6  UNL     1      21.007   1.458  52.969  1.00  0.00     0.162 C 
HETATM    6  C12 UNL     1      22.179   0.518  53.148  1.00  0.00     0.038 C 
HETATM    7  C13 UNL     1      23.483   0.185  53.112  1.00  0.00     0.057 C 
HETATM    8  C14 UNL     1      24.826   0.722  52.786  1.00  0.00     0.067 A 
HETATM    9  N1  UNL     1      25.528   0.155  53.768  1.00  0.00    -0.067 NA
HETATM   10  C15 UNL     1      26.858   0.288  53.970  1.00  0.00     0.720 A 
HETATM   11  N3  UNL     1      27.491   1.053  53.102  1.00  0.00    -0.075 NA
HETATM   12  C16 UNL     1      26.811   1.645  52.095  1.00  0.00     0.145 A 
HETATM   13  C17 UNL     1      25.460   1.529  51.865  1.00  0.00    -0.011 A 
HETATM   14  C18 UNL     1      25.037   2.295  50.687  1.00  0.00     0.078 C 
ENDROOT
BRANCH   5  15
HETATM   15  C7  UNL     1      19.858   0.720  52.397  1.00  0.00    -0.047 A 
HETATM   16  C8  UNL     1      19.181   0.852  51.257  1.00  0.00     0.005 A 
HETATM   17  C9  UNL     1      18.098  -0.124  51.119  1.00  0.00    -0.003 A 
HETATM   18  C10 UNL     1      18.154  -0.844  52.220  1.00  0.00    -0.022 A 
HETATM   19  C11 UNL     1      19.238  -0.409  53.128  1.00  0.00     0.064 A 
ENDBRANCH   5  15
BRANCH   1  20
HETATM   20  O2  UNL     1      23.417   3.503  49.448  1.00  0.00    -0.358 OA
BRANCH  20  21
HETATM   21  C2  UNL     1      23.790   4.844  49.569  1.00  0.00     0.337 C 
BRANCH  21  22
HETATM   22  O1  UNL     1      24.913   5.153  48.814  1.00  0.00    -0.372 OA
HETATM   23  C1  UNL     1      25.854   5.904  49.497  1.00  0.00     0.204 C 
ENDBRANCH  21  22
ENDBRANCH  20  21
ENDBRANCH   1  20
BRANCH  10  24
HETATM   24  N2  UNL     1      27.707  -0.274  54.981  1.00  0.00    -0.231 N 
HETATM   25  H17 UNL     1      27.029  -0.904  55.467  1.00  0.00     0.174 HD
HETATM   26  H18 UNL     1      28.693   0.064  54.966  1.00  0.00     0.174 HD
ENDBRANCH  10  24
TORSDOF 5
ENDMDL
MODEL 6
REMARK VINA RESULT:      -7.0      3.008      5.469
REMARK  5 active torsions:
REMARK  status: ('A' for Active; 'I' for Inactive)
REMARK    1  A    between atoms: O1_2  and  C2_3 
REMARK    2  A    between atoms: C2_3  and  O2_4 
REMARK    3  A    between atoms: O2_4  and  C3_5 
REMARK    4  A    between atoms: C6_9  and  C7_10 
REMARK    5  A    between atoms: C15_19  and  N2_20 
ROOT
HETATM    1  C3  UNL     1      23.630   4.476  51.908  1.00  0.00     0.153 C 
HETATM    2  C4  UNL     1      23.898   4.042  50.504  1.00  0.00     0.029 C 
HETATM    3  C5  UNL     1      24.942   3.195  50.293  1.00  0.00     0.134 C 
HETATM    4  O3  UNL     1      25.621   2.860  51.487  1.00  0.00    -0.353 OA
HETATM    5  C6  UNL     1      25.847   1.455  51.703  1.00  0.00     0.162 C 
HETATM    6  C12 UNL     1      24.590   0.956  52.382  1.00  0.00     0.038 C 
HETATM    7  C13 UNL     1      23.277   0.989  52.678  1.00  0.00     0.057 C 
HETATM    8  C14 UNL     1      22.030   1.745  52.414  1.00  0.00     0.067 A 
HETATM    9  N1  UNL     1      21.173   0.726  52.336  1.00  0.00    -0.067 NA
HETATM   10  C15 UNL     1      19.844   0.824  52.112  1.00  0.00     0.720 A 
HETATM   11  N3  UNL     1      19.381   2.051  51.962  1.00  0.00    -0.075 NA
HETATM   12  C16 UNL     1      20.222   3.107  52.034  1.00  0.00     0.145 A 
HETATM   13  C17 UNL     1      21.577   3.038  52.259  1.00  0.00    -0.011 A 
HETATM   14  C18 UNL     1      22.196   4.368  52.281  1.00  0.00     0.078 C 
ENDROOT
BRANCH   5  15
HETATM   15  C7  UNL     1      26.993   1.352  52.635  1.00  0.00    -0.047 A 
HETATM   16  C8  UNL     1      27.893   2.240  53.056  1.00  0.00     0.005 A 
HETATM   17  C9  UNL     1      28.861   1.671  53.996  1.00  0.00    -0.003 A 
HETATM   18  C10 UNL     1      28.504   0.409  54.122  1.00  0.00    -0.022 A 
HETATM   19  C11 UNL     1      27.319   0.070  53.302  1.00  0.00     0.064 A 
ENDBRANCH   5  15
BRANCH   1  20
HETATM   20  O2  UNL     1      24.044   5.821  51.972  1.00  0.00    -0.358 OA
BRANCH  20  21
HETATM   21  C2  UNL     1      23.484   6.595  50.953  1.00  0.00     0.337 C 
BRANCH  21  22
HETATM   22  O1  UNL     1      24.168   7.788  50.756  1.00  0.00    -0.372 OA
HETATM   23  C1  UNL     1      25.439   7.621  50.233  1.00  0.00     0.204 C 
ENDBRANCH  21  22
ENDBRANCH  20  21
ENDBRANCH   1  20
BRANCH  10  24
HETATM   24  N2  UNL     1      18.838  -0.195  52.014  1.00  0.00    -0.231 N 
HETATM   25  H17 UNL     1      19.302  -0.852  51.346  1.00  0.00     0.174 HD
HETATM   26  H18 UNL     1      17.983  -0.026  52.585  1.00  0.00     0.174 HD
ENDBRANCH  10  24
TORSDOF 5
ENDMDL
MODEL 7
REMARK VINA RESULT:      -7.0      2.280      5.359
REMARK  5 active torsions:
REMARK  status: ('A' for Active; 'I' for Inactive)
REMARK    1  A    between atoms: O1_2  and  C2_3 
REMARK    2  A    between atoms: C2_3  and  O2_4 
REMARK    3  A    between atoms: O2_4  and  C3_5 
REMARK    4  A    between atoms: C6_9  and  C7_10 
REMARK    5  A    between atoms: C15_19  and  N2_20 
ROOT
HETATM    1  C3  UNL     1      24.104   3.425  50.672  1.00  0.00     0.153 C 
HETATM    2  C4  UNL     1      23.713   4.243  51.860  1.00  0.00     0.029 C 
HETATM    3  C5  UNL     1      22.507   3.987  52.434  1.00  0.00     0.134 C 
HETATM    4  O3  UNL     1      21.803   2.949  51.782  1.00  0.00    -0.353 OA
HETATM    5  C6  UNL     1      21.287   1.912  52.636  1.00  0.00     0.162 C 
HETATM    6  C12 UNL     1      22.424   0.926  52.787  1.00  0.00     0.038 C 
HETATM    7  C13 UNL     1      23.720   0.563  52.805  1.00  0.00     0.057 C 
HETATM    8  C14 UNL     1      25.094   1.097  52.643  1.00  0.00     0.067 A 
HETATM    9  N1  UNL     1      25.710   0.401  53.599  1.00  0.00    -0.067 NA
HETATM   10  C15 UNL     1      27.023   0.473  53.910  1.00  0.00     0.720 A 
HETATM   11  N3  UNL     1      27.734   1.316  53.187  1.00  0.00    -0.075 NA
HETATM   12  C16 UNL     1      27.142   2.040  52.211  1.00  0.00     0.145 A 
HETATM   13  C17 UNL     1      25.810   1.989  51.872  1.00  0.00    -0.011 A 
HETATM   14  C18 UNL     1      25.490   2.899  50.766  1.00  0.00     0.078 C 
ENDROOT
BRANCH   5  15
HETATM   15  C7  UNL     1      20.170   1.277  51.900  1.00  0.00    -0.047 A 
HETATM   16  C8  UNL     1      19.361   0.260  52.195  1.00  0.00     0.005 A 
HETATM   17  C9  UNL     1      18.386  -0.020  51.139  1.00  0.00    -0.003 A 
HETATM   18  C10 UNL     1      18.643   0.870  50.202  1.00  0.00    -0.022 A 
HETATM   19  C11 UNL     1      19.766   1.764  50.561  1.00  0.00     0.064 A 
ENDBRANCH   5  15
BRANCH   1  20
HETATM   20  O2  UNL     1      23.990   4.287  49.565  1.00  0.00    -0.358 OA
BRANCH  20  21
HETATM   21  C2  UNL     1      23.087   3.809  48.613  1.00  0.00     0.337 C 
BRANCH  21  22
HETATM   22  O1  UNL     1      22.800   2.461  48.785  1.00  0.00    -0.372 OA
HETATM   23  C1  UNL     1      22.313   1.846  47.644  1.00  0.00     0.204 C 
ENDBRANCH  21  22
ENDBRANCH  20  21
ENDBRANCH   1  20
BRANCH  10  24
HETATM   24  N2  UNL     1      27.784  -0.227  54.905  1.00  0.00    -0.231 N 
HETATM   25  H17 UNL     1      28.667   0.333  54.895  1.00  0.00     0.174 HD
HETATM   26  H18 UNL     1      27.299  -1.041  55.340  1.00  0.00     0.174 HD
ENDBRANCH  10  24
TORSDOF 5
ENDMDL
MODEL 8
REMARK VINA RESULT:      -6.8      3.822      6.758
REMARK  5 active torsions:
REMARK  status: ('A' for Active; 'I' for Inactive)
REMARK    1  A    between atoms: O1_2  and  C2_3 
REMARK    2  A    between atoms: C2_3  and  O2_4 
REMARK    3  A    between atoms: O2_4  and  C3_5 
REMARK    4  A    between atoms: C6_9  and  C7_10 
REMARK    5  A    between atoms: C15_19  and  N2_20 
ROOT
HETATM    1  C3  UNL     1      25.091   7.292  48.511  1.00  0.00     0.153 C 
HETATM    2  C4  UNL     1      25.260   7.488  49.982  1.00  0.00     0.029 C 
HETATM    3  C5  UNL     1      24.836   6.491  50.805  1.00  0.00     0.134 C 
HETATM    4  O3  UNL     1      24.285   5.398  50.097  1.00  0.00    -0.353 OA
HETATM    5  C6  UNL     1      24.790   4.101  50.461  1.00  0.00     0.162 C 
HETATM    6  C12 UNL     1      26.029   3.910  49.614  1.00  0.00     0.038 C 
HETATM    7  C13 UNL     1      27.090   4.337  48.905  1.00  0.00     0.057 C 
HETATM    8  C14 UNL     1      27.792   5.566  48.462  1.00  0.00     0.067 A 
HETATM    9  N1  UNL     1      29.053   5.152  48.592  1.00  0.00    -0.067 NA
HETATM   10  C15 UNL     1      30.158   5.877  48.311  1.00  0.00     0.720 A 
HETATM   11  N3  UNL     1      29.938   7.101  47.870  1.00  0.00    -0.075 NA
HETATM   12  C16 UNL     1      28.672   7.555  47.728  1.00  0.00     0.145 A 
HETATM   13  C17 UNL     1      27.530   6.841  48.006  1.00  0.00    -0.011 A 
HETATM   14  C18 UNL     1      26.318   7.623  47.740  1.00  0.00     0.078 C 
ENDROOT
BRANCH   5  15
HETATM   15  C7  UNL     1      23.756   3.119  50.060  1.00  0.00    -0.047 A 
HETATM   16  C8  UNL     1      23.134   2.890  48.904  1.00  0.00     0.005 A 
HETATM   17  C9  UNL     1      22.165   1.794  48.983  1.00  0.00    -0.003 A 
HETATM   18  C10 UNL     1      22.233   1.378  50.231  1.00  0.00    -0.022 A 
HETATM   19  C11 UNL     1      23.214   2.142  51.033  1.00  0.00     0.064 A 
ENDBRANCH   5  15
BRANCH   1  20
HETATM   20  O2  UNL     1      24.040   8.151  48.134  1.00  0.00    -0.358 OA
BRANCH  20  21
HETATM   21  C2  UNL     1      23.186   7.562  47.198  1.00  0.00     0.337 C 
BRANCH  21  22
HETATM   22  O1  UNL     1      23.213   6.175  47.255  1.00  0.00    -0.372 OA
HETATM   23  C1  UNL     1      22.217   5.568  46.509  1.00  0.00     0.204 C 
ENDBRANCH  21  22
ENDBRANCH  20  21
ENDBRANCH   1  20
BRANCH  10  24
HETATM   24  N2  UNL     1      31.547   5.533  48.408  1.00  0.00    -0.231 N 
HETATM   25  H17 UNL     1      31.783   5.965  49.331  1.00  0.00     0.174 HD
HETATM   26  H18 UNL     1      31.925   4.990  47.603  1.00  0.00     0.174 HD
ENDBRANCH  10  24
TORSDOF 5
ENDMDL
MODEL 9
REMARK VINA RESULT:      -6.7      4.455      7.678
REMARK  5 active torsions:
REMARK  status: ('A' for Active; 'I' for Inactive)
REMARK    1  A    between atoms: O1_2  and  C2_3 
REMARK    2  A    between atoms: C2_3  and  O2_4 
REMARK    3  A    between atoms: O2_4  and  C3_5 
REMARK    4  A    between atoms: C6_9  and  C7_10 
REMARK    5  A    between atoms: C15_19  and  N2_20 
ROOT
HETATM    1  C3  UNL     1      26.405   8.005  47.971  1.00  0.00     0.153 C 
HETATM    2  C4  UNL     1      26.396   8.196  49.453  1.00  0.00     0.029 C 
HETATM    3  C5  UNL     1      25.695   7.301  50.201  1.00  0.00     0.134 C 
HETATM    4  O3  UNL     1      25.071   6.306  49.415  1.00  0.00    -0.353 OA
HETATM    5  C6  UNL     1      25.290   4.948  49.840  1.00  0.00     0.162 C 
HETATM    6  C12 UNL     1      26.585   4.533  49.178  1.00  0.00     0.038 C 
HETATM    7  C13 UNL     1      27.794   4.761  48.629  1.00  0.00     0.057 C 
HETATM    8  C14 UNL     1      28.751   5.843  48.298  1.00  0.00     0.067 A 
HETATM    9  N1  UNL     1      29.891   5.224  48.605  1.00  0.00    -0.067 NA
HETATM   10  C15 UNL     1      31.132   5.745  48.489  1.00  0.00     0.720 A 
HETATM   11  N3  UNL     1      31.190   6.980  48.029  1.00  0.00    -0.075 NA
HETATM   12  C16 UNL     1      30.053   7.640  47.710  1.00  0.00     0.145 A 
HETATM   13  C17 UNL     1      28.778   7.136  47.818  1.00  0.00    -0.011 A 
HETATM   14  C18 UNL     1      27.767   8.107  47.386  1.00  0.00     0.078 C 
ENDROOT
BRANCH   5  15
HETATM   15  C7  UNL     1      24.171   4.149  49.290  1.00  0.00    -0.047 A 
HETATM   16  C8  UNL     1      23.785   2.888  49.483  1.00  0.00     0.005 A 
HETATM   17  C9  UNL     1      22.597   2.529  48.706  1.00  0.00    -0.003 A 
HETATM   18  C10 UNL     1      22.287   3.623  48.041  1.00  0.00    -0.022 A 
HETATM   19  C11 UNL     1      23.217   4.740  48.323  1.00  0.00     0.064 A 
ENDBRANCH   5  15
BRANCH   1  20
HETATM   20  O2  UNL     1      25.581   9.023  47.453  1.00  0.00    -0.358 OA
BRANCH  20  21
HETATM   21  C2  UNL     1      26.289   9.916  46.646  1.00  0.00     0.337 C 
BRANCH  21  22
HETATM   22  O1  UNL     1      25.827  11.220  46.765  1.00  0.00    -0.372 OA
HETATM   23  C1  UNL     1      25.999  11.758  48.028  1.00  0.00     0.204 C 
ENDBRANCH  21  22
ENDBRANCH  20  21
ENDBRANCH   1  20
BRANCH  10  24
HETATM   24  N2  UNL     1      32.415   5.172  48.782  1.00  0.00    -0.231 N 
HETATM   25  H17 UNL     1      32.627   5.642  49.691  1.00  0.00     0.174 HD
HETATM   26  H18 UNL     1      32.768   4.495  48.072  1.00  0.00     0.174 HD
ENDBRANCH  10  24
TORSDOF 5
ENDMDL
