MODEL 1
REMARK VINA RESULT:      -7.7      0.000      0.000
REMARK  9 active torsions:
REMARK  status: ('A' for Active; 'I' for Inactive)
REMARK    1  A    between atoms: C4_4  and  C7_7 
REMARK    2  A    between atoms: C7_7  and  C8_8 
REMARK    3  A    between atoms: C8_8  and  C9_9 
REMARK    4  A    between atoms: C9_9  and  N1_10 
REMARK    5  A    between atoms: N1_10  and  C10_11 
REMARK    6  A    between atoms: C19_24  and  O3_25 
REMARK    7  A    between atoms: O3_25  and  C20_26 
REMARK    8  A    between atoms: C20_26  and  C21_27 
REMARK    9  A    between atoms: C21_27  and  O4_28 
ROOT
HETATM    1  C1  UNL     1      22.570   1.047  52.374  1.00  0.00     0.017 C 
HETATM    2  C2  UNL     1      23.649   0.607  52.679  1.00  0.00    -0.088 C 
HETATM    3  C3  UNL     1      24.948   0.079  53.040  1.00  0.00     0.084 C 
HETATM    4  C4  UNL     1      26.079   0.525  52.521  1.00  0.00     0.024 C 
HETATM    5  C5  UNL     1      27.345  -0.073  52.946  1.00  0.00    -0.077 C 
HETATM    6  C6  UNL     1      28.387  -0.581  53.286  1.00  0.00     0.018 C 
ENDROOT
BRANCH   4   7
HETATM    7  C7  UNL     1      26.254   1.579  51.553  1.00  0.00     0.019 C 
BRANCH   7   8
HETATM    8  C8  UNL     1      26.589   2.478  50.671  1.00  0.00    -0.006 C 
BRANCH   8   9
HETATM    9  C9  UNL     1      26.075   3.536  49.734  1.00  0.00     0.148 C 
BRANCH   9  10
HETATM   10  N1  UNL     1      27.124   4.133  48.949  1.00  0.00    -0.371 N 
HETATM   11  H8  UNL     1      27.720   3.322  48.666  1.00  0.00     0.161 HD
BRANCH  10  12
HETATM   12  C10 UNL     1      27.166   5.542  48.728  1.00  0.00     0.137 A 
HETATM   13  N2  UNL     1      25.975   6.131  48.875  1.00  0.00    -0.224 NA
HETATM   14  C11 UNL     1      25.765   7.416  48.711  1.00  0.00     0.235 A 
HETATM   15  N3  UNL     1      26.841   8.120  48.384  1.00  0.00    -0.241 NA
HETATM   16  C12 UNL     1      28.082   7.647  48.211  1.00  0.00     0.074 A 
HETATM   17  C13 UNL     1      28.259   6.295  48.384  1.00  0.00     0.037 A 
HETATM   18  C22 UNL     1      28.887   8.626  47.910  1.00  0.00     0.071 C 
HETATM   19  C14 UNL     1      29.329   5.518  48.168  1.00  0.00     0.017 C 
HETATM   20  C15 UNL     1      30.701   5.202  47.831  1.00  0.00     0.196 C 
HETATM   21  O1  UNL     1      31.598   5.066  48.854  1.00  0.00    -0.385 OA
HETATM   22  C16 UNL     1      31.785   6.169  49.625  1.00  0.00     0.194 C 
HETATM   23  C17 UNL     1      32.325   7.359  48.883  1.00  0.00     0.200 C 
HETATM   24  O2  UNL     1      31.429   7.733  47.824  1.00  0.00    -0.358 OA
HETATM   25  C18 UNL     1      31.308   9.035  47.505  1.00  0.00     0.171 C 
HETATM   26  C19 UNL     1      30.039   9.399  47.579  1.00  0.00     0.092 C 
BRANCH  26  27
HETATM   27  O3  UNL     1      30.321  10.599  47.245  1.00  0.00    -0.347 OA
BRANCH  27  28
HETATM   28  C20 UNL     1      30.472  11.913  47.330  1.00  0.00     0.201 C 
BRANCH  28  29
HETATM   29  C21 UNL     1      30.346  12.439  48.762  1.00  0.00     0.190 C 
BRANCH  29  30
HETATM   30  O4  UNL     1      29.321  11.805  49.461  1.00  0.00    -0.399 OA
HETATM   31  H22 UNL     1      29.022  12.360  50.223  1.00  0.00     0.209 HD
ENDBRANCH  29  30
ENDBRANCH  28  29
ENDBRANCH  27  28
ENDBRANCH  26  27
ENDBRANCH  10  12
ENDBRANCH   9  10
ENDBRANCH   8   9
ENDBRANCH   7   8
ENDBRANCH   4   7
TORSDOF 9
ENDMDL
MODEL 2
REMARK VINA RESULT:      -7.7      4.516     10.013
REMARK  9 active torsions:
REMARK  status: ('A' for Active; 'I' for Inactive)
REMARK    1  A    between atoms: C4_4  and  C7_7 
REMARK    2  A    between atoms: C7_7  and  C8_8 
REMARK    3  A    between atoms: C8_8  and  C9_9 
REMARK    4  A    between atoms: C9_9  and  N1_10 
REMARK    5  A    between atoms: N1_10  and  C10_11 
REMARK    6  A    between atoms: C19_24  and  O3_25 
REMARK    7  A    between atoms: O3_25  and  C20_26 
REMARK    8  A    between atoms: C20_26  and  C21_27 
REMARK    9  A    between atoms: C21_27  and  O4_28 
ROOT
HETATM    1  C1  UNL     1      27.796   8.793  46.326  1.00  0.00     0.017 C 
HETATM    2  C2  UNL     1      28.769   8.134  46.594  1.00  0.00    -0.088 C 
HETATM    3  C3  UNL     1      29.935   7.342  46.921  1.00  0.00     0.084 C 
HETATM    4  C4  UNL     1      29.878   6.238  47.646  1.00  0.00     0.024 C 
HETATM    5  C5  UNL     1      31.112   5.504  47.927  1.00  0.00    -0.077 C 
HETATM    6  C6  UNL     1      32.135   4.910  48.173  1.00  0.00     0.018 C 
ENDROOT
BRANCH   4   7
HETATM    7  C7  UNL     1      28.713   5.615  48.222  1.00  0.00     0.019 C 
BRANCH   7   8
HETATM    8  C8  UNL     1      27.566   5.126  48.602  1.00  0.00    -0.006 C 
BRANCH   8   9
HETATM    9  C9  UNL     1      26.882   3.962  49.264  1.00  0.00     0.148 C 
BRANCH   9  10
HETATM   10  N1  UNL     1      26.149   4.351  50.442  1.00  0.00    -0.371 N 
HETATM   11  H8  UNL     1      26.730   5.115  50.859  1.00  0.00     0.161 HD
BRANCH  10  12
HETATM   12  C10 UNL     1      24.925   3.707  50.792  1.00  0.00     0.137 A 
HETATM   13  N2  UNL     1      23.862   4.233  50.175  1.00  0.00    -0.224 NA
HETATM   14  C11 UNL     1      22.630   3.814  50.348  1.00  0.00     0.235 A 
HETATM   15  N3  UNL     1      22.499   2.803  51.197  1.00  0.00    -0.241 NA
HETATM   16  C12 UNL     1      23.483   2.194  51.871  1.00  0.00     0.074 A 
HETATM   17  C13 UNL     1      24.757   2.666  51.669  1.00  0.00     0.037 A 
HETATM   18  C22 UNL     1      22.987   1.235  52.600  1.00  0.00     0.071 C 
HETATM   19  C14 UNL     1      25.912   2.357  52.274  1.00  0.00     0.017 C 
HETATM   20  C15 UNL     1      26.799   1.644  53.168  1.00  0.00     0.196 C 
HETATM   21  O1  UNL     1      27.515   0.595  52.661  1.00  0.00    -0.385 OA
HETATM   22  C16 UNL     1      26.780  -0.438  52.171  1.00  0.00     0.194 C 
HETATM   23  C17 UNL     1      25.905  -1.113  53.190  1.00  0.00     0.200 C 
HETATM   24  O2  UNL     1      24.979  -0.169  53.752  1.00  0.00    -0.358 OA
HETATM   25  C18 UNL     1      23.752  -0.594  54.105  1.00  0.00     0.171 C 
HETATM   26  C19 UNL     1      22.832   0.134  53.495  1.00  0.00     0.092 C 
BRANCH  26  27
HETATM   27  O3  UNL     1      21.887  -0.532  54.035  1.00  0.00    -0.347 OA
BRANCH  27  28
HETATM   28  C20 UNL     1      20.880  -1.385  54.165  1.00  0.00     0.201 C 
BRANCH  28  29
HETATM   29  C21 UNL     1      19.573  -0.865  53.563  1.00  0.00     0.190 C 
BRANCH  29  30
HETATM   30  O4  UNL     1      19.793  -0.112  52.413  1.00  0.00    -0.399 OA
HETATM   31  H22 UNL     1      18.947   0.285  52.087  1.00  0.00     0.209 HD
ENDBRANCH  29  30
ENDBRANCH  28  29
ENDBRANCH  27  28
ENDBRANCH  26  27
ENDBRANCH  10  12
ENDBRANCH   9  10
ENDBRANCH   8   9
ENDBRANCH   7   8
ENDBRANCH   4   7
TORSDOF 9
ENDMDL
MODEL 3
REMARK VINA RESULT:      -7.5      5.737     10.808
REMARK  9 active torsions:
REMARK  status: ('A' for Active; 'I' for Inactive)
REMARK    1  A    between atoms: C4_4  and  C7_7 
REMARK    2  A    between atoms: C7_7  and  C8_8 
REMARK    3  A    between atoms: C8_8  and  C9_9 
REMARK    4  A    between atoms: C9_9  and  N1_10 
REMARK    5  A    between atoms: N1_10  and  C10_11 
REMARK    6  A    between atoms: C19_24  and  O3_25 
REMARK    7  A    between atoms: O3_25  and  C20_26 
REMARK    8  A    between atoms: C20_26  and  C21_27 
REMARK    9  A    between atoms: C21_27  and  O4_28 
ROOT
HETATM    1  C1  UNL     1      24.939   8.018  48.030  1.00  0.00     0.017 C 
HETATM    2  C2  UNL     1      26.089   7.671  47.938  1.00  0.00    -0.088 C 
HETATM    3  C3  UNL     1      27.471   7.252  47.833  1.00  0.00     0.084 C 
HETATM    4  C4  UNL     1      27.897   6.064  48.228  1.00  0.00     0.024 C 
HETATM    5  C5  UNL     1      29.314   5.730  48.084  1.00  0.00    -0.077 C 
HETATM    6  C6  UNL     1      30.489   5.464  47.980  1.00  0.00     0.018 C 
ENDROOT
BRANCH   4   7
HETATM    7  C7  UNL     1      27.125   4.991  48.802  1.00  0.00     0.019 C 
BRANCH   7   8
HETATM    8  C8  UNL     1      26.432   4.117  49.477  1.00  0.00    -0.006 C 
BRANCH   8   9
HETATM    9  C9  UNL     1      26.509   2.927  50.393  1.00  0.00     0.148 C 
BRANCH   9  10
HETATM   10  N1  UNL     1      25.706   3.091  51.577  1.00  0.00    -0.371 N 
HETATM   11  H8  UNL     1      26.014   4.012  51.965  1.00  0.00     0.161 HD
BRANCH  10  12
HETATM   12  C10 UNL     1      24.760   2.097  51.968  1.00  0.00     0.137 A 
HETATM   13  N2  UNL     1      25.286   1.156  52.760  1.00  0.00    -0.224 NA
HETATM   14  C11 UNL     1      24.613   0.135  53.235  1.00  0.00     0.235 A 
HETATM   15  N3  UNL     1      23.336   0.093  52.875  1.00  0.00    -0.241 NA
HETATM   16  C12 UNL     1      22.698   0.972  52.093  1.00  0.00     0.074 A 
HETATM   17  C13 UNL     1      23.439   2.023  51.609  1.00  0.00     0.037 A 
HETATM   18  C22 UNL     1      21.450   0.621  51.966  1.00  0.00     0.071 C 
HETATM   19  C14 UNL     1      23.127   2.979  50.723  1.00  0.00     0.017 C 
HETATM   20  C15 UNL     1      22.287   3.739  49.823  1.00  0.00     0.196 C 
HETATM   21  O1  UNL     1      21.693   4.874  50.304  1.00  0.00    -0.385 OA
HETATM   22  C16 UNL     1      20.838   4.697  51.344  1.00  0.00     0.194 C 
HETATM   23  C17 UNL     1      19.654   3.826  51.030  1.00  0.00     0.200 C 
HETATM   24  O2  UNL     1      20.092   2.521  50.620  1.00  0.00    -0.358 OA
HETATM   25  C18 UNL     1      19.340   1.452  50.941  1.00  0.00     0.171 C 
HETATM   26  C19 UNL     1      20.070   0.572  51.605  1.00  0.00     0.092 C 
BRANCH  26  27
HETATM   27  O3  UNL     1      19.077  -0.221  51.728  1.00  0.00    -0.347 OA
BRANCH  27  28
HETATM   28  C20 UNL     1      17.831  -0.671  51.698  1.00  0.00     0.201 C 
BRANCH  28  29
HETATM   29  C21 UNL     1      17.357  -1.215  53.048  1.00  0.00     0.190 C 
BRANCH  29  30
HETATM   30  O4  UNL     1      16.193  -0.587  53.483  1.00  0.00    -0.399 OA
HETATM   31  H22 UNL     1      15.397  -0.991  53.056  1.00  0.00     0.209 HD
ENDBRANCH  29  30
ENDBRANCH  28  29
ENDBRANCH  27  28
ENDBRANCH  26  27
ENDBRANCH  10  12
ENDBRANCH   9  10
ENDBRANCH   8   9
ENDBRANCH   7   8
ENDBRANCH   4   7
TORSDOF 9
ENDMDL
MODEL 4
REMARK VINA RESULT:      -7.3      4.808     10.254
REMARK  9 active torsions:
REMARK  status: ('A' for Active; 'I' for Inactive)
REMARK    1  A    between atoms: C4_4  and  C7_7 
REMARK    2  A    between atoms: C7_7  and  C8_8 
REMARK    3  A    between atoms: C8_8  and  C9_9 
REMARK    4  A    between atoms: C9_9  and  N1_10 
REMARK    5  A    between atoms: N1_10  and  C10_11 
REMARK    6  A    between atoms: C19_24  and  O3_25 
REMARK    7  A    between atoms: O3_25  and  C20_26 
REMARK    8  A    between atoms: C20_26  and  C21_27 
REMARK    9  A    between atoms: C21_27  and  O4_28 
ROOT
HETATM    1  C1  UNL     1      24.687   7.804  47.083  1.00  0.00     0.017 C 
HETATM    2  C2  UNL     1      25.776   8.199  47.416  1.00  0.00    -0.088 C 
HETATM    3  C3  UNL     1      27.084   8.668  47.820  1.00  0.00     0.084 C 
HETATM    4  C4  UNL     1      28.056   7.857  48.202  1.00  0.00     0.024 C 
HETATM    5  C5  UNL     1      29.346   8.425  48.596  1.00  0.00    -0.077 C 
HETATM    6  C6  UNL     1      30.404   8.898  48.937  1.00  0.00     0.018 C 
ENDROOT
BRANCH   4   7
HETATM    7  C7  UNL     1      28.030   6.418  48.282  1.00  0.00     0.019 C 
BRANCH   7   8
HETATM    8  C8  UNL     1      28.048   5.139  48.532  1.00  0.00    -0.006 C 
BRANCH   8   9
HETATM    9  C9  UNL     1      27.228   3.960  48.976  1.00  0.00     0.148 C 
BRANCH   9  10
HETATM   10  N1  UNL     1      26.442   4.246  50.149  1.00  0.00    -0.371 N 
HETATM   11  H8  UNL     1      26.334   5.286  50.132  1.00  0.00     0.161 HD
BRANCH  10  12
HETATM   12  C10 UNL     1      26.011   3.200  51.018  1.00  0.00     0.137 A 
HETATM   13  N2  UNL     1      27.025   2.540  51.587  1.00  0.00    -0.224 NA
HETATM   14  C11 UNL     1      26.875   1.532  52.414  1.00  0.00     0.235 A 
HETATM   15  N3  UNL     1      25.615   1.199  52.663  1.00  0.00    -0.241 NA
HETATM   16  C12 UNL     1      24.520   1.783  52.160  1.00  0.00     0.074 A 
HETATM   17  C13 UNL     1      24.719   2.829  51.292  1.00  0.00     0.037 A 
HETATM   18  C22 UNL     1      23.455   1.203  52.636  1.00  0.00     0.071 C 
HETATM   19  C14 UNL     1      23.851   3.523  50.543  1.00  0.00     0.017 C 
HETATM   20  C15 UNL     1      22.560   3.934  50.036  1.00  0.00     0.196 C 
HETATM   21  O1  UNL     1      21.961   5.021  50.611  1.00  0.00    -0.385 OA
HETATM   22  C16 UNL     1      21.678   4.907  51.935  1.00  0.00     0.194 C 
HETATM   23  C17 UNL     1      20.718   3.800  52.270  1.00  0.00     0.200 C 
HETATM   24  O2  UNL     1      21.250   2.535  51.844  1.00  0.00    -0.358 OA
HETATM   25  C18 UNL     1      20.978   1.437  52.574  1.00  0.00     0.171 C 
HETATM   26  C19 UNL     1      22.105   0.846  52.931  1.00  0.00     0.092 C 
BRANCH  26  27
HETATM   27  O3  UNL     1      21.475  -0.066  53.563  1.00  0.00    -0.347 OA
BRANCH  27  28
HETATM   28  C20 UNL     1      21.249  -1.108  54.351  1.00  0.00     0.201 C 
BRANCH  28  29
HETATM   29  C21 UNL     1      22.506  -1.939  54.619  1.00  0.00     0.190 C 
BRANCH  29  30
HETATM   30  O4  UNL     1      22.970  -1.777  55.922  1.00  0.00    -0.399 OA
HETATM   31  H22 UNL     1      22.251  -1.965  56.576  1.00  0.00     0.209 HD
ENDBRANCH  29  30
ENDBRANCH  28  29
ENDBRANCH  27  28
ENDBRANCH  26  27
ENDBRANCH  10  12
ENDBRANCH   9  10
ENDBRANCH   8   9
ENDBRANCH   7   8
ENDBRANCH   4   7
TORSDOF 9
ENDMDL
MODEL 5
REMARK VINA RESULT:      -7.1      5.986      9.418
REMARK  9 active torsions:
REMARK  status: ('A' for Active; 'I' for Inactive)
REMARK    1  A    between atoms: C4_4  and  C7_7 
REMARK    2  A    between atoms: C7_7  and  C8_8 
REMARK    3  A    between atoms: C8_8  and  C9_9 
REMARK    4  A    between atoms: C9_9  and  N1_10 
REMARK    5  A    between atoms: N1_10  and  C10_11 
REMARK    6  A    between atoms: C19_24  and  O3_25 
REMARK    7  A    between atoms: O3_25  and  C20_26 
REMARK    8  A    between atoms: C20_26  and  C21_27 
REMARK    9  A    between atoms: C21_27  and  O4_28 
ROOT
HETATM    1  C1  UNL     1      19.232   6.786  47.730  1.00  0.00     0.017 C 
HETATM    2  C2  UNL     1      20.000   5.876  47.543  1.00  0.00    -0.088 C 
HETATM    3  C3  UNL     1      20.922   4.782  47.323  1.00  0.00     0.084 C 
HETATM    4  C4  UNL     1      20.889   3.659  48.019  1.00  0.00     0.024 C 
HETATM    5  C5  UNL     1      21.865   2.609  47.727  1.00  0.00    -0.077 C 
HETATM    6  C6  UNL     1      22.684   1.750  47.495  1.00  0.00     0.018 C 
ENDROOT
BRANCH   4   7
HETATM    7  C7  UNL     1      19.975   3.296  49.073  1.00  0.00     0.019 C 
BRANCH   7   8
HETATM    8  C8  UNL     1      19.299   2.941  50.130  1.00  0.00    -0.006 C 
BRANCH   8   9
HETATM    9  C9  UNL     1      19.147   3.127  51.614  1.00  0.00     0.148 C 
BRANCH   9  10
HETATM   10  N1  UNL     1      20.408   3.356  52.272  1.00  0.00    -0.371 N 
HETATM   11  H8  UNL     1      20.412   4.385  52.459  1.00  0.00     0.161 HD
BRANCH  10  12
HETATM   12  C10 UNL     1      21.317   2.283  52.515  1.00  0.00     0.137 A 
HETATM   13  N2  UNL     1      20.713   1.177  52.963  1.00  0.00    -0.224 NA
HETATM   14  C11 UNL     1      21.343   0.067  53.267  1.00  0.00     0.235 A 
HETATM   15  N3  UNL     1      22.658   0.107  53.093  1.00  0.00    -0.241 NA
HETATM   16  C12 UNL     1      23.373   1.148  52.650  1.00  0.00     0.074 A 
HETATM   17  C13 UNL     1      22.678   2.295  52.350  1.00  0.00     0.037 A 
HETATM   18  C22 UNL     1      24.633   0.823  52.591  1.00  0.00     0.071 C 
HETATM   19  C14 UNL     1      23.109   3.518  52.011  1.00  0.00     0.017 C 
HETATM   20  C15 UNL     1      24.069   4.542  51.660  1.00  0.00     0.196 C 
HETATM   21  O1  UNL     1      24.294   4.785  50.333  1.00  0.00    -0.385 OA
HETATM   22  C16 UNL     1      24.782   3.738  49.617  1.00  0.00     0.194 C 
HETATM   23  C17 UNL     1      26.122   3.242  50.081  1.00  0.00     0.200 C 
HETATM   24  O2  UNL     1      26.046   2.814  51.451  1.00  0.00    -0.358 OA
HETATM   25  C18 UNL     1      26.808   1.779  51.851  1.00  0.00     0.171 C 
HETATM   26  C19 UNL     1      26.045   0.843  52.389  1.00  0.00     0.092 C 
BRANCH  26  27
HETATM   27  O3  UNL     1      27.053   0.092  52.612  1.00  0.00    -0.347 OA
BRANCH  27  28
HETATM   28  C20 UNL     1      27.777  -0.919  53.074  1.00  0.00     0.201 C 
BRANCH  28  29
HETATM   29  C21 UNL     1      27.234  -2.286  52.652  1.00  0.00     0.190 C 
BRANCH  29  30
HETATM   30  O4  UNL     1      28.203  -3.283  52.746  1.00  0.00    -0.399 OA
HETATM   31  H22 UNL     1      29.064  -2.970  52.371  1.00  0.00     0.209 HD
ENDBRANCH  29  30
ENDBRANCH  28  29
ENDBRANCH  27  28
ENDBRANCH  26  27
ENDBRANCH  10  12
ENDBRANCH   9  10
ENDBRANCH   8   9
ENDBRANCH   7   8
ENDBRANCH   4   7
TORSDOF 9
ENDMDL
MODEL 6
REMARK VINA RESULT:      -7.0      2.421      4.486
REMARK  9 active torsions:
REMARK  status: ('A' for Active; 'I' for Inactive)
REMARK    1  A    between atoms: C4_4  and  C7_7 
REMARK    2  A    between atoms: C7_7  and  C8_8 
REMARK    3  A    between atoms: C8_8  and  C9_9 
REMARK    4  A    between atoms: C9_9  and  N1_10 
REMARK    5  A    between atoms: N1_10  and  C10_11 
REMARK    6  A    between atoms: C19_24  and  O3_25 
REMARK    7  A    between atoms: O3_25  and  C20_26 
REMARK    8  A    between atoms: C20_26  and  C21_27 
REMARK    9  A    between atoms: C21_27  and  O4_28 
ROOT
HETATM    1  C1  UNL     1      18.856   0.226  51.259  1.00  0.00     0.017 C 
HETATM    2  C2  UNL     1      19.957   0.215  51.750  1.00  0.00    -0.088 C 
HETATM    3  C3  UNL     1      21.281   0.203  52.335  1.00  0.00     0.084 C 
HETATM    4  C4  UNL     1      22.305   0.861  51.818  1.00  0.00     0.024 C 
HETATM    5  C5  UNL     1      23.608   0.787  52.478  1.00  0.00    -0.077 C 
HETATM    6  C6  UNL     1      24.687   0.709  53.016  1.00  0.00     0.018 C 
ENDROOT
BRANCH   4   7
HETATM    7  C7  UNL     1      22.320   1.693  50.640  1.00  0.00     0.019 C 
BRANCH   7   8
HETATM    8  C8  UNL     1      22.339   2.287  49.480  1.00  0.00    -0.006 C 
BRANCH   8   9
HETATM    9  C9  UNL     1      22.581   3.589  48.768  1.00  0.00     0.148 C 
BRANCH   9  10
HETATM   10  N1  UNL     1      23.412   4.486  49.528  1.00  0.00    -0.371 N 
HETATM   11  H8  UNL     1      22.741   4.976  50.163  1.00  0.00     0.161 HD
BRANCH  10  12
HETATM   12  C10 UNL     1      24.821   4.548  49.308  1.00  0.00     0.137 A 
HETATM   13  N2  UNL     1      25.452   3.414  49.631  1.00  0.00    -0.224 NA
HETATM   14  C11 UNL     1      26.748   3.238  49.525  1.00  0.00     0.235 A 
HETATM   15  N3  UNL     1      27.416   4.286  49.059  1.00  0.00    -0.241 NA
HETATM   16  C12 UNL     1      26.900   5.468  48.701  1.00  0.00     0.074 A 
HETATM   17  C13 UNL     1      25.540   5.615  48.834  1.00  0.00     0.037 A 
HETATM   18  C22 UNL     1      27.849   6.252  48.277  1.00  0.00     0.071 C 
HETATM   19  C14 UNL     1      24.756   6.692  48.680  1.00  0.00     0.017 C 
HETATM   20  C15 UNL     1      24.422   8.060  48.349  1.00  0.00     0.196 C 
HETATM   21  O1  UNL     1      23.945   8.318  47.093  1.00  0.00    -0.385 OA
HETATM   22  C16 UNL     1      24.787   8.018  46.070  1.00  0.00     0.194 C 
HETATM   23  C17 UNL     1      26.078   8.787  46.084  1.00  0.00     0.200 C 
HETATM   24  O2  UNL     1      26.794   8.533  47.304  1.00  0.00    -0.358 OA
HETATM   25  C18 UNL     1      28.139   8.512  47.275  1.00  0.00     0.171 C 
HETATM   26  C19 UNL     1      28.580   7.362  47.758  1.00  0.00     0.092 C 
BRANCH  26  27
HETATM   27  O3  UNL     1      29.796   7.700  47.566  1.00  0.00    -0.347 OA
BRANCH  27  28
HETATM   28  C20 UNL     1      31.009   8.179  47.804  1.00  0.00     0.201 C 
BRANCH  28  29
HETATM   29  C21 UNL     1      31.247   8.497  49.282  1.00  0.00     0.190 C 
BRANCH  29  30
HETATM   30  O4  UNL     1      31.361   7.341  50.052  1.00  0.00    -0.399 OA
HETATM   31  H22 UNL     1      32.198   6.860  49.838  1.00  0.00     0.209 HD
ENDBRANCH  29  30
ENDBRANCH  28  29
ENDBRANCH  27  28
ENDBRANCH  26  27
ENDBRANCH  10  12
ENDBRANCH   9  10
ENDBRANCH   8   9
ENDBRANCH   7   8
ENDBRANCH   4   7
TORSDOF 9
ENDMDL
MODEL 7
REMARK VINA RESULT:      -6.8      2.506      4.780
REMARK  9 active torsions:
REMARK  status: ('A' for Active; 'I' for Inactive)
REMARK    1  A    between atoms: C4_4  and  C7_7 
REMARK    2  A    between atoms: C7_7  and  C8_8 
REMARK    3  A    between atoms: C8_8  and  C9_9 
REMARK    4  A    between atoms: C9_9  and  N1_10 
REMARK    5  A    between atoms: N1_10  and  C10_11 
REMARK    6  A    between atoms: C19_24  and  O3_25 
REMARK    7  A    between atoms: O3_25  and  C20_26 
REMARK    8  A    between atoms: C20_26  and  C21_27 
REMARK    9  A    between atoms: C21_27  and  O4_28 
ROOT
HETATM    1  C1  UNL     1      27.518   1.463  52.464  1.00  0.00     0.017 C 
HETATM    2  C2  UNL     1      26.534   0.798  52.670  1.00  0.00    -0.088 C 
HETATM    3  C3  UNL     1      25.349   0.004  52.919  1.00  0.00     0.084 C 
HETATM    4  C4  UNL     1      24.133   0.519  52.969  1.00  0.00     0.024 C 
HETATM    5  C5  UNL     1      22.995  -0.364  53.230  1.00  0.00    -0.077 C 
HETATM    6  C6  UNL     1      22.059  -1.092  53.463  1.00  0.00     0.018 C 
ENDROOT
BRANCH   4   7
HETATM    7  C7  UNL     1      23.744   1.894  52.786  1.00  0.00     0.019 C 
BRANCH   7   8
HETATM    8  C8  UNL     1      23.326   3.129  52.792  1.00  0.00    -0.006 C 
BRANCH   8   9
HETATM    9  C9  UNL     1      22.808   4.258  51.944  1.00  0.00     0.148 C 
BRANCH   9  10
HETATM   10  N1  UNL     1      23.137   4.096  50.551  1.00  0.00    -0.371 N 
HETATM   11  H8  UNL     1      22.259   3.719  50.126  1.00  0.00     0.161 HD
BRANCH  10  12
HETATM   12  C10 UNL     1      24.435   4.427  50.059  1.00  0.00     0.137 A 
HETATM   13  N2  UNL     1      25.198   3.353  49.831  1.00  0.00    -0.224 NA
HETATM   14  C11 UNL     1      26.432   3.408  49.388  1.00  0.00     0.235 A 
HETATM   15  N3  UNL     1      26.891   4.634  49.169  1.00  0.00    -0.241 NA
HETATM   16  C12 UNL     1      26.226   5.781  49.356  1.00  0.00     0.074 A 
HETATM   17  C13 UNL     1      24.939   5.681  49.828  1.00  0.00     0.037 A 
HETATM   18  C22 UNL     1      26.983   6.787  49.023  1.00  0.00     0.071 C 
HETATM   19  C14 UNL     1      24.076   6.626  50.224  1.00  0.00     0.017 C 
HETATM   20  C15 UNL     1      23.581   7.966  50.458  1.00  0.00     0.196 C 
HETATM   21  O1  UNL     1      22.783   8.531  49.501  1.00  0.00    -0.385 OA
HETATM   22  C16 UNL     1      23.351   8.690  48.278  1.00  0.00     0.194 C 
HETATM   23  C17 UNL     1      24.552   9.595  48.266  1.00  0.00     0.200 C 
HETATM   24  O2  UNL     1      25.570   9.079  49.137  1.00  0.00    -0.358 OA
HETATM   25  C18 UNL     1      26.862   9.263  48.807  1.00  0.00     0.171 C 
HETATM   26  C19 UNL     1      27.484   8.097  48.762  1.00  0.00     0.092 C 
BRANCH  26  27
HETATM   27  O3  UNL     1      28.586   8.651  48.432  1.00  0.00    -0.347 OA
BRANCH  27  28
HETATM   28  C20 UNL     1      29.473   9.338  47.725  1.00  0.00     0.201 C 
BRANCH  28  29
HETATM   29  C21 UNL     1      30.652   9.834  48.565  1.00  0.00     0.190 C 
BRANCH  29  30
HETATM   30  O4  UNL     1      30.242  10.323  49.803  1.00  0.00    -0.399 OA
HETATM   31  H22 UNL     1      30.348   9.633  50.504  1.00  0.00     0.209 HD
ENDBRANCH  29  30
ENDBRANCH  28  29
ENDBRANCH  27  28
ENDBRANCH  26  27
ENDBRANCH  10  12
ENDBRANCH   9  10
ENDBRANCH   8   9
ENDBRANCH   7   8
ENDBRANCH   4   7
TORSDOF 9
ENDMDL
MODEL 8
REMARK VINA RESULT:      -6.7      5.246      9.673
REMARK  9 active torsions:
REMARK  status: ('A' for Active; 'I' for Inactive)
REMARK    1  A    between atoms: C4_4  and  C7_7 
REMARK    2  A    between atoms: C7_7  and  C8_8 
REMARK    3  A    between atoms: C8_8  and  C9_9 
REMARK    4  A    between atoms: C9_9  and  N1_10 
REMARK    5  A    between atoms: N1_10  and  C10_11 
REMARK    6  A    between atoms: C19_24  and  O3_25 
REMARK    7  A    between atoms: O3_25  and  C20_26 
REMARK    8  A    between atoms: C20_26  and  C21_27 
REMARK    9  A    between atoms: C21_27  and  O4_28 
ROOT
HETATM    1  C1  UNL     1      26.360   3.417  49.662  1.00  0.00     0.017 C 
HETATM    2  C2  UNL     1      27.145   4.175  49.151  1.00  0.00    -0.088 C 
HETATM    3  C3  UNL     1      28.084   5.088  48.533  1.00  0.00     0.084 C 
HETATM    4  C4  UNL     1      27.734   6.271  48.058  1.00  0.00     0.024 C 
HETATM    5  C5  UNL     1      28.754   7.125  47.448  1.00  0.00    -0.077 C 
HETATM    6  C6  UNL     1      29.595   7.820  46.929  1.00  0.00     0.018 C 
ENDROOT
BRANCH   4   7
HETATM    7  C7  UNL     1      26.427   6.877  48.063  1.00  0.00     0.019 C 
BRANCH   7   8
HETATM    8  C8  UNL     1      25.178   7.253  48.069  1.00  0.00    -0.006 C 
BRANCH   8   9
HETATM    9  C9  UNL     1      23.835   7.073  47.418  1.00  0.00     0.148 C 
BRANCH   9  10
HETATM   10  N1  UNL     1      22.787   6.834  48.377  1.00  0.00    -0.371 N 
HETATM   11  H8  UNL     1      21.969   7.359  47.992  1.00  0.00     0.161 HD
BRANCH  10  12
HETATM   12  C10 UNL     1      23.018   6.033  49.535  1.00  0.00     0.137 A 
HETATM   13  N2  UNL     1      23.595   6.711  50.533  1.00  0.00    -0.224 NA
HETATM   14  C11 UNL     1      23.914   6.185  51.692  1.00  0.00     0.235 A 
HETATM   15  N3  UNL     1      23.618   4.897  51.819  1.00  0.00    -0.241 NA
HETATM   16  C12 UNL     1      23.041   4.116  50.898  1.00  0.00     0.074 A 
HETATM   17  C13 UNL     1      22.729   4.703  49.695  1.00  0.00     0.037 A 
HETATM   18  C22 UNL     1      22.890   2.913  51.375  1.00  0.00     0.071 C 
HETATM   19  C14 UNL     1      22.268   4.171  48.554  1.00  0.00     0.017 C 
HETATM   20  C15 UNL     1      21.763   3.140  47.674  1.00  0.00     0.196 C 
HETATM   21  O1  UNL     1      20.407   3.022  47.536  1.00  0.00    -0.385 OA
HETATM   22  C16 UNL     1      19.722   2.730  48.672  1.00  0.00     0.194 C 
HETATM   23  C17 UNL     1      20.094   1.415  49.298  1.00  0.00     0.200 C 
HETATM   24  O2  UNL     1      21.491   1.403  49.635  1.00  0.00    -0.358 OA
HETATM   25  C18 UNL     1      21.890   0.728  50.729  1.00  0.00     0.171 C 
HETATM   26  C19 UNL     1      22.558   1.534  51.535  1.00  0.00     0.092 C 
BRANCH  26  27
HETATM   27  O3  UNL     1      22.738   0.601  52.387  1.00  0.00    -0.347 OA
BRANCH  27  28
HETATM   28  C20 UNL     1      22.494  -0.460  53.143  1.00  0.00     0.201 C 
BRANCH  28  29
HETATM   29  C21 UNL     1      21.620  -0.141  54.359  1.00  0.00     0.190 C 
BRANCH  29  30
HETATM   30  O4  UNL     1      20.370   0.348  53.987  1.00  0.00    -0.399 OA
HETATM   31  H22 UNL     1      20.429   0.850  53.137  1.00  0.00     0.209 HD
ENDBRANCH  29  30
ENDBRANCH  28  29
ENDBRANCH  27  28
ENDBRANCH  26  27
ENDBRANCH  10  12
ENDBRANCH   9  10
ENDBRANCH   8   9
ENDBRANCH   7   8
ENDBRANCH   4   7
TORSDOF 9
ENDMDL
MODEL 9
REMARK VINA RESULT:      -6.7      4.663      7.999
REMARK  9 active torsions:
REMARK  status: ('A' for Active; 'I' for Inactive)
REMARK    1  A    between atoms: C4_4  and  C7_7 
REMARK    2  A    between atoms: C7_7  and  C8_8 
REMARK    3  A    between atoms: C8_8  and  C9_9 
REMARK    4  A    between atoms: C9_9  and  N1_10 
REMARK    5  A    between atoms: N1_10  and  C10_11 
REMARK    6  A    between atoms: C19_24  and  O3_25 
REMARK    7  A    between atoms: O3_25  and  C20_26 
REMARK    8  A    between atoms: C20_26  and  C21_27 
REMARK    9  A    between atoms: C21_27  and  O4_28 
ROOT
HETATM    1  C1  UNL     1      28.767   9.635  46.204  1.00  0.00     0.017 C 
HETATM    2  C2  UNL     1      28.249   8.653  46.672  1.00  0.00    -0.088 C 
HETATM    3  C3  UNL     1      27.632   7.470  47.234  1.00  0.00     0.084 C 
HETATM    4  C4  UNL     1      28.275   6.627  48.024  1.00  0.00     0.024 C 
HETATM    5  C5  UNL     1      27.568   5.455  48.543  1.00  0.00    -0.077 C 
HETATM    6  C6  UNL     1      26.987   4.479  48.956  1.00  0.00     0.018 C 
ENDROOT
BRANCH   4   7
HETATM    7  C7  UNL     1      29.640   6.704  48.479  1.00  0.00     0.019 C 
BRANCH   7   8
HETATM    8  C8  UNL     1      30.910   6.641  48.768  1.00  0.00    -0.006 C 
BRANCH   8   9
HETATM    9  C9  UNL     1      31.935   6.033  49.685  1.00  0.00     0.148 C 
BRANCH   9  10
HETATM   10  N1  UNL     1      33.147   5.674  48.993  1.00  0.00    -0.371 N 
HETATM   11  H8  UNL     1      33.903   6.118  49.564  1.00  0.00     0.161 HD
BRANCH  10  12
HETATM   12  C10 UNL     1      33.110   4.887  47.804  1.00  0.00     0.137 A 
HETATM   13  N2  UNL     1      32.854   3.596  48.038  1.00  0.00    -0.224 NA
HETATM   14  C11 UNL     1      32.782   2.679  47.102  1.00  0.00     0.235 A 
HETATM   15  N3  UNL     1      32.983   3.126  45.868  1.00  0.00    -0.241 NA
HETATM   16  C12 UNL     1      33.243   4.389  45.508  1.00  0.00     0.074 A 
HETATM   17  C13 UNL     1      33.317   5.318  46.518  1.00  0.00     0.037 A 
HETATM   18  C22 UNL     1      33.366   4.460  44.214  1.00  0.00     0.071 C 
HETATM   19  C14 UNL     1      33.675   6.609  46.496  1.00  0.00     0.017 C 
HETATM   20  C15 UNL     1      34.070   7.872  45.911  1.00  0.00     0.196 C 
HETATM   21  O1  UNL     1      33.092   8.792  45.651  1.00  0.00    -0.385 OA
HETATM   22  C16 UNL     1      32.136   8.403  44.768  1.00  0.00     0.194 C 
HETATM   23  C17 UNL     1      32.654   8.092  43.392  1.00  0.00     0.200 C 
HETATM   24  O2  UNL     1      33.624   7.033  43.454  1.00  0.00    -0.358 OA
HETATM   25  C18 UNL     1      33.702   6.163  42.430  1.00  0.00     0.171 C 
HETATM   26  C19 UNL     1      33.558   4.928  42.879  1.00  0.00     0.092 C 
BRANCH  26  27
HETATM   27  O3  UNL     1      33.671   4.443  41.704  1.00  0.00    -0.347 OA
BRANCH  27  28
HETATM   28  C20 UNL     1      33.356   4.093  40.464  1.00  0.00     0.201 C 
BRANCH  28  29
HETATM   29  C21 UNL     1      34.581   3.875  39.574  1.00  0.00     0.190 C 
BRANCH  29  30
HETATM   30  O4  UNL     1      35.669   4.641  39.987  1.00  0.00    -0.399 OA
HETATM   31  H22 UNL     1      35.811   4.549  40.962  1.00  0.00     0.209 HD
ENDBRANCH  29  30
ENDBRANCH  28  29
ENDBRANCH  27  28
ENDBRANCH  26  27
ENDBRANCH  10  12
ENDBRANCH   9  10
ENDBRANCH   8   9
ENDBRANCH   7   8
ENDBRANCH   4   7
TORSDOF 9
ENDMDL
