MODEL 1
REMARK VINA RESULT:      -8.1      0.000      0.000
REMARK  3 active torsions:
REMARK  status: ('A' for Active; 'I' for Inactive)
REMARK    1  A    between atoms: C1_2  and  C2_3 
REMARK       I    between atoms: C1_2  and  N1_12 
REMARK    2  A    between atoms: C3_4  and  C4_5 
REMARK    3  A    between atoms: N1_12  and  C10_13 
ROOT
HETATM    1  O1  UNL     1      23.001  -0.874  55.028  1.00  0.00    -0.268 OA
HETATM    2  C1  UNL     1      22.642  -0.555  53.887  1.00  0.00     0.245 C 
HETATM    3  N1  UNL     1      23.605   0.016  53.026  1.00  0.00    -0.324 N 
HETATM    4  H7  UNL     1      23.196   0.248  52.084  1.00  0.00     0.169 HD
ENDROOT
BRANCH   3   5
HETATM    5  C10 UNL     1      24.970   0.296  53.253  1.00  0.00     0.035 A 
HETATM    6  C11 UNL     1      25.523   1.477  53.628  1.00  0.00     0.032 A 
HETATM    7  C12 UNL     1      26.869   1.697  53.836  1.00  0.00     0.035 A 
HETATM    8  C13 UNL     1      27.743   0.666  53.660  1.00  0.00     0.070 A 
HETATM    9  N2  UNL     1      29.068   0.784  53.839  1.00  0.00    -0.241 NA
HETATM   10  C16 UNL     1      27.237  -0.545  53.283  1.00  0.00     0.012 A 
HETATM   11  C14 UNL     1      29.861  -0.262  53.650  1.00  0.00     0.233 A 
HETATM   12  N3  UNL     1      29.398  -1.473  53.277  1.00  0.00    -0.253 NA
HETATM   13  C15 UNL     1      28.084  -1.617  53.093  1.00  0.00     0.132 A 
HETATM   14  C17 UNL     1      25.885  -0.721  53.085  1.00  0.00     0.044 A 
ENDBRANCH   3   5
BRANCH   2  15
HETATM   15  C2  UNL     1      21.255  -0.788  53.510  1.00  0.00     0.075 C 
HETATM   16  C3  UNL     1      20.379  -0.150  52.756  1.00  0.00     0.017 C 
BRANCH  16  17
HETATM   17  C4  UNL     1      18.991  -0.417  52.400  1.00  0.00    -0.036 A 
HETATM   18  C5  UNL     1      18.210  -1.168  53.250  1.00  0.00     0.013 A 
HETATM   19  C6  UNL     1      16.896  -1.418  52.911  1.00  0.00     0.024 A 
HETATM   20  C7  UNL     1      16.439  -0.893  51.720  1.00  0.00     0.034 A 
HETATM   21 CL1  UNL     1      14.755  -1.214  51.285  1.00  0.00    -0.084 Cl
HETATM   22  C8  UNL     1      17.243  -0.146  50.891  1.00  0.00     0.024 A 
HETATM   23  C9  UNL     1      18.558   0.119  51.207  1.00  0.00     0.013 A 
ENDBRANCH  16  17
ENDBRANCH   2  15
TORSDOF 3
ENDMDL
MODEL 2
REMARK VINA RESULT:      -8.0      6.300      9.515
REMARK  3 active torsions:
REMARK  status: ('A' for Active; 'I' for Inactive)
REMARK    1  A    between atoms: C1_2  and  C2_3 
REMARK       I    between atoms: C1_2  and  N1_12 
REMARK    2  A    between atoms: C3_4  and  C4_5 
REMARK    3  A    between atoms: N1_12  and  C10_13 
ROOT
HETATM    1  O1  UNL     1      23.690   4.269  51.074  1.00  0.00    -0.268 OA
HETATM    2  C1  UNL     1      24.644   3.571  50.706  1.00  0.00     0.245 C 
HETATM    3  N1  UNL     1      24.568   2.178  50.926  1.00  0.00    -0.324 N 
HETATM    4  H7  UNL     1      25.428   1.681  50.576  1.00  0.00     0.169 HD
ENDROOT
BRANCH   3   5
HETATM    5  C10 UNL     1      23.544   1.410  51.522  1.00  0.00     0.035 A 
HETATM    6  C11 UNL     1      22.261   1.273  51.104  1.00  0.00     0.032 A 
HETATM    7  C12 UNL     1      21.297   0.508  51.727  1.00  0.00     0.035 A 
HETATM    8  C13 UNL     1      21.626  -0.182  52.856  1.00  0.00     0.070 A 
HETATM    9  N2  UNL     1      20.757  -0.951  53.529  1.00  0.00    -0.241 NA
HETATM   10  C16 UNL     1      22.906  -0.077  53.318  1.00  0.00     0.012 A 
HETATM   11  C14 UNL     1      21.146  -1.594  54.622  1.00  0.00     0.233 A 
HETATM   12  N3  UNL     1      22.401  -1.516  55.109  1.00  0.00    -0.253 NA
HETATM   13  C15 UNL     1      23.285  -0.757  54.458  1.00  0.00     0.132 A 
HETATM   14  C17 UNL     1      23.838   0.699  52.666  1.00  0.00     0.044 A 
ENDBRANCH   3   5
BRANCH   2  15
HETATM   15  C2  UNL     1      25.777   4.231  50.072  1.00  0.00     0.075 C 
HETATM   16  C3  UNL     1      25.909   5.175  49.159  1.00  0.00     0.017 C 
BRANCH  16  17
HETATM   17  C4  UNL     1      27.068   5.813  48.547  1.00  0.00    -0.036 A 
HETATM   18  C5  UNL     1      28.280   5.158  48.554  1.00  0.00     0.013 A 
HETATM   19  C6  UNL     1      29.374   5.764  47.973  1.00  0.00     0.024 A 
HETATM   20  C7  UNL     1      29.185   7.010  47.413  1.00  0.00     0.034 A 
HETATM   21 CL1  UNL     1      30.589   7.788  46.668  1.00  0.00    -0.084 Cl
HETATM   22  C8  UNL     1      27.962   7.640  47.421  1.00  0.00     0.024 A 
HETATM   23  C9  UNL     1      26.853   7.056  47.993  1.00  0.00     0.013 A 
ENDBRANCH  16  17
ENDBRANCH   2  15
TORSDOF 3
ENDMDL
MODEL 3
REMARK VINA RESULT:      -8.0      1.655      2.434
REMARK  3 active torsions:
REMARK  status: ('A' for Active; 'I' for Inactive)
REMARK    1  A    between atoms: C1_2  and  C2_3 
REMARK       I    between atoms: C1_2  and  N1_12 
REMARK    2  A    between atoms: C3_4  and  C4_5 
REMARK    3  A    between atoms: N1_12  and  C10_13 
ROOT
HETATM    1  O1  UNL     1      21.131   0.148  54.922  1.00  0.00    -0.268 OA
HETATM    2  C1  UNL     1      20.953  -0.092  53.721  1.00  0.00     0.245 C 
HETATM    3  N1  UNL     1      22.005   0.200  52.824  1.00  0.00    -0.324 N 
HETATM    4  H7  UNL     1      21.750  -0.043  51.832  1.00  0.00     0.169 HD
ENDROOT
BRANCH   3   5
HETATM    5  C10 UNL     1      23.284   0.744  53.076  1.00  0.00     0.035 A 
HETATM    6  C11 UNL     1      23.666   2.042  52.986  1.00  0.00     0.032 A 
HETATM    7  C12 UNL     1      24.934   2.520  53.243  1.00  0.00     0.035 A 
HETATM    8  C13 UNL     1      25.908   1.645  53.621  1.00  0.00     0.070 A 
HETATM    9  N2  UNL     1      27.168   2.016  53.892  1.00  0.00    -0.241 NA
HETATM   10  C16 UNL     1      25.575   0.325  53.726  1.00  0.00     0.012 A 
HETATM   11  C14 UNL     1      28.066   1.109  54.254  1.00  0.00     0.233 A 
HETATM   12  N3  UNL     1      27.775  -0.203  54.369  1.00  0.00    -0.253 NA
HETATM   13  C15 UNL     1      26.528  -0.598  54.106  1.00  0.00     0.132 A 
HETATM   14  C17 UNL     1      24.295  -0.111  53.460  1.00  0.00     0.044 A 
ENDBRANCH   3   5
BRANCH   2  15
HETATM   15  C2  UNL     1      19.675  -0.659  53.312  1.00  0.00     0.075 C 
HETATM   16  C3  UNL     1      18.933  -1.669  53.728  1.00  0.00     0.017 C 
BRANCH  16  17
HETATM   17  C4  UNL     1      17.650  -2.207  53.290  1.00  0.00    -0.036 A 
HETATM   18  C5  UNL     1      16.783  -1.397  52.591  1.00  0.00     0.013 A 
HETATM   19  C6  UNL     1      15.571  -1.911  52.178  1.00  0.00     0.024 A 
HETATM   20  C7  UNL     1      15.298  -3.224  52.497  1.00  0.00     0.034 A 
HETATM   21 CL1  UNL     1      13.744  -3.883  51.968  1.00  0.00    -0.084 Cl
HETATM   22  C8  UNL     1      16.185  -4.009  53.197  1.00  0.00     0.024 A 
HETATM   23  C9  UNL     1      17.402  -3.521  53.620  1.00  0.00     0.013 A 
ENDBRANCH  16  17
ENDBRANCH   2  15
TORSDOF 3
ENDMDL
MODEL 4
REMARK VINA RESULT:      -7.9      1.287      1.990
REMARK  3 active torsions:
REMARK  status: ('A' for Active; 'I' for Inactive)
REMARK    1  A    between atoms: C1_2  and  C2_3 
REMARK       I    between atoms: C1_2  and  N1_12 
REMARK    2  A    between atoms: C3_4  and  C4_5 
REMARK    3  A    between atoms: N1_12  and  C10_13 
ROOT
HETATM    1  O1  UNL     1      22.144  -1.110  55.359  1.00  0.00    -0.268 OA
HETATM    2  C1  UNL     1      21.933  -0.818  54.175  1.00  0.00     0.245 C 
HETATM    3  N1  UNL     1      23.012  -0.310  53.417  1.00  0.00    -0.324 N 
HETATM    4  H7  UNL     1      22.725  -0.096  52.426  1.00  0.00     0.169 HD
ENDROOT
BRANCH   3   5
HETATM    5  C10 UNL     1      24.350  -0.067  53.796  1.00  0.00     0.035 A 
HETATM    6  C11 UNL     1      25.036  -0.629  54.822  1.00  0.00     0.032 A 
HETATM    7  C12 UNL     1      26.348  -0.354  55.150  1.00  0.00     0.035 A 
HETATM    8  C13 UNL     1      27.041   0.552  54.403  1.00  0.00     0.070 A 
HETATM    9  N2  UNL     1      28.318   0.884  54.645  1.00  0.00    -0.241 NA
HETATM   10  C16 UNL     1      26.394   1.147  53.358  1.00  0.00     0.012 A 
HETATM   11  C14 UNL     1      28.931   1.774  53.877  1.00  0.00     0.233 A 
HETATM   12  N3  UNL     1      28.327   2.383  52.836  1.00  0.00    -0.253 NA
HETATM   13  C15 UNL     1      27.056   2.070  52.574  1.00  0.00     0.132 A 
HETATM   14  C17 UNL     1      25.083   0.843  53.065  1.00  0.00     0.044 A 
ENDBRANCH   3   5
BRANCH   2  15
HETATM   15  C2  UNL     1      20.592  -1.018  53.643  1.00  0.00     0.075 C 
HETATM   16  C3  UNL     1      19.811  -0.342  52.820  1.00  0.00     0.017 C 
BRANCH  16  17
HETATM   17  C4  UNL     1      18.466  -0.577  52.309  1.00  0.00    -0.036 A 
HETATM   18  C5  UNL     1      18.081   0.016  51.127  1.00  0.00     0.013 A 
HETATM   19  C6  UNL     1      16.808  -0.209  50.646  1.00  0.00     0.024 A 
HETATM   20  C7  UNL     1      15.985  -1.028  51.391  1.00  0.00     0.034 A 
HETATM   21 CL1  UNL     1      14.352  -1.317  50.774  1.00  0.00    -0.084 Cl
HETATM   22  C8  UNL     1      16.398  -1.607  52.568  1.00  0.00     0.024 A 
HETATM   23  C9  UNL     1      17.664  -1.398  53.070  1.00  0.00     0.013 A 
ENDBRANCH  16  17
ENDBRANCH   2  15
TORSDOF 3
ENDMDL
MODEL 5
REMARK VINA RESULT:      -7.8      6.399      9.709
REMARK  3 active torsions:
REMARK  status: ('A' for Active; 'I' for Inactive)
REMARK    1  A    between atoms: C1_2  and  C2_3 
REMARK       I    between atoms: C1_2  and  N1_12 
REMARK    2  A    between atoms: C3_4  and  C4_5 
REMARK    3  A    between atoms: N1_12  and  C10_13 
ROOT
HETATM    1  O1  UNL     1      24.328   2.788  49.591  1.00  0.00    -0.268 OA
HETATM    2  C1  UNL     1      25.243   3.273  50.269  1.00  0.00     0.245 C 
HETATM    3  N1  UNL     1      25.468   2.738  51.557  1.00  0.00    -0.324 N 
HETATM    4  H7  UNL     1      26.267   3.221  52.045  1.00  0.00     0.169 HD
ENDROOT
BRANCH   3   5
HETATM    5  C10 UNL     1      24.799   1.695  52.234  1.00  0.00     0.035 A 
HETATM    6  C11 UNL     1      25.325   0.533  52.695  1.00  0.00     0.032 A 
HETATM    7  C12 UNL     1      24.622  -0.456  53.351  1.00  0.00     0.035 A 
HETATM    8  C13 UNL     1      23.287  -0.284  53.571  1.00  0.00     0.070 A 
HETATM    9  N2  UNL     1      22.522  -1.190  54.200  1.00  0.00    -0.241 NA
HETATM   10  C16 UNL     1      22.709   0.869  53.126  1.00  0.00     0.012 A 
HETATM   11  C14 UNL     1      21.228  -0.957  54.380  1.00  0.00     0.233 A 
HETATM   12  N3  UNL     1      20.621   0.170  53.955  1.00  0.00    -0.253 NA
HETATM   13  C15 UNL     1      21.361   1.086  53.327  1.00  0.00     0.132 A 
HETATM   14  C17 UNL     1      23.448   1.832  52.474  1.00  0.00     0.044 A 
ENDBRANCH   3   5
BRANCH   2  15
HETATM   15  C2  UNL     1      26.024   4.361  49.696  1.00  0.00     0.075 C 
HETATM   16  C3  UNL     1      27.136   4.432  48.987  1.00  0.00     0.017 C 
BRANCH  16  17
HETATM   17  C4  UNL     1      27.890   5.548  48.428  1.00  0.00    -0.036 A 
HETATM   18  C5  UNL     1      29.240   5.401  48.199  1.00  0.00     0.013 A 
HETATM   19  C6  UNL     1      29.949   6.459  47.669  1.00  0.00     0.024 A 
HETATM   20  C7  UNL     1      29.251   7.617  47.398  1.00  0.00     0.034 A 
HETATM   21 CL1  UNL     1      30.161   8.974  46.719  1.00  0.00    -0.084 Cl
HETATM   22  C8  UNL     1      27.902   7.734  47.638  1.00  0.00     0.024 A 
HETATM   23  C9  UNL     1      27.170   6.692  48.166  1.00  0.00     0.013 A 
ENDBRANCH  16  17
ENDBRANCH   2  15
TORSDOF 3
ENDMDL
MODEL 6
REMARK VINA RESULT:      -7.8      1.760      2.194
REMARK  3 active torsions:
REMARK  status: ('A' for Active; 'I' for Inactive)
REMARK    1  A    between atoms: C1_2  and  C2_3 
REMARK       I    between atoms: C1_2  and  N1_12 
REMARK    2  A    between atoms: C3_4  and  C4_5 
REMARK    3  A    between atoms: N1_12  and  C10_13 
ROOT
HETATM    1  O1  UNL     1      22.331   2.991  52.528  1.00  0.00    -0.268 OA
HETATM    2  C1  UNL     1      22.144   1.807  52.220  1.00  0.00     0.245 C 
HETATM    3  N1  UNL     1      23.275   0.970  52.091  1.00  0.00    -0.324 N 
HETATM    4  H7  UNL     1      23.004  -0.013  51.828  1.00  0.00     0.169 HD
ENDROOT
BRANCH   3   5
HETATM    5  C10 UNL     1      24.645   1.267  52.262  1.00  0.00     0.035 A 
HETATM    6  C11 UNL     1      25.440   2.009  51.451  1.00  0.00     0.032 A 
HETATM    7  C12 UNL     1      26.778   2.268  51.666  1.00  0.00     0.035 A 
HETATM    8  C13 UNL     1      27.383   1.752  52.773  1.00  0.00     0.070 A 
HETATM    9  N2  UNL     1      28.677   1.949  53.065  1.00  0.00    -0.241 NA
HETATM   10  C16 UNL     1      26.625   0.996  53.622  1.00  0.00     0.012 A 
HETATM   11  C14 UNL     1      29.201   1.415  54.161  1.00  0.00     0.233 A 
HETATM   12  N3  UNL     1      28.485   0.664  55.023  1.00  0.00    -0.253 NA
HETATM   13  C15 UNL     1      27.195   0.453  54.755  1.00  0.00     0.132 A 
HETATM   14  C17 UNL     1      25.291   0.762  53.369  1.00  0.00     0.044 A 
ENDBRANCH   3   5
BRANCH   2  15
HETATM   15  C2  UNL     1      20.775   1.356  52.012  1.00  0.00     0.075 C 
HETATM   16  C3  UNL     1      20.148   0.202  52.147  1.00  0.00     0.017 C 
BRANCH  16  17
HETATM   17  C4  UNL     1      18.767  -0.212  51.928  1.00  0.00    -0.036 A 
HETATM   18  C5  UNL     1      18.128   0.161  50.766  1.00  0.00     0.013 A 
HETATM   19  C6  UNL     1      16.822  -0.233  50.562  1.00  0.00     0.024 A 
HETATM   20  C7  UNL     1      16.226  -0.987  51.551  1.00  0.00     0.034 A 
HETATM   21 CL1  UNL     1      14.551  -1.493  51.289  1.00  0.00    -0.084 Cl
HETATM   22  C8  UNL     1      16.890  -1.344  52.702  1.00  0.00     0.024 A 
HETATM   23  C9  UNL     1      18.195  -0.965  52.929  1.00  0.00     0.013 A 
ENDBRANCH  16  17
ENDBRANCH   2  15
TORSDOF 3
ENDMDL
MODEL 7
REMARK VINA RESULT:      -7.8      7.077      9.886
REMARK  3 active torsions:
REMARK  status: ('A' for Active; 'I' for Inactive)
REMARK    1  A    between atoms: C1_2  and  C2_3 
REMARK       I    between atoms: C1_2  and  N1_12 
REMARK    2  A    between atoms: C3_4  and  C4_5 
REMARK    3  A    between atoms: N1_12  and  C10_13 
ROOT
HETATM    1  O1  UNL     1      26.675   2.579  49.217  1.00  0.00    -0.268 OA
HETATM    2  C1  UNL     1      26.412   3.673  49.733  1.00  0.00     0.245 C 
HETATM    3  N1  UNL     1      25.689   3.677  50.946  1.00  0.00    -0.324 N 
HETATM    4  H7  UNL     1      25.521   4.656  51.296  1.00  0.00     0.169 HD
ENDROOT
BRANCH   3   5
HETATM    5  C10 UNL     1      25.192   2.596  51.707  1.00  0.00     0.035 A 
HETATM    6  C11 UNL     1      23.996   1.970  51.576  1.00  0.00     0.032 A 
HETATM    7  C12 UNL     1      23.559   0.915  52.351  1.00  0.00     0.035 A 
HETATM    8  C13 UNL     1      24.370   0.438  53.337  1.00  0.00     0.070 A 
HETATM    9  N2  UNL     1      24.031  -0.583  54.140  1.00  0.00    -0.241 NA
HETATM   10  C16 UNL     1      25.586   1.035  53.511  1.00  0.00     0.012 A 
HETATM   11  C14 UNL     1      24.871  -0.996  55.081  1.00  0.00     0.233 A 
HETATM   12  N3  UNL     1      26.079  -0.432  55.283  1.00  0.00    -0.253 NA
HETATM   13  C15 UNL     1      26.439   0.585  54.497  1.00  0.00     0.132 A 
HETATM   14  C17 UNL     1      25.983   2.086  52.715  1.00  0.00     0.044 A 
ENDBRANCH   3   5
BRANCH   2  15
HETATM   15  C2  UNL     1      26.864   4.880  49.055  1.00  0.00     0.075 C 
HETATM   16  C3  UNL     1      28.020   5.291  48.564  1.00  0.00     0.017 C 
BRANCH  16  17
HETATM   17  C4  UNL     1      28.434   6.515  47.889  1.00  0.00    -0.036 A 
HETATM   18  C5  UNL     1      29.747   6.657  47.497  1.00  0.00     0.013 A 
HETATM   19  C6  UNL     1      30.135   7.816  46.857  1.00  0.00     0.024 A 
HETATM   20  C7  UNL     1      29.169   8.777  46.647  1.00  0.00     0.034 A 
HETATM   21 CL1  UNL     1      29.666  10.263  45.826  1.00  0.00    -0.084 Cl
HETATM   22  C8  UNL     1      27.864   8.607  47.050  1.00  0.00     0.024 A 
HETATM   23  C9  UNL     1      27.451   7.459  47.690  1.00  0.00     0.013 A 
ENDBRANCH  16  17
ENDBRANCH   2  15
TORSDOF 3
ENDMDL
MODEL 8
REMARK VINA RESULT:      -7.7      4.470      9.566
REMARK  3 active torsions:
REMARK  status: ('A' for Active; 'I' for Inactive)
REMARK    1  A    between atoms: C1_2  and  C2_3 
REMARK       I    between atoms: C1_2  and  N1_12 
REMARK    2  A    between atoms: C3_4  and  C4_5 
REMARK    3  A    between atoms: N1_12  and  C10_13 
ROOT
HETATM    1  O1  UNL     1      21.150   0.192  54.471  1.00  0.00    -0.268 OA
HETATM    2  C1  UNL     1      21.806   0.106  53.425  1.00  0.00     0.245 C 
HETATM    3  N1  UNL     1      21.136   0.337  52.203  1.00  0.00    -0.324 N 
HETATM    4  H7  UNL     1      21.785   0.240  51.379  1.00  0.00     0.169 HD
ENDROOT
BRANCH   3   5
HETATM    5  C10 UNL     1      19.784   0.664  51.959  1.00  0.00     0.035 A 
HETATM    6  C11 UNL     1      18.731  -0.184  51.856  1.00  0.00     0.032 A 
HETATM    7  C12 UNL     1      17.426   0.190  51.615  1.00  0.00     0.035 A 
HETATM    8  C13 UNL     1      17.134   1.513  51.462  1.00  0.00     0.070 A 
HETATM    9  N2  UNL     1      15.896   1.973  51.225  1.00  0.00    -0.241 NA
HETATM   10  C16 UNL     1      18.160   2.409  51.557  1.00  0.00     0.012 A 
HETATM   11  C14 UNL     1      15.685   3.275  51.087  1.00  0.00     0.233 A 
HETATM   12  N3  UNL     1      16.672   4.190  51.173  1.00  0.00    -0.253 NA
HETATM   13  C15 UNL     1      17.913   3.759  51.409  1.00  0.00     0.132 A 
HETATM   14  C17 UNL     1      19.451   1.992  51.798  1.00  0.00     0.044 A 
ENDBRANCH   3   5
BRANCH   2  15
HETATM   15  C2  UNL     1      23.220  -0.226  53.524  1.00  0.00     0.075 C 
HETATM   16  C3  UNL     1      24.343   0.465  53.442  1.00  0.00     0.017 C 
BRANCH  16  17
HETATM   17  C4  UNL     1      25.749   0.093  53.548  1.00  0.00    -0.036 A 
HETATM   18  C5  UNL     1      26.511   0.619  54.568  1.00  0.00     0.013 A 
HETATM   19  C6  UNL     1      27.840   0.264  54.665  1.00  0.00     0.024 A 
HETATM   20  C7  UNL     1      28.333  -0.609  53.718  1.00  0.00     0.034 A 
HETATM   21 CL1  UNL     1      30.038  -1.063  53.842  1.00  0.00    -0.084 Cl
HETATM   22  C8  UNL     1      27.548  -1.118  52.710  1.00  0.00     0.024 A 
HETATM   23  C9  UNL     1      26.217  -0.780  52.591  1.00  0.00     0.013 A 
ENDBRANCH  16  17
ENDBRANCH   2  15
TORSDOF 3
ENDMDL
MODEL 9
REMARK VINA RESULT:      -7.5      6.298      7.357
REMARK  3 active torsions:
REMARK  status: ('A' for Active; 'I' for Inactive)
REMARK    1  A    between atoms: C1_2  and  C2_3 
REMARK       I    between atoms: C1_2  and  N1_12 
REMARK    2  A    between atoms: C3_4  and  C4_5 
REMARK    3  A    between atoms: N1_12  and  C10_13 
ROOT
HETATM    1  O1  UNL     1      23.853   4.409  48.518  1.00  0.00    -0.268 OA
HETATM    2  C1  UNL     1      24.482   3.900  49.455  1.00  0.00     0.245 C 
HETATM    3  N1  UNL     1      25.809   4.331  49.673  1.00  0.00    -0.324 N 
HETATM    4  H7  UNL     1      26.250   3.836  50.492  1.00  0.00     0.169 HD
ENDROOT
BRANCH   3   5
HETATM    5  C10 UNL     1      26.577   5.289  48.974  1.00  0.00     0.035 A 
HETATM    6  C11 UNL     1      26.162   6.479  48.475  1.00  0.00     0.032 A 
HETATM    7  C12 UNL     1      26.957   7.380  47.796  1.00  0.00     0.035 A 
HETATM    8  C13 UNL     1      28.272   7.081  47.594  1.00  0.00     0.070 A 
HETATM    9  N2  UNL     1      29.121   7.894  46.946  1.00  0.00    -0.241 NA
HETATM   10  C16 UNL     1      28.739   5.893  48.078  1.00  0.00     0.012 A 
HETATM   11  C14 UNL     1      30.389   7.539  46.786  1.00  0.00     0.233 A 
HETATM   12  N3  UNL     1      30.887   6.374  47.249  1.00  0.00    -0.253 NA
HETATM   13  C15 UNL     1      30.063   5.549  47.897  1.00  0.00     0.132 A 
HETATM   14  C17 UNL     1      27.910   5.022  48.750  1.00  0.00     0.044 A 
ENDBRANCH   3   5
BRANCH   2  15
HETATM   15  C2  UNL     1      23.814   2.893  50.267  1.00  0.00     0.075 C 
HETATM   16  C3  UNL     1      24.181   2.118  51.272  1.00  0.00     0.017 C 
BRANCH  16  17
HETATM   17  C4  UNL     1      23.477   1.116  52.064  1.00  0.00    -0.036 A 
HETATM   18  C5  UNL     1      24.142   0.478  53.087  1.00  0.00     0.013 A 
HETATM   19  C6  UNL     1      23.472  -0.469  53.835  1.00  0.00     0.024 A 
HETATM   20  C7  UNL     1      22.157  -0.722  53.505  1.00  0.00     0.034 A 
HETATM   21 CL1  UNL     1      21.298  -1.936  54.464  1.00  0.00    -0.084 Cl
HETATM   22  C8  UNL     1      21.519  -0.067  52.477  1.00  0.00     0.024 A 
HETATM   23  C9  UNL     1      22.165   0.883  51.716  1.00  0.00     0.013 A 
ENDBRANCH  16  17
ENDBRANCH   2  15
TORSDOF 3
ENDMDL
