MODEL 1
REMARK VINA RESULT:      -9.0      0.000      0.000
REMARK  3 active torsions:
REMARK  status: ('A' for Active; 'I' for Inactive)
REMARK    1  A    between atoms: N1_1  and  C1_2 
REMARK    2  A    between atoms: C1_2  and  N2_3 
REMARK    3  A    between atoms: C1_2  and  C16_20 
ROOT
HETATM    1  N2  UNL     1      25.323   4.499  49.793  1.00  0.00    -0.234 NA
HETATM    2  C2  UNL     1      24.237   3.881  50.054  1.00  0.00     0.128 C 
HETATM    3  C3  UNL     1      22.713   3.965  50.138  1.00  0.00     0.107 C 
HETATM    4  C4  UNL     1      22.346   3.570  51.526  1.00  0.00    -0.019 C 
HETATM    5  C5  UNL     1      21.638   2.478  51.437  1.00  0.00    -0.004 C 
HETATM    6  C6  UNL     1      20.902   1.317  51.047  1.00  0.00    -0.004 C 
HETATM    7  C7  UNL     1      20.278   0.390  51.750  1.00  0.00    -0.022 C 
HETATM    8  C8  UNL     1      20.338   0.581  53.200  1.00  0.00     0.061 C 
HETATM    9  C9  UNL     1      21.234  -0.421  53.847  1.00  0.00    -0.072 C 
HETATM   10  C10 UNL     1      21.562  -1.058  54.957  1.00  0.00     0.004 C 
HETATM   11  C11 UNL     1      23.047  -1.148  54.832  1.00  0.00     0.005 C 
HETATM   12  C12 UNL     1      23.491  -0.582  53.694  1.00  0.00    -0.058 C 
HETATM   13  C13 UNL     1      24.751   0.116  53.476  1.00  0.00     0.155 C 
HETATM   14  N3  UNL     1      24.884   0.999  52.398  1.00  0.00    -0.381 N 
HETATM   15  C14 UNL     1      24.680   2.148  51.617  1.00  0.00     0.204 C 
HETATM   16  N4  UNL     1      24.288   2.512  50.457  1.00  0.00    -0.229 NA
HETATM   17  C15 UNL     1      22.285  -0.941  52.880  1.00  0.00     0.070 C 
HETATM   18  H16 UNL     1      25.546   0.680  51.623  1.00  0.00     0.160 HD
ENDROOT
BRANCH   1  19
HETATM   19  C1  UNL     1      25.393   5.878  49.379  1.00  0.00     0.374 C 
BRANCH  19  20
HETATM   20  N1  UNL     1      24.527   6.157  48.247  1.00  0.00     0.107 N 
HETATM   21  H1  UNL     1      23.664   6.677  48.523  1.00  0.00     0.316 HD
HETATM   22  H2  UNL     1      25.008   6.513  47.414  1.00  0.00     0.316 HD
ENDBRANCH  19  20
BRANCH  19  23
HETATM   23  C16 UNL     1      26.778   6.153  48.920  1.00  0.00    -0.003 A 
HETATM   24  C17 UNL     1      27.707   5.192  48.563  1.00  0.00     0.011 A 
HETATM   25  C18 UNL     1      28.976   5.534  48.143  1.00  0.00     0.002 A 
HETATM   26  C19 UNL     1      29.334   6.884  48.077  1.00  0.00     0.019 A 
HETATM   27  C20 UNL     1      28.427   7.863  48.427  1.00  0.00     0.011 A 
HETATM   28 BR1  UNL     1      28.870   9.734  48.354  1.00  0.00    -0.051 Br
HETATM   29  C21 UNL     1      27.147   7.496  48.849  1.00  0.00     0.030 A 
ENDBRANCH  19  23
ENDBRANCH   1  19
TORSDOF 3
ENDMDL
MODEL 2
REMARK VINA RESULT:      -8.5      1.472      2.096
REMARK  3 active torsions:
REMARK  status: ('A' for Active; 'I' for Inactive)
REMARK    1  A    between atoms: N1_1  and  C1_2 
REMARK    2  A    between atoms: C1_2  and  N2_3 
REMARK    3  A    between atoms: C1_2  and  C16_20 
ROOT
HETATM    1  N2  UNL     1      23.469   4.558  49.189  1.00  0.00    -0.234 NA
HETATM    2  C2  UNL     1      22.666   3.821  49.853  1.00  0.00     0.128 C 
HETATM    3  C3  UNL     1      21.297   3.713  50.525  1.00  0.00     0.107 C 
HETATM    4  C4  UNL     1      21.553   3.350  51.946  1.00  0.00    -0.019 C 
HETATM    5  C5  UNL     1      21.025   2.174  52.140  1.00  0.00    -0.004 C 
HETATM    6  C6  UNL     1      20.365   0.909  52.068  1.00  0.00    -0.004 C 
HETATM    7  C7  UNL     1      20.196  -0.051  52.959  1.00  0.00    -0.022 C 
HETATM    8  C8  UNL     1      20.784   0.225  54.270  1.00  0.00     0.061 C 
HETATM    9  C9  UNL     1      21.991  -0.618  54.517  1.00  0.00    -0.072 C 
HETATM   10  C10 UNL     1      22.807  -1.146  55.411  1.00  0.00     0.004 C 
HETATM   11  C11 UNL     1      24.125  -1.052  54.717  1.00  0.00     0.005 C 
HETATM   12  C12 UNL     1      24.012  -0.496  53.496  1.00  0.00    -0.058 C 
HETATM   13  C13 UNL     1      24.979   0.344  52.804  1.00  0.00     0.155 C 
HETATM   14  N3  UNL     1      24.562   1.177  51.759  1.00  0.00    -0.381 N 
HETATM   15  C14 UNL     1      23.915   2.247  51.120  1.00  0.00     0.204 C 
HETATM   16  N4  UNL     1      23.058   2.494  50.204  1.00  0.00    -0.229 NA
HETATM   17  C15 UNL     1      22.648  -1.051  53.216  1.00  0.00     0.070 C 
HETATM   18  H16 UNL     1      24.911   0.904  50.787  1.00  0.00     0.160 HD
ENDROOT
BRANCH   1  19
HETATM   19  C1  UNL     1      23.181   5.911  48.781  1.00  0.00     0.374 C 
BRANCH  19  20
HETATM   20  N1  UNL     1      22.967   6.018  47.348  1.00  0.00     0.107 N 
HETATM   21  H1  UNL     1      22.180   6.662  47.110  1.00  0.00     0.316 HD
HETATM   22  H2  UNL     1      23.820   6.141  46.793  1.00  0.00     0.316 HD
ENDBRANCH  19  20
BRANCH  19  23
HETATM   23  C16 UNL     1      24.369   6.748  49.086  1.00  0.00    -0.003 A 
HETATM   24  C17 UNL     1      24.346   7.943  49.784  1.00  0.00     0.011 A 
HETATM   25  C18 UNL     1      25.499   8.660  50.028  1.00  0.00     0.002 A 
HETATM   26  C19 UNL     1      26.721   8.169  49.560  1.00  0.00     0.019 A 
HETATM   27  C20 UNL     1      26.773   6.981  48.861  1.00  0.00     0.011 A 
HETATM   28 BR1  UNL     1      28.429   6.263  48.195  1.00  0.00    -0.051 Br
HETATM   29  C21 UNL     1      25.594   6.270  48.625  1.00  0.00     0.030 A 
ENDBRANCH  19  23
ENDBRANCH   1  19
TORSDOF 3
ENDMDL
MODEL 3
REMARK VINA RESULT:      -8.5      2.825      8.718
REMARK  3 active torsions:
REMARK  status: ('A' for Active; 'I' for Inactive)
REMARK    1  A    between atoms: N1_1  and  C1_2 
REMARK    2  A    between atoms: C1_2  and  N2_3 
REMARK    3  A    between atoms: C1_2  and  C16_20 
ROOT
HETATM    1  N2  UNL     1      23.786   2.617  50.840  1.00  0.00    -0.234 NA
HETATM    2  C2  UNL     1      23.791   3.794  50.347  1.00  0.00     0.128 C 
HETATM    3  C3  UNL     1      22.978   4.886  49.652  1.00  0.00     0.107 C 
HETATM    4  C4  UNL     1      23.697   5.208  48.389  1.00  0.00    -0.019 C 
HETATM    5  C5  UNL     1      24.085   6.450  48.476  1.00  0.00    -0.004 C 
HETATM    6  C6  UNL     1      24.375   7.801  48.837  1.00  0.00    -0.004 C 
HETATM    7  C7  UNL     1      25.042   8.757  48.217  1.00  0.00    -0.022 C 
HETATM    8  C8  UNL     1      25.584   8.374  46.913  1.00  0.00     0.061 C 
HETATM    9  C9  UNL     1      27.069   8.231  46.958  1.00  0.00    -0.072 C 
HETATM   10  C10 UNL     1      28.201   8.218  46.277  1.00  0.00     0.004 C 
HETATM   11  C11 UNL     1      28.979   7.166  46.994  1.00  0.00     0.005 C 
HETATM   12  C12 UNL     1      28.287   6.640  48.022  1.00  0.00    -0.058 C 
HETATM   13  C13 UNL     1      28.334   5.275  48.525  1.00  0.00     0.155 C 
HETATM   14  N3  UNL     1      27.276   4.776  49.295  1.00  0.00    -0.381 N 
HETATM   15  C14 UNL     1      25.984   4.320  49.600  1.00  0.00     0.204 C 
HETATM   16  N4  UNL     1      24.995   4.561  50.372  1.00  0.00    -0.229 NA
HETATM   17  C15 UNL     1      27.558   7.906  48.361  1.00  0.00     0.070 C 
HETATM   18  H16 UNL     1      27.504   4.590  50.321  1.00  0.00     0.160 HD
ENDROOT
BRANCH   1  19
HETATM   19  C1  UNL     1      22.633   1.752  50.869  1.00  0.00     0.374 C 
BRANCH  19  20
HETATM   20  N1  UNL     1      21.403   2.485  51.118  1.00  0.00     0.107 N 
HETATM   21  H1  UNL     1      21.524   3.517  51.008  1.00  0.00     0.316 HD
HETATM   22  H2  UNL     1      20.568   2.090  50.672  1.00  0.00     0.316 HD
ENDBRANCH  19  20
BRANCH  19  23
HETATM   23  C16 UNL     1      22.790   0.808  52.004  1.00  0.00    -0.003 A 
HETATM   24  C17 UNL     1      21.798  -0.022  52.496  1.00  0.00     0.011 A 
HETATM   25  C18 UNL     1      22.029  -0.874  53.556  1.00  0.00     0.002 A 
HETATM   26  C19 UNL     1      23.295  -0.901  54.148  1.00  0.00     0.019 A 
HETATM   27  C20 UNL     1      24.302  -0.084  53.678  1.00  0.00     0.011 A 
HETATM   28 BR1  UNL     1      26.060  -0.083  54.459  1.00  0.00    -0.051 Br
HETATM   29  C21 UNL     1      24.048   0.772  52.604  1.00  0.00     0.030 A 
ENDBRANCH  19  23
ENDBRANCH   1  19
TORSDOF 3
ENDMDL
MODEL 4
REMARK VINA RESULT:      -8.4      3.124      7.690
REMARK  3 active torsions:
REMARK  status: ('A' for Active; 'I' for Inactive)
REMARK    1  A    between atoms: N1_1  and  C1_2 
REMARK    2  A    between atoms: C1_2  and  N2_3 
REMARK    3  A    between atoms: C1_2  and  C16_20 
ROOT
HETATM    1  N2  UNL     1      24.813   1.951  52.056  1.00  0.00    -0.234 NA
HETATM    2  C2  UNL     1      24.080   2.595  51.232  1.00  0.00     0.128 C 
HETATM    3  C3  UNL     1      22.946   2.519  50.210  1.00  0.00     0.107 C 
HETATM    4  C4  UNL     1      23.487   3.072  48.938  1.00  0.00    -0.019 C 
HETATM    5  C5  UNL     1      22.798   4.144  48.664  1.00  0.00    -0.004 C 
HETATM    6  C6  UNL     1      21.897   5.251  48.614  1.00  0.00    -0.004 C 
HETATM    7  C7  UNL     1      21.775   6.252  47.762  1.00  0.00    -0.022 C 
HETATM    8  C8  UNL     1      22.733   6.231  46.655  1.00  0.00     0.061 C 
HETATM    9  C9  UNL     1      23.761   7.303  46.801  1.00  0.00    -0.072 C 
HETATM   10  C10 UNL     1      24.657   8.065  46.200  1.00  0.00     0.004 C 
HETATM   11  C11 UNL     1      25.734   8.142  47.229  1.00  0.00     0.005 C 
HETATM   12  C12 UNL     1      25.420   7.448  48.340  1.00  0.00    -0.058 C 
HETATM   13  C13 UNL     1      26.322   6.732  49.231  1.00  0.00     0.155 C 
HETATM   14  N3  UNL     1      25.824   5.730  50.072  1.00  0.00    -0.381 N 
HETATM   15  C14 UNL     1      25.266   4.498  50.449  1.00  0.00     0.204 C 
HETATM   16  N4  UNL     1      24.268   4.001  51.074  1.00  0.00    -0.229 NA
HETATM   17  C15 UNL     1      23.946   7.709  48.254  1.00  0.00     0.070 C 
HETATM   18  H16 UNL     1      25.840   5.958  51.116  1.00  0.00     0.160 HD
ENDROOT
BRANCH   1  19
HETATM   19  C1  UNL     1      24.714   0.534  52.297  1.00  0.00     0.374 C 
BRANCH  19  20
HETATM   20  N1  UNL     1      23.841   0.227  53.417  1.00  0.00     0.107 N 
HETATM   21  H1  UNL     1      24.111   0.741  54.285  1.00  0.00     0.316 HD
HETATM   22  H2  UNL     1      22.840   0.231  53.196  1.00  0.00     0.316 HD
ENDBRANCH  19  20
BRANCH  19  23
HETATM   23  C16 UNL     1      26.060   0.033  52.671  1.00  0.00    -0.003 A 
HETATM   24  C17 UNL     1      26.491  -1.276  52.539  1.00  0.00     0.011 A 
HETATM   25  C18 UNL     1      27.764  -1.659  52.910  1.00  0.00     0.002 A 
HETATM   26  C19 UNL     1      28.641  -0.703  53.430  1.00  0.00     0.019 A 
HETATM   27  C20 UNL     1      28.238   0.609  53.572  1.00  0.00     0.011 A 
HETATM   28 BR1  UNL     1      29.406   1.962  54.284  1.00  0.00    -0.051 Br
HETATM   29  C21 UNL     1      26.945   0.976  53.191  1.00  0.00     0.030 A 
ENDBRANCH  19  23
ENDBRANCH   1  19
TORSDOF 3
ENDMDL
MODEL 5
REMARK VINA RESULT:      -8.4      3.537      7.180
REMARK  3 active torsions:
REMARK  status: ('A' for Active; 'I' for Inactive)
REMARK    1  A    between atoms: N1_1  and  C1_2 
REMARK    2  A    between atoms: C1_2  and  N2_3 
REMARK    3  A    between atoms: C1_2  and  C16_20 
ROOT
HETATM    1  N2  UNL     1      24.067   1.380  53.053  1.00  0.00    -0.234 NA
HETATM    2  C2  UNL     1      23.147   1.985  52.408  1.00  0.00     0.128 C 
HETATM    3  C3  UNL     1      21.979   1.852  51.431  1.00  0.00     0.107 C 
HETATM    4  C4  UNL     1      22.282   2.754  50.287  1.00  0.00    -0.019 C 
HETATM    5  C5  UNL     1      21.355   3.671  50.267  1.00  0.00    -0.004 C 
HETATM    6  C6  UNL     1      20.231   4.527  50.481  1.00  0.00    -0.004 C 
HETATM    7  C7  UNL     1      19.824   5.621  49.863  1.00  0.00    -0.022 C 
HETATM    8  C8  UNL     1      20.671   6.040  48.745  1.00  0.00     0.061 C 
HETATM    9  C9  UNL     1      21.447   7.271  49.078  1.00  0.00    -0.072 C 
HETATM   10  C10 UNL     1      22.103   8.322  48.621  1.00  0.00     0.004 C 
HETATM   11  C11 UNL     1      23.217   8.442  49.607  1.00  0.00     0.005 C 
HETATM   12  C12 UNL     1      23.153   7.489  50.557  1.00  0.00    -0.058 C 
HETATM   13  C13 UNL     1      24.258   6.840  51.247  1.00  0.00     0.155 C 
HETATM   14  N3  UNL     1      24.062   5.604  51.875  1.00  0.00    -0.381 N 
HETATM   15  C14 UNL     1      23.820   4.227  52.003  1.00  0.00     0.204 C 
HETATM   16  N4  UNL     1      23.009   3.400  52.542  1.00  0.00    -0.229 NA
HETATM   17  C15 UNL     1      21.656   7.414  50.577  1.00  0.00     0.070 C 
HETATM   18  H16 UNL     1      24.111   5.619  52.942  1.00  0.00     0.160 HD
ENDROOT
BRANCH   1  19
HETATM   19  C1  UNL     1      24.301  -0.041  52.994  1.00  0.00     0.374 C 
BRANCH  19  20
HETATM   20  N1  UNL     1      23.730  -0.739  54.132  1.00  0.00     0.107 N 
HETATM   21  H1  UNL     1      22.969  -0.193  54.595  1.00  0.00     0.316 HD
HETATM   22  H2  UNL     1      23.523  -1.731  53.971  1.00  0.00     0.316 HD
ENDBRANCH  19  20
BRANCH  19  23
HETATM   23  C16 UNL     1      25.766  -0.272  53.058  1.00  0.00    -0.003 A 
HETATM   24  C17 UNL     1      26.394  -1.488  52.852  1.00  0.00     0.011 A 
HETATM   25  C18 UNL     1      27.765  -1.616  52.928  1.00  0.00     0.002 A 
HETATM   26  C19 UNL     1      28.541  -0.492  53.221  1.00  0.00     0.019 A 
HETATM   27  C20 UNL     1      27.943   0.733  53.432  1.00  0.00     0.011 A 
HETATM   28 BR1  UNL     1      28.966   2.311  53.839  1.00  0.00    -0.051 Br
HETATM   29  C21 UNL     1      26.552   0.842  53.350  1.00  0.00     0.030 A 
ENDBRANCH  19  23
ENDBRANCH   1  19
TORSDOF 3
ENDMDL
MODEL 6
REMARK VINA RESULT:      -8.4      2.670      3.187
REMARK  3 active torsions:
REMARK  status: ('A' for Active; 'I' for Inactive)
REMARK    1  A    between atoms: N1_1  and  C1_2 
REMARK    2  A    between atoms: C1_2  and  N2_3 
REMARK    3  A    between atoms: C1_2  and  C16_20 
ROOT
HETATM    1  N2  UNL     1      24.869   5.663  50.568  1.00  0.00    -0.234 NA
HETATM    2  C2  UNL     1      23.829   4.961  50.802  1.00  0.00     0.128 C 
HETATM    3  C3  UNL     1      22.322   4.964  51.057  1.00  0.00     0.107 C 
HETATM    4  C4  UNL     1      22.114   4.273  52.359  1.00  0.00    -0.019 C 
HETATM    5  C5  UNL     1      21.420   3.197  52.114  1.00  0.00    -0.004 C 
HETATM    6  C6  UNL     1      20.667   2.115  51.563  1.00  0.00    -0.004 C 
HETATM    7  C7  UNL     1      20.138   1.038  52.113  1.00  0.00    -0.022 C 
HETATM    8  C8  UNL     1      20.352   0.923  53.556  1.00  0.00     0.061 C 
HETATM    9  C9  UNL     1      21.330  -0.157  53.881  1.00  0.00    -0.072 C 
HETATM   10  C10 UNL     1      21.788  -0.998  54.790  1.00  0.00     0.004 C 
HETATM   11  C11 UNL     1      23.251  -1.001  54.498  1.00  0.00     0.005 C 
HETATM   12  C12 UNL     1      23.560  -0.191  53.467  1.00  0.00    -0.058 C 
HETATM   13  C13 UNL     1      24.776   0.586  53.274  1.00  0.00     0.155 C 
HETATM   14  N3  UNL     1      24.776   1.680  52.401  1.00  0.00    -0.381 N 
HETATM   15  C14 UNL     1      24.469   2.958  51.907  1.00  0.00     0.204 C 
HETATM   16  N4  UNL     1      23.947   3.541  50.897  1.00  0.00    -0.229 NA
HETATM   17  C15 UNL     1      22.279  -0.420  52.723  1.00  0.00     0.070 C 
HETATM   18  H16 UNL     1      25.356   1.557  51.512  1.00  0.00     0.160 HD
ENDROOT
BRANCH   1  19
HETATM   19  C1  UNL     1      24.871   7.100  50.452  1.00  0.00     0.374 C 
BRANCH  19  20
HETATM   20  N1  UNL     1      24.232   7.742  51.587  1.00  0.00     0.107 N 
HETATM   21  H1  UNL     1      23.418   8.333  51.306  1.00  0.00     0.316 HD
HETATM   22  H2  UNL     1      24.073   7.131  52.395  1.00  0.00     0.316 HD
ENDBRANCH  19  20
BRANCH  19  23
HETATM   23  C16 UNL     1      24.066   7.469  49.260  1.00  0.00    -0.003 A 
HETATM   24  C17 UNL     1      24.272   6.990  47.978  1.00  0.00     0.011 A 
HETATM   25  C18 UNL     1      23.475   7.383  46.922  1.00  0.00     0.002 A 
HETATM   26  C19 UNL     1      22.433   8.286  47.153  1.00  0.00     0.019 A 
HETATM   27  C20 UNL     1      22.205   8.779  48.421  1.00  0.00     0.011 A 
HETATM   28 BR1  UNL     1      20.786  10.024  48.789  1.00  0.00    -0.051 Br
HETATM   29  C21 UNL     1      23.024   8.369  49.476  1.00  0.00     0.030 A 
ENDBRANCH  19  23
ENDBRANCH   1  19
TORSDOF 3
ENDMDL
MODEL 7
REMARK VINA RESULT:      -8.2      3.791      8.335
REMARK  3 active torsions:
REMARK  status: ('A' for Active; 'I' for Inactive)
REMARK    1  A    between atoms: N1_1  and  C1_2 
REMARK    2  A    between atoms: C1_2  and  N2_3 
REMARK    3  A    between atoms: C1_2  and  C16_20 
ROOT
HETATM    1  N2  UNL     1      24.585   1.064  52.145  1.00  0.00    -0.234 NA
HETATM    2  C2  UNL     1      24.460   2.333  52.092  1.00  0.00     0.128 C 
HETATM    3  C3  UNL     1      24.256   3.626  52.881  1.00  0.00     0.107 C 
HETATM    4  C4  UNL     1      23.041   4.276  52.318  1.00  0.00    -0.019 C 
HETATM    5  C5  UNL     1      23.421   5.411  51.800  1.00  0.00    -0.004 C 
HETATM    6  C6  UNL     1      24.106   6.573  51.329  1.00  0.00    -0.004 C 
HETATM    7  C7  UNL     1      23.690   7.635  50.664  1.00  0.00    -0.022 C 
HETATM    8  C8  UNL     1      22.260   7.635  50.351  1.00  0.00     0.061 C 
HETATM    9  C9  UNL     1      22.018   7.406  48.896  1.00  0.00    -0.072 C 
HETATM   10  C10 UNL     1      21.188   7.541  47.879  1.00  0.00     0.004 C 
HETATM   11  C11 UNL     1      21.430   6.282  47.116  1.00  0.00     0.005 C 
HETATM   12  C12 UNL     1      22.360   5.507  47.706  1.00  0.00    -0.058 C 
HETATM   13  C13 UNL     1      22.429   4.052  47.725  1.00  0.00     0.155 C 
HETATM   14  N3  UNL     1      23.183   3.401  48.709  1.00  0.00    -0.381 N 
HETATM   15  C14 UNL     1      23.550   2.944  49.984  1.00  0.00     0.204 C 
HETATM   16  N4  UNL     1      24.510   2.992  50.826  1.00  0.00    -0.229 NA
HETATM   17  C15 UNL     1      23.166   6.647  48.250  1.00  0.00     0.070 C 
HETATM   18  H16 UNL     1      24.060   2.901  48.359  1.00  0.00     0.160 HD
ENDROOT
BRANCH   1  19
HETATM   19  C1  UNL     1      24.549   0.294  53.363  1.00  0.00     0.374 C 
BRANCH  19  20
HETATM   20  N1  UNL     1      25.387  -0.890  53.288  1.00  0.00     0.107 N 
HETATM   21  H1  UNL     1      26.173  -0.781  52.610  1.00  0.00     0.316 HD
HETATM   22  H2  UNL     1      25.641  -1.296  54.195  1.00  0.00     0.316 HD
ENDBRANCH  19  20
BRANCH  19  23
HETATM   23  C16 UNL     1      23.160  -0.191  53.563  1.00  0.00    -0.003 A 
HETATM   24  C17 UNL     1      22.744  -1.021  54.589  1.00  0.00     0.011 A 
HETATM   25  C18 UNL     1      21.429  -1.425  54.704  1.00  0.00     0.002 A 
HETATM   26  C19 UNL     1      20.495  -0.987  53.762  1.00  0.00     0.019 A 
HETATM   27  C20 UNL     1      20.883  -0.160  52.728  1.00  0.00     0.011 A 
HETATM   28 BR1  UNL     1      19.636   0.470  51.406  1.00  0.00    -0.051 Br
HETATM   29  C21 UNL     1      22.218   0.238  52.629  1.00  0.00     0.030 A 
ENDBRANCH  19  23
ENDBRANCH   1  19
TORSDOF 3
ENDMDL
MODEL 8
REMARK VINA RESULT:      -8.2      5.400      9.143
REMARK  3 active torsions:
REMARK  status: ('A' for Active; 'I' for Inactive)
REMARK    1  A    between atoms: N1_1  and  C1_2 
REMARK    2  A    between atoms: C1_2  and  N2_3 
REMARK    3  A    between atoms: C1_2  and  C16_20 
ROOT
HETATM    1  N2  UNL     1      17.937   3.017  51.991  1.00  0.00    -0.234 NA
HETATM    2  C2  UNL     1      19.109   3.403  51.663  1.00  0.00     0.128 C 
HETATM    3  C3  UNL     1      19.966   4.131  50.628  1.00  0.00     0.107 C 
HETATM    4  C4  UNL     1      21.021   3.172  50.204  1.00  0.00    -0.019 C 
HETATM    5  C5  UNL     1      22.166   3.680  50.563  1.00  0.00    -0.004 C 
HETATM    6  C6  UNL     1      23.255   4.462  51.058  1.00  0.00    -0.004 C 
HETATM    7  C7  UNL     1      24.557   4.246  51.083  1.00  0.00    -0.022 C 
HETATM    8  C8  UNL     1      24.976   2.975  50.490  1.00  0.00     0.061 C 
HETATM    9  C9  UNL     1      25.429   2.008  51.533  1.00  0.00    -0.072 C 
HETATM   10  C10 UNL     1      26.140   0.929  51.806  1.00  0.00     0.004 C 
HETATM   11  C11 UNL     1      25.294   0.256  52.834  1.00  0.00     0.005 C 
HETATM   12  C12 UNL     1      24.174   0.955  53.100  1.00  0.00    -0.058 C 
HETATM   13  C13 UNL     1      22.864   0.436  53.466  1.00  0.00     0.155 C 
HETATM   14  N3  UNL     1      21.724   1.232  53.294  1.00  0.00    -0.381 N 
HETATM   15  C14 UNL     1      20.712   1.938  52.625  1.00  0.00     0.204 C 
HETATM   16  N4  UNL     1      20.211   3.109  52.522  1.00  0.00    -0.229 NA
HETATM   17  C15 UNL     1      24.796   2.301  52.883  1.00  0.00     0.070 C 
HETATM   18  H16 UNL     1      21.251   1.556  54.196  1.00  0.00     0.160 HD
ENDROOT
BRANCH   1  19
HETATM   19  C1  UNL     1      16.753   3.255  51.204  1.00  0.00     0.374 C 
BRANCH  19  20
HETATM   20  N1  UNL     1      16.443   4.670  51.092  1.00  0.00     0.107 N 
HETATM   21  H1  UNL     1      16.263   5.113  52.021  1.00  0.00     0.316 HD
HETATM   22  H2  UNL     1      17.058   5.198  50.465  1.00  0.00     0.316 HD
ENDBRANCH  19  20
BRANCH  19  23
HETATM   23  C16 UNL     1      15.600   2.631  51.901  1.00  0.00    -0.003 A 
HETATM   24  C17 UNL     1      15.341   1.273  51.960  1.00  0.00     0.011 A 
HETATM   25  C18 UNL     1      14.246   0.774  52.634  1.00  0.00     0.002 A 
HETATM   26  C19 UNL     1      13.375   1.661  53.273  1.00  0.00     0.019 A 
HETATM   27  C20 UNL     1      13.609   3.020  53.231  1.00  0.00     0.011 A 
HETATM   28 BR1  UNL     1      12.441   4.281  54.094  1.00  0.00    -0.051 Br
HETATM   29  C21 UNL     1      14.724   3.505  52.544  1.00  0.00     0.030 A 
ENDBRANCH  19  23
ENDBRANCH   1  19
TORSDOF 3
ENDMDL
MODEL 9
REMARK VINA RESULT:      -8.1      2.097      3.519
REMARK  3 active torsions:
REMARK  status: ('A' for Active; 'I' for Inactive)
REMARK    1  A    between atoms: N1_1  and  C1_2 
REMARK    2  A    between atoms: C1_2  and  N2_3 
REMARK    3  A    between atoms: C1_2  and  C16_20 
ROOT
HETATM    1  N2  UNL     1      24.516   5.166  50.599  1.00  0.00    -0.234 NA
HETATM    2  C2  UNL     1      24.621   4.057  51.224  1.00  0.00     0.128 C 
HETATM    3  C3  UNL     1      25.441   2.783  51.424  1.00  0.00     0.107 C 
HETATM    4  C4  UNL     1      24.517   1.644  51.169  1.00  0.00    -0.019 C 
HETATM    5  C5  UNL     1      24.410   0.982  52.287  1.00  0.00    -0.004 C 
HETATM    6  C6  UNL     1      24.483   0.460  53.616  1.00  0.00    -0.004 C 
HETATM    7  C7  UNL     1      23.887  -0.564  54.196  1.00  0.00    -0.022 C 
HETATM    8  C8  UNL     1      22.984  -1.318  53.324  1.00  0.00     0.061 C 
HETATM    9  C9  UNL     1      21.554  -1.086  53.685  1.00  0.00    -0.072 C 
HETATM   10  C10 UNL     1      20.313  -1.532  53.627  1.00  0.00     0.004 C 
HETATM   11  C11 UNL     1      19.539  -0.267  53.460  1.00  0.00     0.005 C 
HETATM   12  C12 UNL     1      20.342   0.814  53.433  1.00  0.00    -0.058 C 
HETATM   13  C13 UNL     1      20.152   2.048  52.684  1.00  0.00     0.155 C 
HETATM   14  N3  UNL     1      21.245   2.883  52.422  1.00  0.00    -0.381 N 
HETATM   15  C14 UNL     1      22.459   3.307  51.859  1.00  0.00     0.204 C 
HETATM   16  N4  UNL     1      23.631   3.696  52.187  1.00  0.00    -0.229 NA
HETATM   17  C15 UNL     1      21.361   0.254  54.377  1.00  0.00     0.070 C 
HETATM   18  H16 UNL     1      21.238   3.822  52.931  1.00  0.00     0.160 HD
ENDROOT
BRANCH   1  19
HETATM   19  C1  UNL     1      25.452   5.633  49.608  1.00  0.00     0.374 C 
BRANCH  19  20
HETATM   20  N1  UNL     1      26.298   6.700  50.111  1.00  0.00     0.107 N 
HETATM   21  H1  UNL     1      26.170   7.593  49.584  1.00  0.00     0.316 HD
HETATM   22  H2  UNL     1      26.316   6.791  51.132  1.00  0.00     0.316 HD
ENDBRANCH  19  20
BRANCH  19  23
HETATM   23  C16 UNL     1      24.680   6.212  48.480  1.00  0.00    -0.003 A 
HETATM   24  C17 UNL     1      23.424   5.796  48.074  1.00  0.00     0.011 A 
HETATM   25  C18 UNL     1      22.772   6.391  47.013  1.00  0.00     0.002 A 
HETATM   26  C19 UNL     1      23.394   7.441  46.331  1.00  0.00     0.019 A 
HETATM   27  C20 UNL     1      24.646   7.876  46.714  1.00  0.00     0.011 A 
HETATM   28 BR1  UNL     1      25.545   9.315  45.808  1.00  0.00    -0.051 Br
HETATM   29  C21 UNL     1      25.289   7.260  47.791  1.00  0.00     0.030 A 
ENDBRANCH  19  23
ENDBRANCH   1  19
TORSDOF 3
ENDMDL
