MODEL 1
REMARK VINA RESULT:      -7.9      0.000      0.000
REMARK  12 active torsions:
REMARK  status: ('A' for Active; 'I' for Inactive)
REMARK    1  A    between atoms: O1_2  and  C2_3 
REMARK    2  A    between atoms: C2_3  and  C3_4 
REMARK    3  A    between atoms: C3_4  and  O2_5 
REMARK    4  A    between atoms: O2_5  and  C4_6 
REMARK    5  A    between atoms: C4_6  and  C5_7 
REMARK    6  A    between atoms: C6_8  and  C7_9 
REMARK    7  A    between atoms: C7_9  and  C8_10 
REMARK    8  A    between atoms: C8_10  and  O3_11 
REMARK    9  A    between atoms: O3_11  and  C9_12 
REMARK   10  A    between atoms: C15_19  and  N1_20 
REMARK   11  A    between atoms: C17_23  and  N3_24 
REMARK   12  A    between atoms: N3_24  and  C18_25 
ROOT
HETATM    1  C7  UNL     1      23.463   2.853  51.644  1.00  0.00    -0.019 C 
HETATM    2  C14 UNL     1      24.686   2.957  51.170  1.00  0.00     0.041 A 
HETATM    3  C15 UNL     1      25.216   3.661  50.013  1.00  0.00     0.038 A 
HETATM    4  C16 UNL     1      26.511   3.555  49.932  1.00  0.00     0.143 A 
HETATM    5  N2  UNL     1      26.907   2.771  51.044  1.00  0.00    -0.241 NA
HETATM    6  C17 UNL     1      25.888   2.415  51.772  1.00  0.00     0.140 A 
ENDROOT
BRANCH   1   7
HETATM    7  C6  UNL     1      22.311   3.499  51.033  1.00  0.00     0.008 C 
HETATM    8  C5  UNL     1      21.876   4.726  50.856  1.00  0.00    -0.000 C 
BRANCH   8   9
HETATM    9  C4  UNL     1      22.001   6.185  51.004  1.00  0.00     0.195 C 
BRANCH   9  10
HETATM   10  O2  UNL     1      23.121   6.714  50.569  1.00  0.00    -0.385 OA
BRANCH  10  11
HETATM   11  C3  UNL     1      23.831   7.765  50.882  1.00  0.00     0.194 C 
BRANCH  11  12
HETATM   12  C2  UNL     1      25.078   8.157  50.190  1.00  0.00     0.193 C 
BRANCH  12  13
HETATM   13  O1  UNL     1      25.957   7.101  50.067  1.00  0.00    -0.394 OA
HETATM   14  C1  UNL     1      26.780   7.184  48.990  1.00  0.00     0.201 C 
ENDBRANCH  12  13
ENDBRANCH  11  12
ENDBRANCH  10  11
ENDBRANCH   9  10
ENDBRANCH   8   9
ENDBRANCH   1   7
BRANCH   1  15
HETATM   15  C8  UNL     1      23.072   1.988  52.782  1.00  0.00     0.207 C 
BRANCH  15  16
HETATM   16  O3  UNL     1      21.768   1.561  52.762  1.00  0.00    -0.381 OA
BRANCH  16  17
HETATM   17  C9  UNL     1      21.605   0.223  52.981  1.00  0.00     0.125 C 
HETATM   18  C10 UNL     1      20.641  -0.193  54.032  1.00  0.00     0.058 C 
HETATM   19  C11 UNL     1      20.904  -1.679  54.311  1.00  0.00     0.170 C 
HETATM   20  O4  UNL     1      22.044  -1.804  55.095  1.00  0.00    -0.391 OA
HETATM   21  C12 UNL     1      23.050  -0.927  54.706  1.00  0.00     0.170 C 
HETATM   22  C13 UNL     1      22.911  -0.491  53.269  1.00  0.00     0.058 C 
ENDBRANCH  16  17
ENDBRANCH  15  16
ENDBRANCH   1  15
BRANCH   3  23
HETATM   23  N1  UNL     1      24.508   4.394  49.034  1.00  0.00    -0.301 NA
HETATM   24  H23 UNL     1      24.369   4.001  48.061  1.00  0.00     0.124 HD
HETATM   25  H24 UNL     1      24.423   3.922  48.100  1.00  0.00     0.124 HD
ENDBRANCH   3  23
BRANCH   6  26
HETATM   26  N3  UNL     1      26.050   1.659  52.990  1.00  0.00    -0.340 N 
HETATM   27  H26 UNL     1      25.120   1.671  53.539  1.00  0.00     0.167 HD
BRANCH  26  28
HETATM   28  C18 UNL     1      27.329   1.051  53.292  1.00  0.00     0.035 A 
HETATM   29  C19 UNL     1      28.470   1.652  53.781  1.00  0.00     0.032 A 
HETATM   30  C20 UNL     1      29.575   0.863  53.991  1.00  0.00     0.046 A 
HETATM   31  C21 UNL     1      29.563  -0.489  53.729  1.00  0.00     0.138 A 
HETATM   32  F1  UNL     1      30.693  -1.186  53.966  1.00  0.00    -0.204 F 
HETATM   33  C22 UNL     1      28.429  -1.095  53.241  1.00  0.00     0.074 A 
HETATM   34 CL1  UNL     1      28.434  -2.821  52.913  1.00  0.00    -0.081 Cl
HETATM   35  C23 UNL     1      27.308  -0.322  53.022  1.00  0.00     0.056 A 
ENDBRANCH  26  28
ENDBRANCH   6  26
TORSDOF 12
ENDMDL
MODEL 2
REMARK VINA RESULT:      -7.8      2.032      3.011
REMARK  12 active torsions:
REMARK  status: ('A' for Active; 'I' for Inactive)
REMARK    1  A    between atoms: O1_2  and  C2_3 
REMARK    2  A    between atoms: C2_3  and  C3_4 
REMARK    3  A    between atoms: C3_4  and  O2_5 
REMARK    4  A    between atoms: O2_5  and  C4_6 
REMARK    5  A    between atoms: C4_6  and  C5_7 
REMARK    6  A    between atoms: C6_8  and  C7_9 
REMARK    7  A    between atoms: C7_9  and  C8_10 
REMARK    8  A    between atoms: C8_10  and  O3_11 
REMARK    9  A    between atoms: O3_11  and  C9_12 
REMARK   10  A    between atoms: C15_19  and  N1_20 
REMARK   11  A    between atoms: C17_23  and  N3_24 
REMARK   12  A    between atoms: N3_24  and  C18_25 
ROOT
HETATM    1  C7  UNL     1      23.709   3.539  51.781  1.00  0.00    -0.019 C 
HETATM    2  C14 UNL     1      24.827   3.337  51.115  1.00  0.00     0.041 A 
HETATM    3  C15 UNL     1      25.397   4.012  49.961  1.00  0.00     0.038 A 
HETATM    4  C16 UNL     1      26.565   3.532  49.645  1.00  0.00     0.143 A 
HETATM    5  N2  UNL     1      26.830   2.506  50.587  1.00  0.00    -0.241 NA
HETATM    6  C17 UNL     1      25.856   2.371  51.441  1.00  0.00     0.140 A 
ENDROOT
BRANCH   1   7
HETATM    7  C6  UNL     1      22.759   4.589  51.448  1.00  0.00     0.008 C 
HETATM    8  C5  UNL     1      21.469   4.685  51.221  1.00  0.00    -0.000 C 
BRANCH   8   9
HETATM    9  C4  UNL     1      20.123   4.104  51.097  1.00  0.00     0.195 C 
BRANCH   9  10
HETATM   10  O2  UNL     1      20.064   2.792  51.053  1.00  0.00    -0.385 OA
BRANCH  10  11
HETATM   11  C3  UNL     1      19.824   1.908  50.123  1.00  0.00     0.194 C 
BRANCH  11  12
HETATM   12  C2  UNL     1      20.823   0.936  49.628  1.00  0.00     0.193 C 
BRANCH  12  13
HETATM   13  O1  UNL     1      21.349   1.309  48.407  1.00  0.00    -0.394 OA
HETATM   14  C1  UNL     1      22.419   2.139  48.493  1.00  0.00     0.201 C 
ENDBRANCH  12  13
ENDBRANCH  11  12
ENDBRANCH  10  11
ENDBRANCH   9  10
ENDBRANCH   8   9
ENDBRANCH   1   7
BRANCH   1  15
HETATM   15  C8  UNL     1      23.213   2.672  52.876  1.00  0.00     0.207 C 
BRANCH  15  16
HETATM   16  O3  UNL     1      22.760   1.439  52.479  1.00  0.00    -0.381 OA
BRANCH  16  17
HETATM   17  C9  UNL     1      22.343   0.632  53.498  1.00  0.00     0.125 C 
HETATM   18  C10 UNL     1      22.629  -0.821  53.389  1.00  0.00     0.058 C 
HETATM   19  C11 UNL     1      21.773  -1.521  54.453  1.00  0.00     0.170 C 
HETATM   20  O4  UNL     1      20.458  -1.593  54.009  1.00  0.00    -0.391 OA
HETATM   21  C12 UNL     1      20.052  -0.426  53.372  1.00  0.00     0.170 C 
HETATM   22  C13 UNL     1      20.863   0.773  53.795  1.00  0.00     0.058 C 
ENDBRANCH  16  17
ENDBRANCH  15  16
ENDBRANCH   1  15
BRANCH   3  23
HETATM   23  N1  UNL     1      24.842   5.065  49.199  1.00  0.00    -0.301 NA
HETATM   24  H23 UNL     1      23.793   5.199  49.148  1.00  0.00     0.124 HD
HETATM   25  H24 UNL     1      23.793   5.116  49.209  1.00  0.00     0.124 HD
ENDBRANCH   3  23
BRANCH   6  26
HETATM   26  N3  UNL     1      25.924   1.426  52.529  1.00  0.00    -0.340 N 
HETATM   27  H26 UNL     1      24.925   1.236  52.895  1.00  0.00     0.167 HD
BRANCH  26  28
HETATM   28  C18 UNL     1      27.210   0.916  52.957  1.00  0.00     0.035 A 
HETATM   29  C19 UNL     1      28.284   1.615  53.466  1.00  0.00     0.032 A 
HETATM   30  C20 UNL     1      29.412   0.908  53.807  1.00  0.00     0.046 A 
HETATM   31  C21 UNL     1      29.486  -0.459  53.652  1.00  0.00     0.138 A 
HETATM   32  F1  UNL     1      30.632  -1.071  54.013  1.00  0.00    -0.204 F 
HETATM   33  C22 UNL     1      28.419  -1.163  53.145  1.00  0.00     0.074 A 
HETATM   34 CL1  UNL     1      28.534  -2.906  52.956  1.00  0.00    -0.081 Cl
HETATM   35  C23 UNL     1      27.277  -0.472  52.797  1.00  0.00     0.056 A 
ENDBRANCH  26  28
ENDBRANCH   6  26
TORSDOF 12
ENDMDL
MODEL 3
REMARK VINA RESULT:      -7.7      3.765      7.396
REMARK  12 active torsions:
REMARK  status: ('A' for Active; 'I' for Inactive)
REMARK    1  A    between atoms: O1_2  and  C2_3 
REMARK    2  A    between atoms: C2_3  and  C3_4 
REMARK    3  A    between atoms: C3_4  and  O2_5 
REMARK    4  A    between atoms: O2_5  and  C4_6 
REMARK    5  A    between atoms: C4_6  and  C5_7 
REMARK    6  A    between atoms: C6_8  and  C7_9 
REMARK    7  A    between atoms: C7_9  and  C8_10 
REMARK    8  A    between atoms: C8_10  and  O3_11 
REMARK    9  A    between atoms: O3_11  and  C9_12 
REMARK   10  A    between atoms: C15_19  and  N1_20 
REMARK   11  A    between atoms: C17_23  and  N3_24 
REMARK   12  A    between atoms: N3_24  and  C18_25 
ROOT
HETATM    1  C7  UNL     1      23.692   1.346  52.067  1.00  0.00    -0.019 C 
HETATM    2  C14 UNL     1      23.228   1.983  51.013  1.00  0.00     0.041 A 
HETATM    3  C15 UNL     1      22.127   1.682  50.111  1.00  0.00     0.038 A 
HETATM    4  C16 UNL     1      21.963   2.614  49.217  1.00  0.00     0.143 A 
HETATM    5  N2  UNL     1      22.956   3.590  49.487  1.00  0.00    -0.241 NA
HETATM    6  C17 UNL     1      23.694   3.259  50.508  1.00  0.00     0.140 A 
ENDROOT
BRANCH   1   7
HETATM    7  C6  UNL     1      23.116   0.109  52.571  1.00  0.00     0.008 C 
HETATM    8  C5  UNL     1      22.215  -0.243  53.461  1.00  0.00    -0.000 C 
BRANCH   8   9
HETATM    9  C4  UNL     1      21.216   0.070  54.494  1.00  0.00     0.195 C 
BRANCH   9  10
HETATM   10  O2  UNL     1      19.967  -0.196  54.186  1.00  0.00    -0.385 OA
BRANCH  10  11
HETATM   11  C3  UNL     1      19.316  -0.424  53.076  1.00  0.00     0.194 C 
BRANCH  11  12
HETATM   12  C2  UNL     1      18.124  -1.294  52.980  1.00  0.00     0.193 C 
BRANCH  12  13
HETATM   13  O1  UNL     1      18.195  -2.368  53.845  1.00  0.00    -0.394 OA
HETATM   14  C1  UNL     1      17.324  -3.369  53.560  1.00  0.00     0.201 C 
ENDBRANCH  12  13
ENDBRANCH  11  12
ENDBRANCH  10  11
ENDBRANCH   9  10
ENDBRANCH   8   9
ENDBRANCH   1   7
BRANCH   1  15
HETATM   15  C8  UNL     1      24.912   1.732  52.813  1.00  0.00     0.207 C 
BRANCH  15  16
HETATM   16  O3  UNL     1      25.370   0.789  53.700  1.00  0.00    -0.381 OA
BRANCH  16  17
HETATM   17  C9  UNL     1      26.707   0.529  53.611  1.00  0.00     0.125 C 
HETATM   18  C10 UNL     1      27.443   0.257  54.873  1.00  0.00     0.058 C 
HETATM   19  C11 UNL     1      28.939   0.346  54.540  1.00  0.00     0.170 C 
HETATM   20  O4  UNL     1      29.307   1.682  54.437  1.00  0.00    -0.391 OA
HETATM   21  C12 UNL     1      28.348   2.443  53.778  1.00  0.00     0.170 C 
HETATM   22  C13 UNL     1      27.472   1.611  52.875  1.00  0.00     0.058 C 
ENDBRANCH  16  17
ENDBRANCH  15  16
ENDBRANCH   1  15
BRANCH   3  23
HETATM   23  N1  UNL     1      21.279   0.552  50.111  1.00  0.00    -0.301 NA
HETATM   24  H23 UNL     1      21.083   0.025  49.214  1.00  0.00     0.124 HD
HETATM   25  H24 UNL     1      21.145   0.097  49.174  1.00  0.00     0.124 HD
ENDBRANCH   3  23
BRANCH   6  26
HETATM   26  N3  UNL     1      24.735   4.124  51.006  1.00  0.00    -0.340 N 
HETATM   27  H26 UNL     1      24.585   4.285  52.063  1.00  0.00     0.167 HD
BRANCH  26  28
HETATM   28  C18 UNL     1      25.745   4.627  50.098  1.00  0.00     0.035 A 
HETATM   29  C19 UNL     1      26.782   3.941  49.502  1.00  0.00     0.032 A 
HETATM   30  C20 UNL     1      27.621   4.638  48.667  1.00  0.00     0.046 A 
HETATM   31  C21 UNL     1      27.448   5.982  48.420  1.00  0.00     0.138 A 
HETATM   32  F1  UNL     1      28.320   6.585  47.587  1.00  0.00    -0.204 F 
HETATM   33  C22 UNL     1      26.416   6.673  49.010  1.00  0.00     0.074 A 
HETATM   34 CL1  UNL     1      26.212   8.387  48.681  1.00  0.00    -0.081 Cl
HETATM   35  C23 UNL     1      25.561   5.992  49.852  1.00  0.00     0.056 A 
ENDBRANCH  26  28
ENDBRANCH   6  26
TORSDOF 12
ENDMDL
MODEL 4
REMARK VINA RESULT:      -7.7      2.479      5.568
REMARK  12 active torsions:
REMARK  status: ('A' for Active; 'I' for Inactive)
REMARK    1  A    between atoms: O1_2  and  C2_3 
REMARK    2  A    between atoms: C2_3  and  C3_4 
REMARK    3  A    between atoms: C3_4  and  O2_5 
REMARK    4  A    between atoms: O2_5  and  C4_6 
REMARK    5  A    between atoms: C4_6  and  C5_7 
REMARK    6  A    between atoms: C6_8  and  C7_9 
REMARK    7  A    between atoms: C7_9  and  C8_10 
REMARK    8  A    between atoms: C8_10  and  O3_11 
REMARK    9  A    between atoms: O3_11  and  C9_12 
REMARK   10  A    between atoms: C15_19  and  N1_20 
REMARK   11  A    between atoms: C17_23  and  N3_24 
REMARK   12  A    between atoms: N3_24  and  C18_25 
ROOT
HETATM    1  C7  UNL     1      22.030   0.281  52.246  1.00  0.00    -0.019 C 
HETATM    2  C14 UNL     1      22.677  -0.230  53.272  1.00  0.00     0.041 A 
HETATM    3  C15 UNL     1      22.204  -0.876  54.485  1.00  0.00     0.038 A 
HETATM    4  C16 UNL     1      23.188  -1.296  55.227  1.00  0.00     0.143 A 
HETATM    5  N2  UNL     1      24.374  -0.946  54.533  1.00  0.00    -0.241 NA
HETATM    6  C17 UNL     1      24.115  -0.337  53.411  1.00  0.00     0.140 A 
ENDROOT
BRANCH   1   7
HETATM    7  C6  UNL     1      20.579   0.276  52.132  1.00  0.00     0.008 C 
HETATM    8  C5  UNL     1      19.684   0.527  51.203  1.00  0.00    -0.000 C 
BRANCH   8   9
HETATM    9  C4  UNL     1      19.301   0.921  49.838  1.00  0.00     0.195 C 
BRANCH   9  10
HETATM   10  O2  UNL     1      18.420   1.891  49.746  1.00  0.00    -0.385 OA
BRANCH  10  11
HETATM   11  C3  UNL     1      18.399   3.156  50.070  1.00  0.00     0.194 C 
BRANCH  11  12
HETATM   12  C2  UNL     1      18.167   3.655  51.443  1.00  0.00     0.193 C 
BRANCH  12  13
HETATM   13  O1  UNL     1      19.340   3.756  52.163  1.00  0.00    -0.394 OA
HETATM   14  C1  UNL     1      20.384   4.260  51.457  1.00  0.00     0.201 C 
ENDBRANCH  12  13
ENDBRANCH  11  12
ENDBRANCH  10  11
ENDBRANCH   9  10
ENDBRANCH   8   9
ENDBRANCH   1   7
BRANCH   1  15
HETATM   15  C8  UNL     1      22.668   1.020  51.131  1.00  0.00     0.207 C 
BRANCH  15  16
HETATM   16  O3  UNL     1      23.235   2.220  51.481  1.00  0.00    -0.381 OA
BRANCH  16  17
HETATM   17  C9  UNL     1      24.058   2.757  50.533  1.00  0.00     0.125 C 
HETATM   18  C10 UNL     1      24.699   4.062  50.835  1.00  0.00     0.058 C 
HETATM   19  C11 UNL     1      25.267   4.592  49.511  1.00  0.00     0.170 C 
HETATM   20  O4  UNL     1      24.231   5.108  48.742  1.00  0.00    -0.391 OA
HETATM   21  C12 UNL     1      23.087   4.320  48.803  1.00  0.00     0.170 C 
HETATM   22  C13 UNL     1      23.390   2.892  49.179  1.00  0.00     0.058 C 
ENDBRANCH  16  17
ENDBRANCH  15  16
ENDBRANCH   1  15
BRANCH   3  23
HETATM   23  N1  UNL     1      20.871  -1.077  54.908  1.00  0.00    -0.301 NA
HETATM   24  H23 UNL     1      20.109  -1.300  54.207  1.00  0.00     0.124 HD
HETATM   25  H24 UNL     1      20.188  -1.292  54.140  1.00  0.00     0.124 HD
ENDBRANCH   3  23
BRANCH   6  26
HETATM   26  N3  UNL     1      25.163   0.066  52.505  1.00  0.00    -0.340 N 
HETATM   27  H26 UNL     1      24.874  -0.189  51.496  1.00  0.00     0.167 HD
BRANCH  26  28
HETATM   28  C18 UNL     1      26.362   0.689  53.027  1.00  0.00     0.035 A 
HETATM   29  C19 UNL     1      26.546   1.998  53.420  1.00  0.00     0.032 A 
HETATM   30  C20 UNL     1      27.786   2.362  53.888  1.00  0.00     0.046 A 
HETATM   31  C21 UNL     1      28.825   1.460  53.970  1.00  0.00     0.138 A 
HETATM   32  F1  UNL     1      30.007   1.906  54.442  1.00  0.00    -0.204 F 
HETATM   33  C22 UNL     1      28.647   0.154  53.580  1.00  0.00     0.074 A 
HETATM   34 CL1  UNL     1      29.985  -0.980  53.693  1.00  0.00    -0.081 Cl
HETATM   35  C23 UNL     1      27.411  -0.233  53.107  1.00  0.00     0.056 A 
ENDBRANCH  26  28
ENDBRANCH   6  26
TORSDOF 12
ENDMDL
MODEL 5
REMARK VINA RESULT:      -7.6      4.005      6.906
REMARK  12 active torsions:
REMARK  status: ('A' for Active; 'I' for Inactive)
REMARK    1  A    between atoms: O1_2  and  C2_3 
REMARK    2  A    between atoms: C2_3  and  C3_4 
REMARK    3  A    between atoms: C3_4  and  O2_5 
REMARK    4  A    between atoms: O2_5  and  C4_6 
REMARK    5  A    between atoms: C4_6  and  C5_7 
REMARK    6  A    between atoms: C6_8  and  C7_9 
REMARK    7  A    between atoms: C7_9  and  C8_10 
REMARK    8  A    between atoms: C8_10  and  O3_11 
REMARK    9  A    between atoms: O3_11  and  C9_12 
REMARK   10  A    between atoms: C15_19  and  N1_20 
REMARK   11  A    between atoms: C17_23  and  N3_24 
REMARK   12  A    between atoms: N3_24  and  C18_25 
ROOT
HETATM    1  C7  UNL     1      25.170   2.514  51.789  1.00  0.00    -0.019 C 
HETATM    2  C14 UNL     1      24.919   3.539  51.002  1.00  0.00     0.041 A 
HETATM    3  C15 UNL     1      25.748   4.237  50.033  1.00  0.00     0.038 A 
HETATM    4  C16 UNL     1      25.088   5.175  49.416  1.00  0.00     0.143 A 
HETATM    5  N2  UNL     1      23.775   5.142  49.950  1.00  0.00    -0.241 NA
HETATM    6  C17 UNL     1      23.646   4.217  50.858  1.00  0.00     0.140 A 
ENDROOT
BRANCH   1   7
HETATM    7  C6  UNL     1      26.451   1.824  51.818  1.00  0.00     0.008 C 
HETATM    8  C5  UNL     1      27.540   1.844  52.553  1.00  0.00    -0.000 C 
BRANCH   8   9
HETATM    9  C4  UNL     1      28.343   2.355  53.675  1.00  0.00     0.195 C 
BRANCH   9  10
HETATM   10  O2  UNL     1      28.777   1.456  54.528  1.00  0.00    -0.385 OA
BRANCH  10  11
HETATM   11  C3  UNL     1      28.682   0.157  54.632  1.00  0.00     0.194 C 
BRANCH  11  12
HETATM   12  C2  UNL     1      29.484  -0.797  53.835  1.00  0.00     0.193 C 
BRANCH  12  13
HETATM   13  O1  UNL     1      28.785  -1.955  53.556  1.00  0.00    -0.394 OA
HETATM   14  C1  UNL     1      27.618  -1.754  52.893  1.00  0.00     0.201 C 
ENDBRANCH  12  13
ENDBRANCH  11  12
ENDBRANCH  10  11
ENDBRANCH   9  10
ENDBRANCH   8   9
ENDBRANCH   1   7
BRANCH   1  15
HETATM   15  C8  UNL     1      24.239   1.994  52.817  1.00  0.00     0.207 C 
BRANCH  15  16
HETATM   16  O3  UNL     1      23.650   0.793  52.510  1.00  0.00    -0.381 OA
BRANCH  16  17
HETATM   17  C9  UNL     1      22.939   0.231  53.532  1.00  0.00     0.125 C 
HETATM   18  C10 UNL     1      22.829  -1.250  53.564  1.00  0.00     0.058 C 
HETATM   19  C11 UNL     1      21.722  -1.589  54.571  1.00  0.00     0.170 C 
HETATM   20  O4  UNL     1      20.483  -1.358  53.986  1.00  0.00    -0.391 OA
HETATM   21  C12 UNL     1      20.468  -0.197  53.222  1.00  0.00     0.170 C 
HETATM   22  C13 UNL     1      21.532   0.784  53.646  1.00  0.00     0.058 C 
ENDBRANCH  16  17
ENDBRANCH  15  16
ENDBRANCH   1  15
BRANCH   3  23
HETATM   23  N1  UNL     1      27.107   4.013  49.721  1.00  0.00    -0.301 NA
HETATM   24  H23 UNL     1      27.510   3.034  49.732  1.00  0.00     0.124 HD
HETATM   25  H24 UNL     1      27.413   3.009  49.759  1.00  0.00     0.124 HD
ENDBRANCH   3  23
BRANCH   6  26
HETATM   26  N3  UNL     1      22.383   3.956  51.504  1.00  0.00    -0.340 N 
HETATM   27  H26 UNL     1      22.324   4.537  52.413  1.00  0.00     0.167 HD
BRANCH  26  28
HETATM   28  C18 UNL     1      21.452   3.021  50.907  1.00  0.00     0.035 A 
HETATM   29  C19 UNL     1      21.712   2.008  50.008  1.00  0.00     0.032 A 
HETATM   30  C20 UNL     1      20.656   1.241  49.578  1.00  0.00     0.046 A 
HETATM   31  C21 UNL     1      19.370   1.461  50.021  1.00  0.00     0.138 A 
HETATM   32  F1  UNL     1      18.396   0.659  49.545  1.00  0.00    -0.204 F 
HETATM   33  C22 UNL     1      19.104   2.469  50.917  1.00  0.00     0.074 A 
HETATM   34 CL1  UNL     1      17.457   2.733  51.470  1.00  0.00    -0.081 Cl
HETATM   35  C23 UNL     1      20.149   3.251  51.362  1.00  0.00     0.056 A 
ENDBRANCH  26  28
ENDBRANCH   6  26
TORSDOF 12
ENDMDL
MODEL 6
REMARK VINA RESULT:      -7.6      2.165      3.616
REMARK  12 active torsions:
REMARK  status: ('A' for Active; 'I' for Inactive)
REMARK    1  A    between atoms: O1_2  and  C2_3 
REMARK    2  A    between atoms: C2_3  and  C3_4 
REMARK    3  A    between atoms: C3_4  and  O2_5 
REMARK    4  A    between atoms: O2_5  and  C4_6 
REMARK    5  A    between atoms: C4_6  and  C5_7 
REMARK    6  A    between atoms: C6_8  and  C7_9 
REMARK    7  A    between atoms: C7_9  and  C8_10 
REMARK    8  A    between atoms: C8_10  and  O3_11 
REMARK    9  A    between atoms: O3_11  and  C9_12 
REMARK   10  A    between atoms: C15_19  and  N1_20 
REMARK   11  A    between atoms: C17_23  and  N3_24 
REMARK   12  A    between atoms: N3_24  and  C18_25 
ROOT
HETATM    1  C7  UNL     1      23.548   2.389  51.436  1.00  0.00    -0.019 C 
HETATM    2  C14 UNL     1      24.669   2.792  50.878  1.00  0.00     0.041 A 
HETATM    3  C15 UNL     1      24.951   3.325  49.555  1.00  0.00     0.038 A 
HETATM    4  C16 UNL     1      26.202   3.661  49.423  1.00  0.00     0.143 A 
HETATM    5  N2  UNL     1      26.816   3.366  50.666  1.00  0.00    -0.241 NA
HETATM    6  C17 UNL     1      25.966   2.870  51.519  1.00  0.00     0.140 A 
ENDROOT
BRANCH   1   7
HETATM    7  C6  UNL     1      22.261   2.421  50.758  1.00  0.00     0.008 C 
HETATM    8  C5  UNL     1      21.196   3.191  50.747  1.00  0.00    -0.000 C 
BRANCH   8   9
HETATM    9  C4  UNL     1      20.436   4.366  51.201  1.00  0.00     0.195 C 
BRANCH   9  10
HETATM   10  O2  UNL     1      19.381   4.681  50.484  1.00  0.00    -0.385 OA
BRANCH  10  11
HETATM   11  C3  UNL     1      18.091   4.524  50.617  1.00  0.00     0.194 C 
BRANCH  11  12
HETATM   12  C2  UNL     1      17.468   3.569  51.559  1.00  0.00     0.193 C 
BRANCH  12  13
HETATM   13  O1  UNL     1      16.628   4.199  52.456  1.00  0.00    -0.394 OA
HETATM   14  C1  UNL     1      15.308   3.974  52.233  1.00  0.00     0.201 C 
ENDBRANCH  12  13
ENDBRANCH  11  12
ENDBRANCH  10  11
ENDBRANCH   9  10
ENDBRANCH   8   9
ENDBRANCH   1   7
BRANCH   1  15
HETATM   15  C8  UNL     1      23.453   1.753  52.771  1.00  0.00     0.207 C 
BRANCH  15  16
HETATM   16  O3  UNL     1      22.194   1.338  53.126  1.00  0.00    -0.381 OA
BRANCH  16  17
HETATM   17  C9  UNL     1      22.073  -0.008  53.318  1.00  0.00     0.125 C 
HETATM   18  C10 UNL     1      21.006  -0.482  54.237  1.00  0.00     0.058 C 
HETATM   19  C11 UNL     1      21.307  -1.956  54.541  1.00  0.00     0.170 C 
HETATM   20  O4  UNL     1      22.344  -2.032  55.462  1.00  0.00    -0.391 OA
HETATM   21  C12 UNL     1      23.346  -1.102  55.206  1.00  0.00     0.170 C 
HETATM   22  C13 UNL     1      23.366  -0.660  53.765  1.00  0.00     0.058 C 
ENDBRANCH  16  17
ENDBRANCH  15  16
ENDBRANCH   1  15
BRANCH   3  23
HETATM   23  N1  UNL     1      24.059   3.499  48.472  1.00  0.00    -0.301 NA
HETATM   24  H23 UNL     1      23.419   2.713  48.169  1.00  0.00     0.124 HD
HETATM   25  H24 UNL     1      23.466   2.663  48.246  1.00  0.00     0.124 HD
ENDBRANCH   3  23
BRANCH   6  26
HETATM   26  N3  UNL     1      26.348   2.544  52.871  1.00  0.00    -0.340 N 
HETATM   27  H26 UNL     1      25.788   3.164  53.556  1.00  0.00     0.167 HD
BRANCH  26  28
HETATM   28  C18 UNL     1      27.354   1.529  53.107  1.00  0.00     0.035 A 
HETATM   29  C19 UNL     1      28.631   1.686  53.603  1.00  0.00     0.032 A 
HETATM   30  C20 UNL     1      29.412   0.564  53.742  1.00  0.00     0.046 A 
HETATM   31  C21 UNL     1      28.950  -0.688  53.402  1.00  0.00     0.138 A 
HETATM   32  F1  UNL     1      29.786  -1.733  53.572  1.00  0.00    -0.204 F 
HETATM   33  C22 UNL     1      27.678  -0.853  52.907  1.00  0.00     0.074 A 
HETATM   34 CL1  UNL     1      27.108  -2.459  52.480  1.00  0.00    -0.081 Cl
HETATM   35  C23 UNL     1      26.878   0.260  52.760  1.00  0.00     0.056 A 
ENDBRANCH  26  28
ENDBRANCH   6  26
TORSDOF 12
ENDMDL
MODEL 7
REMARK VINA RESULT:      -7.6      3.544      7.055
REMARK  12 active torsions:
REMARK  status: ('A' for Active; 'I' for Inactive)
REMARK    1  A    between atoms: O1_2  and  C2_3 
REMARK    2  A    between atoms: C2_3  and  C3_4 
REMARK    3  A    between atoms: C3_4  and  O2_5 
REMARK    4  A    between atoms: O2_5  and  C4_6 
REMARK    5  A    between atoms: C4_6  and  C5_7 
REMARK    6  A    between atoms: C6_8  and  C7_9 
REMARK    7  A    between atoms: C7_9  and  C8_10 
REMARK    8  A    between atoms: C8_10  and  O3_11 
REMARK    9  A    between atoms: O3_11  and  C9_12 
REMARK   10  A    between atoms: C15_19  and  N1_20 
REMARK   11  A    between atoms: C17_23  and  N3_24 
REMARK   12  A    between atoms: N3_24  and  C18_25 
ROOT
HETATM    1  C7  UNL     1      24.571   0.759  52.688  1.00  0.00    -0.019 C 
HETATM    2  C14 UNL     1      25.748   1.347  52.733  1.00  0.00     0.041 A 
HETATM    3  C15 UNL     1      26.818   1.288  53.716  1.00  0.00     0.038 A 
HETATM    4  C16 UNL     1      27.854   1.985  53.348  1.00  0.00     0.143 A 
HETATM    5  N2  UNL     1      27.519   2.543  52.089  1.00  0.00    -0.241 NA
HETATM    6  C17 UNL     1      26.322   2.196  51.709  1.00  0.00     0.140 A 
ENDROOT
BRANCH   1   7
HETATM    7  C6  UNL     1      24.093  -0.154  53.715  1.00  0.00     0.008 C 
HETATM    8  C5  UNL     1      22.938  -0.491  54.244  1.00  0.00    -0.000 C 
BRANCH   8   9
HETATM    9  C4  UNL     1      21.475  -0.378  54.354  1.00  0.00     0.195 C 
BRANCH   9  10
HETATM   10  O2  UNL     1      20.802  -0.514  53.234  1.00  0.00    -0.385 OA
BRANCH  10  11
HETATM   11  C3  UNL     1      19.833   0.141  52.652  1.00  0.00     0.194 C 
BRANCH  11  12
HETATM   12  C2  UNL     1      18.492  -0.425  52.393  1.00  0.00     0.193 C 
BRANCH  12  13
HETATM   13  O1  UNL     1      17.915  -0.937  53.538  1.00  0.00    -0.394 OA
HETATM   14  C1  UNL     1      17.762  -2.285  53.528  1.00  0.00     0.201 C 
ENDBRANCH  12  13
ENDBRANCH  11  12
ENDBRANCH  10  11
ENDBRANCH   9  10
ENDBRANCH   8   9
ENDBRANCH   1   7
BRANCH   1  15
HETATM   15  C8  UNL     1      23.537   1.023  51.659  1.00  0.00     0.207 C 
BRANCH  15  16
HETATM   16  O3  UNL     1      22.782   2.149  51.874  1.00  0.00    -0.381 OA
BRANCH  16  17
HETATM   17  C9  UNL     1      22.243   2.694  50.744  1.00  0.00     0.125 C 
HETATM   18  C10 UNL     1      20.880   3.278  50.841  1.00  0.00     0.058 C 
HETATM   19  C11 UNL     1      20.388   3.492  49.403  1.00  0.00     0.170 C 
HETATM   20  O4  UNL     1      19.991   2.273  48.868  1.00  0.00    -0.391 OA
HETATM   21  C12 UNL     1      20.853   1.239  49.217  1.00  0.00     0.170 C 
HETATM   22  C13 UNL     1      22.232   1.733  49.571  1.00  0.00     0.058 C 
ENDBRANCH  16  17
ENDBRANCH  15  16
ENDBRANCH   1  15
BRANCH   3  23
HETATM   23  N1  UNL     1      26.838   0.597  54.949  1.00  0.00    -0.301 NA
HETATM   24  H23 UNL     1      27.504   0.887  55.719  1.00  0.00     0.124 HD
HETATM   25  H24 UNL     1      27.532   0.958  55.649  1.00  0.00     0.124 HD
ENDBRANCH   3  23
BRANCH   6  26
HETATM   26  N3  UNL     1      25.782   2.597  50.433  1.00  0.00    -0.340 N 
HETATM   27  H26 UNL     1      25.199   1.785  50.025  1.00  0.00     0.167 HD
BRANCH  26  28
HETATM   28  C18 UNL     1      26.082   3.914  49.910  1.00  0.00     0.035 A 
HETATM   29  C19 UNL     1      27.078   4.281  49.030  1.00  0.00     0.032 A 
HETATM   30  C20 UNL     1      27.168   5.605  48.673  1.00  0.00     0.046 A 
HETATM   31  C21 UNL     1      26.298   6.551  49.169  1.00  0.00     0.138 A 
HETATM   32  F1  UNL     1      26.460   7.827  48.764  1.00  0.00    -0.204 F 
HETATM   33  C22 UNL     1      25.302   6.193  50.047  1.00  0.00     0.074 A 
HETATM   34 CL1  UNL     1      24.203   7.415  50.667  1.00  0.00    -0.081 Cl
HETATM   35  C23 UNL     1      25.194   4.869  50.418  1.00  0.00     0.056 A 
ENDBRANCH  26  28
ENDBRANCH   6  26
TORSDOF 12
ENDMDL
MODEL 8
REMARK VINA RESULT:      -7.6      2.633      5.424
REMARK  12 active torsions:
REMARK  status: ('A' for Active; 'I' for Inactive)
REMARK    1  A    between atoms: O1_2  and  C2_3 
REMARK    2  A    between atoms: C2_3  and  C3_4 
REMARK    3  A    between atoms: C3_4  and  O2_5 
REMARK    4  A    between atoms: O2_5  and  C4_6 
REMARK    5  A    between atoms: C4_6  and  C5_7 
REMARK    6  A    between atoms: C6_8  and  C7_9 
REMARK    7  A    between atoms: C7_9  and  C8_10 
REMARK    8  A    between atoms: C8_10  and  O3_11 
REMARK    9  A    between atoms: O3_11  and  C9_12 
REMARK   10  A    between atoms: C15_19  and  N1_20 
REMARK   11  A    between atoms: C17_23  and  N3_24 
REMARK   12  A    between atoms: N3_24  and  C18_25 
ROOT
HETATM    1  C7  UNL     1      21.625   0.365  52.005  1.00  0.00    -0.019 C 
HETATM    2  C14 UNL     1      22.107  -0.200  53.091  1.00  0.00     0.041 A 
HETATM    3  C15 UNL     1      21.499  -1.092  54.065  1.00  0.00     0.038 A 
HETATM    4  C16 UNL     1      22.352  -1.473  54.972  1.00  0.00     0.143 A 
HETATM    5  N2  UNL     1      23.579  -0.848  54.638  1.00  0.00    -0.241 NA
HETATM    6  C17 UNL     1      23.473  -0.115  53.567  1.00  0.00     0.140 A 
ENDROOT
BRANCH   1   7
HETATM    7  C6  UNL     1      20.262   0.165  51.537  1.00  0.00     0.008 C 
HETATM    8  C5  UNL     1      19.133   0.837  51.540  1.00  0.00    -0.000 C 
BRANCH   8   9
HETATM    9  C4  UNL     1      18.325   2.021  51.870  1.00  0.00     0.195 C 
BRANCH   9  10
HETATM   10  O2  UNL     1      18.980   3.156  51.969  1.00  0.00    -0.385 OA
BRANCH  10  11
HETATM   11  C3  UNL     1      19.440   4.035  51.119  1.00  0.00     0.194 C 
BRANCH  11  12
HETATM   12  C2  UNL     1      18.650   4.600  50.004  1.00  0.00     0.193 C 
BRANCH  12  13
HETATM   13  O1  UNL     1      18.612   3.753  48.914  1.00  0.00    -0.394 OA
HETATM   14  C1  UNL     1      19.827   3.284  48.532  1.00  0.00     0.201 C 
ENDBRANCH  12  13
ENDBRANCH  11  12
ENDBRANCH  10  11
ENDBRANCH   9  10
ENDBRANCH   8   9
ENDBRANCH   1   7
BRANCH   1  15
HETATM   15  C8  UNL     1      22.353   1.356  51.177  1.00  0.00     0.207 C 
BRANCH  15  16
HETATM   16  O3  UNL     1      22.494   2.596  51.748  1.00  0.00    -0.381 OA
BRANCH  16  17
HETATM   17  C9  UNL     1      23.188   3.494  50.990  1.00  0.00     0.125 C 
HETATM   18  C10 UNL     1      23.372   3.186  49.549  1.00  0.00     0.058 C 
HETATM   19  C11 UNL     1      24.451   4.144  49.026  1.00  0.00     0.170 C 
HETATM   20  O4  UNL     1      25.701   3.695  49.436  1.00  0.00    -0.391 OA
HETATM   21  C12 UNL     1      25.689   3.225  50.745  1.00  0.00     0.170 C 
HETATM   22  C13 UNL     1      24.559   3.809  51.556  1.00  0.00     0.058 C 
ENDBRANCH  16  17
ENDBRANCH  15  16
ENDBRANCH   1  15
BRANCH   3  23
HETATM   23  N1  UNL     1      20.164  -1.550  54.120  1.00  0.00    -0.301 NA
HETATM   24  H23 UNL     1      19.858  -2.391  53.553  1.00  0.00     0.124 HD
HETATM   25  H24 UNL     1      19.957  -2.389  53.523  1.00  0.00     0.124 HD
ENDBRANCH   3  23
BRANCH   6  26
HETATM   26  N3  UNL     1      24.607   0.575  53.002  1.00  0.00    -0.340 N 
HETATM   27  H26 UNL     1      24.274   1.509  52.573  1.00  0.00     0.167 HD
BRANCH  26  28
HETATM   28  C18 UNL     1      25.920  -0.032  53.066  1.00  0.00     0.035 A 
HETATM   29  C19 UNL     1      26.304  -1.292  52.655  1.00  0.00     0.032 A 
HETATM   30  C20 UNL     1      27.620  -1.650  52.817  1.00  0.00     0.046 A 
HETATM   31  C21 UNL     1      28.544  -0.790  53.371  1.00  0.00     0.138 A 
HETATM   32  F1  UNL     1      29.814  -1.226  53.492  1.00  0.00    -0.204 F 
HETATM   33  C22 UNL     1      28.168   0.467  53.783  1.00  0.00     0.074 A 
HETATM   34 CL1  UNL     1      29.362   1.548  54.486  1.00  0.00    -0.081 Cl
HETATM   35  C23 UNL     1      26.852   0.846  53.629  1.00  0.00     0.056 A 
ENDBRANCH  26  28
ENDBRANCH   6  26
TORSDOF 12
ENDMDL
MODEL 9
REMARK VINA RESULT:      -7.6      3.527      7.028
REMARK  12 active torsions:
REMARK  status: ('A' for Active; 'I' for Inactive)
REMARK    1  A    between atoms: O1_2  and  C2_3 
REMARK    2  A    between atoms: C2_3  and  C3_4 
REMARK    3  A    between atoms: C3_4  and  O2_5 
REMARK    4  A    between atoms: O2_5  and  C4_6 
REMARK    5  A    between atoms: C4_6  and  C5_7 
REMARK    6  A    between atoms: C6_8  and  C7_9 
REMARK    7  A    between atoms: C7_9  and  C8_10 
REMARK    8  A    between atoms: C8_10  and  O3_11 
REMARK    9  A    between atoms: O3_11  and  C9_12 
REMARK   10  A    between atoms: C15_19  and  N1_20 
REMARK   11  A    between atoms: C17_23  and  N3_24 
REMARK   12  A    between atoms: N3_24  and  C18_25 
ROOT
HETATM    1  C7  UNL     1      24.883   3.396  51.576  1.00  0.00    -0.019 C 
HETATM    2  C14 UNL     1      24.647   4.590  51.074  1.00  0.00     0.041 A 
HETATM    3  C15 UNL     1      23.635   5.585  51.389  1.00  0.00     0.038 A 
HETATM    4  C16 UNL     1      23.789   6.672  50.688  1.00  0.00     0.143 A 
HETATM    5  N2  UNL     1      24.924   6.448  49.869  1.00  0.00    -0.241 NA
HETATM    6  C17 UNL     1      25.438   5.268  50.067  1.00  0.00     0.140 A 
ENDROOT
BRANCH   1   7
HETATM    7  C6  UNL     1      24.097   2.812  52.652  1.00  0.00     0.008 C 
HETATM    8  C5  UNL     1      23.217   1.845  52.788  1.00  0.00    -0.000 C 
BRANCH   8   9
HETATM    9  C4  UNL     1      22.395   0.750  52.251  1.00  0.00     0.195 C 
BRANCH   9  10
HETATM   10  O2  UNL     1      21.370   0.386  52.988  1.00  0.00    -0.385 OA
BRANCH  10  11
HETATM   11  C3  UNL     1      21.224  -0.144  54.173  1.00  0.00     0.194 C 
BRANCH  11  12
HETATM   12  C2  UNL     1      21.010  -1.588  54.412  1.00  0.00     0.193 C 
BRANCH  12  13
HETATM   13  O1  UNL     1      22.025  -2.144  55.165  1.00  0.00    -0.394 OA
HETATM   14  C1  UNL     1      23.056  -1.299  55.420  1.00  0.00     0.201 C 
ENDBRANCH  12  13
ENDBRANCH  11  12
ENDBRANCH  10  11
ENDBRANCH   9  10
ENDBRANCH   8   9
ENDBRANCH   1   7
BRANCH   1  15
HETATM   15  C8  UNL     1      25.895   2.448  51.054  1.00  0.00     0.207 C 
BRANCH  15  16
HETATM   16  O3  UNL     1      27.101   2.469  51.709  1.00  0.00    -0.381 OA
BRANCH  16  17
HETATM   17  C9  UNL     1      27.456   1.282  52.283  1.00  0.00     0.125 C 
HETATM   18  C10 UNL     1      26.612   0.095  51.992  1.00  0.00     0.058 C 
HETATM   19  C11 UNL     1      27.008  -0.987  53.006  1.00  0.00     0.170 C 
HETATM   20  O4  UNL     1      26.434  -0.693  54.237  1.00  0.00    -0.391 OA
HETATM   21  C12 UNL     1      26.488   0.664  54.533  1.00  0.00     0.170 C 
HETATM   22  C13 UNL     1      27.592   1.372  53.790  1.00  0.00     0.058 C 
ENDBRANCH  16  17
ENDBRANCH  15  16
ENDBRANCH   1  15
BRANCH   3  23
HETATM   23  N1  UNL     1      22.573   5.492  52.315  1.00  0.00    -0.301 NA
HETATM   24  H23 UNL     1      21.590   5.771  52.039  1.00  0.00     0.124 HD
HETATM   25  H24 UNL     1      21.635   5.792  51.949  1.00  0.00     0.124 HD
ENDBRANCH   3  23
BRANCH   6  26
HETATM   26  N3  UNL     1      26.634   4.834  49.387  1.00  0.00    -0.340 N 
HETATM   27  H26 UNL     1      26.805   3.790  49.604  1.00  0.00     0.167 HD
BRANCH  26  28
HETATM   28  C18 UNL     1      27.386   5.779  48.587  1.00  0.00     0.035 A 
HETATM   29  C19 UNL     1      26.948   6.949  48.004  1.00  0.00     0.032 A 
HETATM   30  C20 UNL     1      27.854   7.690  47.284  1.00  0.00     0.046 A 
HETATM   31  C21 UNL     1      29.165   7.292  47.139  1.00  0.00     0.138 A 
HETATM   32  F1  UNL     1      29.985   8.082  46.416  1.00  0.00    -0.204 F 
HETATM   33  C22 UNL     1      29.609   6.127  47.718  1.00  0.00     0.074 A 
HETATM   34 CL1  UNL     1      31.286   5.639  47.522  1.00  0.00    -0.081 Cl
HETATM   35  C23 UNL     1      28.716   5.369  48.445  1.00  0.00     0.056 A 
ENDBRANCH  26  28
ENDBRANCH   6  26
TORSDOF 12
ENDMDL
