MODEL 1
REMARK VINA RESULT:      -7.3      0.000      0.000
REMARK  6 active torsions:
REMARK  status: ('A' for Active; 'I' for Inactive)
REMARK    1  A    between atoms: C3_3  and  C4_4 
REMARK    2  A    between atoms: C12_12  and  O1_13 
REMARK    3  A    between atoms: O1_13  and  C13_14 
REMARK    4  A    between atoms: C13_14  and  C14_15 
REMARK    5  A    between atoms: C14_15  and  C15_16 
REMARK    6  A    between atoms: C17_19  and  O3_20 
ROOT
HETATM    1  C4  UNL     1      20.887  -1.085  53.726  1.00  0.00     0.037 C 
HETATM    2  C5  UNL     1      21.788  -0.331  53.188  1.00  0.00     0.075 C 
HETATM    3  C6  UNL     1      21.390   1.017  52.615  1.00  0.00     0.034 C 
HETATM    4  C7  UNL     1      22.155   2.153  52.424  1.00  0.00    -0.016 C 
HETATM    5  C8  UNL     1      23.547   2.217  52.704  1.00  0.00     0.047 C 
HETATM    6  C9  UNL     1      24.144   1.036  51.852  1.00  0.00     0.076 C 
HETATM    7  C10 UNL     1      24.250   0.066  53.049  1.00  0.00     0.057 C 
HETATM    8  C11 UNL     1      25.271   0.093  53.903  1.00  0.00     0.069 C 
HETATM    9  C12 UNL     1      26.040   1.353  54.152  1.00  0.00     0.069 C 
HETATM   10  C16 UNL     1      25.730   2.558  53.604  1.00  0.00     0.042 C 
HETATM   11  C17 UNL     1      24.561   3.155  52.821  1.00  0.00     0.151 C 
HETATM   12  O4  UNL     1      23.164  -0.849  53.173  1.00  0.00    -0.315 OA
ENDROOT
BRANCH   9  13
HETATM   13  O1  UNL     1      27.037   0.978  55.001  1.00  0.00    -0.351 OA
BRANCH  13  14
HETATM   14  C13 UNL     1      27.765  -0.213  54.655  1.00  0.00     0.182 C 
BRANCH  14  15
HETATM   15  C14 UNL     1      28.976   0.130  53.823  1.00  0.00     0.096 C 
BRANCH  15  16
HETATM   16  C15 UNL     1      29.764  -1.126  53.630  1.00  0.00     0.233 C 
HETATM   17  O2  UNL     1      29.103  -2.148  53.480  1.00  0.00    -0.307 OA
ENDBRANCH  15  16
ENDBRANCH  14  15
ENDBRANCH  13  14
ENDBRANCH   9  13
BRANCH  11  18
HETATM   18  O3  UNL     1      24.238   4.373  53.428  1.00  0.00    -0.391 OA
HETATM   19  H20 UNL     1      23.288   4.588  53.187  1.00  0.00     0.210 HD
ENDBRANCH  11  18
BRANCH   1  20
HETATM   20  C3  UNL     1      19.500  -0.736  53.827  1.00  0.00    -0.002 C 
HETATM   21  C2  UNL     1      18.585  -1.439  53.152  1.00  0.00    -0.031 C 
HETATM   22  C1  UNL     1      17.138  -1.227  53.138  1.00  0.00     0.036 C 
ENDBRANCH   1  20
TORSDOF 6
ENDMDL
MODEL 2
REMARK VINA RESULT:      -6.9      2.552      4.519
REMARK  6 active torsions:
REMARK  status: ('A' for Active; 'I' for Inactive)
REMARK    1  A    between atoms: C3_3  and  C4_4 
REMARK    2  A    between atoms: C12_12  and  O1_13 
REMARK    3  A    between atoms: O1_13  and  C13_14 
REMARK    4  A    between atoms: C13_14  and  C14_15 
REMARK    5  A    between atoms: C14_15  and  C15_16 
REMARK    6  A    between atoms: C17_19  and  O3_20 
ROOT
HETATM    1  C4  UNL     1      23.951   3.894  49.265  1.00  0.00     0.037 C 
HETATM    2  C5  UNL     1      24.010   3.331  50.427  1.00  0.00     0.075 C 
HETATM    3  C6  UNL     1      22.727   2.905  51.117  1.00  0.00     0.034 C 
HETATM    4  C7  UNL     1      22.524   1.925  52.071  1.00  0.00    -0.016 C 
HETATM    5  C8  UNL     1      23.573   1.150  52.634  1.00  0.00     0.047 C 
HETATM    6  C9  UNL     1      24.562   2.235  53.202  1.00  0.00     0.076 C 
HETATM    7  C10 UNL     1      25.538   2.144  52.007  1.00  0.00     0.057 C 
HETATM    8  C11 UNL     1      26.472   1.200  51.917  1.00  0.00     0.069 C 
HETATM    9  C12 UNL     1      26.296  -0.130  52.580  1.00  0.00     0.069 C 
HETATM   10  C16 UNL     1      25.175  -0.508  53.249  1.00  0.00     0.042 C 
HETATM   11  C17 UNL     1      23.751   0.022  53.420  1.00  0.00     0.151 C 
HETATM   12  O4  UNL     1      25.348   3.141  51.006  1.00  0.00    -0.315 OA
ENDROOT
BRANCH   9  13
HETATM   13  O1  UNL     1      27.468  -0.783  52.342  1.00  0.00    -0.351 OA
BRANCH  13  14
HETATM   14  C13 UNL     1      28.276  -1.099  53.488  1.00  0.00     0.182 C 
BRANCH  14  15
HETATM   15  C14 UNL     1      29.571  -0.326  53.452  1.00  0.00     0.096 C 
BRANCH  15  16
HETATM   16  C15 UNL     1      29.362   0.946  54.210  1.00  0.00     0.233 C 
HETATM   17  O2  UNL     1      28.548   0.889  55.125  1.00  0.00    -0.307 OA
ENDBRANCH  15  16
ENDBRANCH  14  15
ENDBRANCH  13  14
ENDBRANCH   9  13
BRANCH  11  18
HETATM   18  O3  UNL     1      22.882  -1.053  53.202  1.00  0.00    -0.391 OA
HETATM   19  H20 UNL     1      21.948  -0.720  53.351  1.00  0.00     0.210 HD
ENDBRANCH  11  18
BRANCH   1  20
HETATM   20  C3  UNL     1      22.733   4.153  48.556  1.00  0.00    -0.002 C 
HETATM   21  C2  UNL     1      22.362   3.351  47.553  1.00  0.00    -0.031 C 
HETATM   22  C1  UNL     1      21.160   3.463  46.726  1.00  0.00     0.036 C 
ENDBRANCH   1  20
TORSDOF 6
ENDMDL
MODEL 3
REMARK VINA RESULT:      -6.9      2.207      7.113
REMARK  6 active torsions:
REMARK  status: ('A' for Active; 'I' for Inactive)
REMARK    1  A    between atoms: C3_3  and  C4_4 
REMARK    2  A    between atoms: C12_12  and  O1_13 
REMARK    3  A    between atoms: O1_13  and  C13_14 
REMARK    4  A    between atoms: C13_14  and  C14_15 
REMARK    5  A    between atoms: C14_15  and  C15_16 
REMARK    6  A    between atoms: C17_19  and  O3_20 
ROOT
HETATM    1  C4  UNL     1      26.316  -0.867  53.362  1.00  0.00     0.037 C 
HETATM    2  C5  UNL     1      25.548   0.116  53.026  1.00  0.00     0.075 C 
HETATM    3  C6  UNL     1      26.095   1.225  52.146  1.00  0.00     0.034 C 
HETATM    4  C7  UNL     1      25.424   2.088  51.299  1.00  0.00    -0.016 C 
HETATM    5  C8  UNL     1      24.011   2.107  51.157  1.00  0.00     0.047 C 
HETATM    6  C9  UNL     1      23.500   2.320  52.630  1.00  0.00     0.076 C 
HETATM    7  C10 UNL     1      23.160   0.829  52.856  1.00  0.00     0.057 C 
HETATM    8  C11 UNL     1      22.020   0.284  52.436  1.00  0.00     0.069 C 
HETATM    9  C12 UNL     1      21.283   0.841  51.258  1.00  0.00     0.069 C 
HETATM   10  C16 UNL     1      21.731   1.869  50.492  1.00  0.00     0.042 C 
HETATM   11  C17 UNL     1      23.037   2.650  50.333  1.00  0.00     0.151 C 
HETATM   12  O4  UNL     1      24.168   0.084  53.534  1.00  0.00    -0.315 OA
ENDROOT
BRANCH   9  13
HETATM   13  O1  UNL     1      20.147   0.091  51.187  1.00  0.00    -0.351 OA
BRANCH  13  14
HETATM   14  C13 UNL     1      19.349   0.014  52.379  1.00  0.00     0.182 C 
BRANCH  14  15
HETATM   15  C14 UNL     1      17.986  -0.554  52.067  1.00  0.00     0.096 C 
BRANCH  15  16
HETATM   16  C15 UNL     1      17.503  -1.271  53.287  1.00  0.00     0.233 C 
HETATM   17  O2  UNL     1      18.154  -2.258  53.614  1.00  0.00    -0.307 OA
ENDBRANCH  15  16
ENDBRANCH  14  15
ENDBRANCH  13  14
ENDBRANCH   9  13
BRANCH  11  18
HETATM   18  O3  UNL     1      23.318   2.707  48.963  1.00  0.00    -0.391 OA
HETATM   19  H20 UNL     1      23.508   3.665  48.734  1.00  0.00     0.210 HD
ENDBRANCH  11  18
BRANCH   1  20
HETATM   20  C3  UNL     1      27.685  -0.996  52.955  1.00  0.00    -0.002 C 
HETATM   21  C2  UNL     1      28.665  -0.652  53.796  1.00  0.00    -0.031 C 
HETATM   22  C1  UNL     1      30.106  -0.717  53.552  1.00  0.00     0.036 C 
ENDBRANCH   1  20
TORSDOF 6
ENDMDL
MODEL 4
REMARK VINA RESULT:      -6.9      6.952      8.725
REMARK  6 active torsions:
REMARK  status: ('A' for Active; 'I' for Inactive)
REMARK    1  A    between atoms: C3_3  and  C4_4 
REMARK    2  A    between atoms: C12_12  and  O1_13 
REMARK    3  A    between atoms: O1_13  and  C13_14 
REMARK    4  A    between atoms: C13_14  and  C14_15 
REMARK    5  A    between atoms: C14_15  and  C15_16 
REMARK    6  A    between atoms: C17_19  and  O3_20 
ROOT
HETATM    1  C4  UNL     1      26.650   3.583  49.514  1.00  0.00     0.037 C 
HETATM    2  C5  UNL     1      26.670   4.838  49.210  1.00  0.00     0.075 C 
HETATM    3  C6  UNL     1      25.667   5.779  49.853  1.00  0.00     0.034 C 
HETATM    4  C7  UNL     1      25.751   7.142  50.068  1.00  0.00    -0.016 C 
HETATM    5  C8  UNL     1      26.846   7.938  49.637  1.00  0.00     0.047 C 
HETATM    6  C9  UNL     1      26.921   7.648  48.092  1.00  0.00     0.076 C 
HETATM    7  C10 UNL     1      28.085   6.640  48.215  1.00  0.00     0.057 C 
HETATM    8  C11 UNL     1      29.357   7.024  48.302  1.00  0.00     0.069 C 
HETATM    9  C12 UNL     1      29.726   8.358  48.873  1.00  0.00     0.069 C 
HETATM   10  C16 UNL     1      28.835   9.235  49.403  1.00  0.00     0.042 C 
HETATM   11  C17 UNL     1      27.362   9.213  49.812  1.00  0.00     0.151 C 
HETATM   12  O4  UNL     1      27.688   5.271  48.242  1.00  0.00    -0.315 OA
ENDROOT
BRANCH   9  13
HETATM   13  O1  UNL     1      31.079   8.426  48.721  1.00  0.00    -0.351 OA
BRANCH  13  14
HETATM   14  C13 UNL     1      31.844   7.329  49.247  1.00  0.00     0.182 C 
BRANCH  14  15
HETATM   15  C14 UNL     1      33.231   7.318  48.652  1.00  0.00     0.096 C 
BRANCH  15  16
HETATM   16  C15 UNL     1      33.728   5.908  48.687  1.00  0.00     0.233 C 
HETATM   17  O2  UNL     1      34.894   5.768  49.042  1.00  0.00    -0.307 OA
ENDBRANCH  15  16
ENDBRANCH  14  15
ENDBRANCH  13  14
ENDBRANCH   9  13
BRANCH  11  18
HETATM   18  O3  UNL     1      27.283   9.763  51.096  1.00  0.00    -0.391 OA
HETATM   19  H20 UNL     1      27.584  10.718  51.034  1.00  0.00     0.210 HD
ENDBRANCH  11  18
BRANCH   1  20
HETATM   20  C3  UNL     1      25.727   2.992  50.439  1.00  0.00    -0.002 C 
HETATM   21  C2  UNL     1      26.172   2.156  51.382  1.00  0.00    -0.031 C 
HETATM   22  C1  UNL     1      25.381   1.467  52.401  1.00  0.00     0.036 C 
ENDBRANCH   1  20
TORSDOF 6
ENDMDL
MODEL 5
REMARK VINA RESULT:      -6.8      7.472      9.014
REMARK  6 active torsions:
REMARK  status: ('A' for Active; 'I' for Inactive)
REMARK    1  A    between atoms: C3_3  and  C4_4 
REMARK    2  A    between atoms: C12_12  and  O1_13 
REMARK    3  A    between atoms: O1_13  and  C13_14 
REMARK    4  A    between atoms: C13_14  and  C14_15 
REMARK    5  A    between atoms: C14_15  and  C15_16 
REMARK    6  A    between atoms: C17_19  and  O3_20 
ROOT
HETATM    1  C4  UNL     1      26.737   3.873  49.317  1.00  0.00     0.037 C 
HETATM    2  C5  UNL     1      27.327   4.918  48.836  1.00  0.00     0.075 C 
HETATM    3  C6  UNL     1      26.643   6.270  48.928  1.00  0.00     0.034 C 
HETATM    4  C7  UNL     1      27.196   7.538  48.932  1.00  0.00    -0.016 C 
HETATM    5  C8  UNL     1      28.586   7.787  48.782  1.00  0.00     0.047 C 
HETATM    6  C9  UNL     1      28.941   7.067  47.427  1.00  0.00     0.076 C 
HETATM    7  C10 UNL     1      29.541   5.817  48.110  1.00  0.00     0.057 C 
HETATM    8  C11 UNL     1      30.790   5.782  48.567  1.00  0.00     0.069 C 
HETATM    9  C12 UNL     1      31.492   7.032  49.001  1.00  0.00     0.069 C 
HETATM   10  C16 UNL     1      30.911   8.260  49.039  1.00  0.00     0.042 C 
HETATM   11  C17 UNL     1      29.497   8.825  48.911  1.00  0.00     0.151 C 
HETATM   12  O4  UNL     1      28.646   4.712  48.223  1.00  0.00    -0.315 OA
ENDROOT
BRANCH   9  13
HETATM   13  O1  UNL     1      32.751   6.619  49.317  1.00  0.00    -0.351 OA
BRANCH  13  14
HETATM   14  C13 UNL     1      33.691   6.528  48.234  1.00  0.00     0.182 C 
BRANCH  14  15
HETATM   15  C14 UNL     1      34.738   5.482  48.528  1.00  0.00     0.096 C 
BRANCH  15  16
HETATM   16  C15 UNL     1      34.330   4.224  47.829  1.00  0.00     0.233 C 
HETATM   17  O2  UNL     1      35.106   3.281  47.942  1.00  0.00    -0.307 OA
ENDBRANCH  15  16
ENDBRANCH  14  15
ENDBRANCH  13  14
ENDBRANCH   9  13
BRANCH  11  18
HETATM   18  O3  UNL     1      29.308   9.709  49.979  1.00  0.00    -0.391 OA
HETATM   19  H20 UNL     1      29.408  10.641  49.621  1.00  0.00     0.210 HD
ENDBRANCH  11  18
BRANCH   1  20
HETATM   20  C3  UNL     1      25.451   3.893  49.950  1.00  0.00    -0.002 C 
HETATM   21  C2  UNL     1      24.408   3.301  49.358  1.00  0.00    -0.031 C 
HETATM   22  C1  UNL     1      23.035   3.223  49.855  1.00  0.00     0.036 C 
ENDBRANCH   1  20
TORSDOF 6
ENDMDL
MODEL 6
REMARK VINA RESULT:      -6.7      2.962      7.848
REMARK  6 active torsions:
REMARK  status: ('A' for Active; 'I' for Inactive)
REMARK    1  A    between atoms: C3_3  and  C4_4 
REMARK    2  A    between atoms: C12_12  and  O1_13 
REMARK    3  A    between atoms: O1_13  and  C13_14 
REMARK    4  A    between atoms: C13_14  and  C14_15 
REMARK    5  A    between atoms: C14_15  and  C15_16 
REMARK    6  A    between atoms: C17_19  and  O3_20 
ROOT
HETATM    1  C4  UNL     1      26.164   1.947  52.895  1.00  0.00     0.037 C 
HETATM    2  C5  UNL     1      25.040   1.353  52.668  1.00  0.00     0.075 C 
HETATM    3  C6  UNL     1      24.756   0.014  53.324  1.00  0.00     0.034 C 
HETATM    4  C7  UNL     1      23.545  -0.580  53.625  1.00  0.00    -0.016 C 
HETATM    5  C8  UNL     1      22.288  -0.011  53.288  1.00  0.00     0.047 C 
HETATM    6  C9  UNL     1      22.391   0.206  51.732  1.00  0.00     0.076 C 
HETATM    7  C10 UNL     1      22.710   1.714  51.842  1.00  0.00     0.057 C 
HETATM    8  C11 UNL     1      21.763   2.635  52.005  1.00  0.00     0.069 C 
HETATM    9  C12 UNL     1      20.463   2.301  52.669  1.00  0.00     0.069 C 
HETATM   10  C16 UNL     1      20.172   1.091  53.214  1.00  0.00     0.042 C 
HETATM   11  C17 UNL     1      20.939  -0.185  53.560  1.00  0.00     0.151 C 
HETATM   12  O4  UNL     1      24.097   2.036  51.771  1.00  0.00    -0.315 OA
ENDROOT
BRANCH   9  13
HETATM   13  O1  UNL     1      19.734   3.448  52.577  1.00  0.00    -0.351 OA
BRANCH  13  14
HETATM   14  C13 UNL     1      19.005   3.654  51.356  1.00  0.00     0.182 C 
BRANCH  14  15
HETATM   15  C14 UNL     1      17.634   3.031  51.447  1.00  0.00     0.096 C 
BRANCH  15  16
HETATM   16  C15 UNL     1      16.641   4.138  51.601  1.00  0.00     0.233 C 
HETATM   17  O2  UNL     1      16.284   4.372  52.751  1.00  0.00    -0.307 OA
ENDBRANCH  15  16
ENDBRANCH  14  15
ENDBRANCH  13  14
ENDBRANCH   9  13
BRANCH  11  18
HETATM   18  O3  UNL     1      20.592  -0.532  54.871  1.00  0.00    -0.391 OA
HETATM   19  H20 UNL     1      19.965   0.172  55.213  1.00  0.00     0.210 HD
ENDBRANCH  11  18
BRANCH   1  20
HETATM   20  C3  UNL     1      27.195   1.426  53.743  1.00  0.00    -0.002 C 
HETATM   21  C2  UNL     1      28.229   0.768  53.209  1.00  0.00    -0.031 C 
HETATM   22  C1  UNL     1      29.363   0.174  53.916  1.00  0.00     0.036 C 
ENDBRANCH   1  20
TORSDOF 6
ENDMDL
MODEL 7
REMARK VINA RESULT:      -6.6      3.386      7.097
REMARK  6 active torsions:
REMARK  status: ('A' for Active; 'I' for Inactive)
REMARK    1  A    between atoms: C3_3  and  C4_4 
REMARK    2  A    between atoms: C12_12  and  O1_13 
REMARK    3  A    between atoms: O1_13  and  C13_14 
REMARK    4  A    between atoms: C13_14  and  C14_15 
REMARK    5  A    between atoms: C14_15  and  C15_16 
REMARK    6  A    between atoms: C17_19  and  O3_20 
ROOT
HETATM    1  C4  UNL     1      26.680   3.906  49.565  1.00  0.00     0.037 C 
HETATM    2  C5  UNL     1      25.745   4.006  50.452  1.00  0.00     0.075 C 
HETATM    3  C6  UNL     1      24.943   5.292  50.550  1.00  0.00     0.034 C 
HETATM    4  C7  UNL     1      23.666   5.497  51.040  1.00  0.00    -0.016 C 
HETATM    5  C8  UNL     1      22.875   4.471  51.621  1.00  0.00     0.047 C 
HETATM    6  C9  UNL     1      23.791   3.911  52.772  1.00  0.00     0.076 C 
HETATM    7  C10 UNL     1      24.262   2.681  51.963  1.00  0.00     0.057 C 
HETATM    8  C11 UNL     1      23.538   1.569  51.867  1.00  0.00     0.069 C 
HETATM    9  C12 UNL     1      22.046   1.602  51.993  1.00  0.00     0.069 C 
HETATM   10  C16 UNL     1      21.316   2.739  52.137  1.00  0.00     0.042 C 
HETATM   11  C17 UNL     1      21.569   4.243  52.028  1.00  0.00     0.151 C 
HETATM   12  O4  UNL     1      25.523   2.839  51.317  1.00  0.00    -0.315 OA
ENDROOT
BRANCH   9  13
HETATM   13  O1  UNL     1      21.674   0.293  51.928  1.00  0.00    -0.351 OA
BRANCH  13  14
HETATM   14  C13 UNL     1      20.700  -0.150  52.888  1.00  0.00     0.182 C 
BRANCH  14  15
HETATM   15  C14 UNL     1      21.299  -0.185  54.273  1.00  0.00     0.096 C 
BRANCH  15  16
HETATM   16  C15 UNL     1      22.176  -1.393  54.357  1.00  0.00     0.233 C 
HETATM   17  O2  UNL     1      22.298  -1.881  55.476  1.00  0.00    -0.307 OA
ENDBRANCH  15  16
ENDBRANCH  14  15
ENDBRANCH  13  14
ENDBRANCH   9  13
BRANCH  11  18
HETATM   18  O3  UNL     1      20.550   4.775  51.230  1.00  0.00    -0.391 OA
HETATM   19  H20 UNL     1      19.916   5.262  51.836  1.00  0.00     0.210 HD
ENDBRANCH  11  18
BRANCH   1  20
HETATM   20  C3  UNL     1      27.028   4.945  48.640  1.00  0.00    -0.002 C 
HETATM   21  C2  UNL     1      28.293   5.369  48.560  1.00  0.00    -0.031 C 
HETATM   22  C1  UNL     1      28.825   6.410  47.681  1.00  0.00     0.036 C 
ENDBRANCH   1  20
TORSDOF 6
ENDMDL
MODEL 8
REMARK VINA RESULT:      -6.4      2.277      4.038
REMARK  6 active torsions:
REMARK  status: ('A' for Active; 'I' for Inactive)
REMARK    1  A    between atoms: C3_3  and  C4_4 
REMARK    2  A    between atoms: C12_12  and  O1_13 
REMARK    3  A    between atoms: O1_13  and  C13_14 
REMARK    4  A    between atoms: C13_14  and  C14_15 
REMARK    5  A    between atoms: C14_15  and  C15_16 
REMARK    6  A    between atoms: C17_19  and  O3_20 
ROOT
HETATM    1  C4  UNL     1      18.494   0.577  50.264  1.00  0.00     0.037 C 
HETATM    2  C5  UNL     1      19.120   0.574  51.395  1.00  0.00     0.075 C 
HETATM    3  C6  UNL     1      18.618  -0.306  52.525  1.00  0.00     0.034 C 
HETATM    4  C7  UNL     1      19.308  -0.836  53.600  1.00  0.00    -0.016 C 
HETATM    5  C8  UNL     1      20.678  -0.571  53.860  1.00  0.00     0.047 C 
HETATM    6  C9  UNL     1      20.739   1.001  53.925  1.00  0.00     0.076 C 
HETATM    7  C10 UNL     1      21.288   1.159  52.489  1.00  0.00     0.057 C 
HETATM    8  C11 UNL     1      22.580   1.025  52.199  1.00  0.00     0.069 C 
HETATM    9  C12 UNL     1      23.477   0.167  53.035  1.00  0.00     0.069 C 
HETATM   10  C16 UNL     1      23.055  -0.586  54.084  1.00  0.00     0.042 C 
HETATM   11  C17 UNL     1      21.711  -1.026  54.666  1.00  0.00     0.151 C 
HETATM   12  O4  UNL     1      20.300   1.445  51.502  1.00  0.00    -0.315 OA
ENDROOT
BRANCH   9  13
HETATM   13  O1  UNL     1      24.714   0.343  52.491  1.00  0.00    -0.351 OA
BRANCH  13  14
HETATM   14  C13 UNL     1      25.683   1.030  53.300  1.00  0.00     0.182 C 
BRANCH  14  15
HETATM   15  C14 UNL     1      27.069   0.496  53.033  1.00  0.00     0.096 C 
BRANCH  15  16
HETATM   16  C15 UNL     1      27.630   0.019  54.334  1.00  0.00     0.233 C 
HETATM   17  O2  UNL     1      26.804  -0.247  55.201  1.00  0.00    -0.307 OA
ENDBRANCH  15  16
ENDBRANCH  14  15
ENDBRANCH  13  14
ENDBRANCH   9  13
BRANCH  11  18
HETATM   18  O3  UNL     1      21.789  -2.406  54.885  1.00  0.00    -0.391 OA
HETATM   19  H20 UNL     1      21.065  -2.839  54.342  1.00  0.00     0.210 HD
ENDBRANCH  11  18
BRANCH   1  20
HETATM   20  C3  UNL     1      17.329  -0.211  49.986  1.00  0.00    -0.002 C 
HETATM   21  C2  UNL     1      16.157   0.390  49.759  1.00  0.00    -0.031 C 
HETATM   22  C1  UNL     1      14.876  -0.250  49.461  1.00  0.00     0.036 C 
ENDBRANCH   1  20
TORSDOF 6
ENDMDL
MODEL 9
REMARK VINA RESULT:      -6.3      4.352      6.018
REMARK  6 active torsions:
REMARK  status: ('A' for Active; 'I' for Inactive)
REMARK    1  A    between atoms: C3_3  and  C4_4 
REMARK    2  A    between atoms: C12_12  and  O1_13 
REMARK    3  A    between atoms: O1_13  and  C13_14 
REMARK    4  A    between atoms: C13_14  and  C14_15 
REMARK    5  A    between atoms: C14_15  and  C15_16 
REMARK    6  A    between atoms: C17_19  and  O3_20 
ROOT
HETATM    1  C4  UNL     1      23.353   1.100  52.071  1.00  0.00     0.037 C 
HETATM    2  C5  UNL     1      23.265   2.248  51.484  1.00  0.00     0.075 C 
HETATM    3  C6  UNL     1      22.486   3.369  52.148  1.00  0.00     0.034 C 
HETATM    4  C7  UNL     1      22.613   4.737  51.998  1.00  0.00    -0.016 C 
HETATM    5  C8  UNL     1      23.519   5.346  51.089  1.00  0.00     0.047 C 
HETATM    6  C9  UNL     1      23.134   4.702  49.705  1.00  0.00     0.076 C 
HETATM    7  C10 UNL     1      24.296   3.683  49.719  1.00  0.00     0.057 C 
HETATM    8  C11 UNL     1      25.531   4.001  49.337  1.00  0.00     0.069 C 
HETATM    9  C12 UNL     1      26.035   5.407  49.439  1.00  0.00     0.069 C 
HETATM   10  C16 UNL     1      25.331   6.435  49.980  1.00  0.00     0.042 C 
HETATM   11  C17 UNL     1      24.047   6.594  50.795  1.00  0.00     0.151 C 
HETATM   12  O4  UNL     1      23.944   2.383  50.187  1.00  0.00    -0.315 OA
ENDROOT
BRANCH   9  13
HETATM   13  O1  UNL     1      27.280   5.359  48.887  1.00  0.00    -0.351 OA
BRANCH  13  14
HETATM   14  C13 UNL     1      27.699   6.511  48.136  1.00  0.00     0.182 C 
BRANCH  14  15
HETATM   15  C14 UNL     1      29.200   6.523  47.979  1.00  0.00     0.096 C 
BRANCH  15  16
HETATM   16  C15 UNL     1      29.700   7.831  48.502  1.00  0.00     0.233 C 
HETATM   17  O2  UNL     1      28.908   8.463  49.193  1.00  0.00    -0.307 OA
ENDBRANCH  15  16
ENDBRANCH  14  15
ENDBRANCH  13  14
ENDBRANCH   9  13
BRANCH  11  18
HETATM   18  O3  UNL     1      24.346   7.431  51.876  1.00  0.00    -0.391 OA
HETATM   19  H20 UNL     1      24.838   6.881  52.556  1.00  0.00     0.210 HD
ENDBRANCH  11  18
BRANCH   1  20
HETATM   20  C3  UNL     1      22.756   0.795  53.338  1.00  0.00    -0.002 C 
HETATM   21  C2  UNL     1      22.587  -0.479  53.706  1.00  0.00    -0.031 C 
HETATM   22  C1  UNL     1      22.000  -0.972  54.952  1.00  0.00     0.036 C 
ENDBRANCH   1  20
TORSDOF 6
ENDMDL
