MODEL 1
REMARK VINA RESULT:      -7.8      0.000      0.000
REMARK  7 active torsions:
REMARK  status: ('A' for Active; 'I' for Inactive)
REMARK    1  A    between atoms: N1_1  and  C1_2 
REMARK    2  A    between atoms: C5_7  and  C6_8 
REMARK    3  A    between atoms: C6_8  and  O1_9 
REMARK    4  A    between atoms: C6_8  and  C7_10 
REMARK    5  A    between atoms: C8_11  and  C9_12 
REMARK    6  A    between atoms: C10_13  and  C11_14 
REMARK    7  A    between atoms: C16_22  and  C17_23 
ROOT
HETATM    1  C1  UNL     1      25.384   1.174  51.978  1.00  0.00     0.130 A 
HETATM    2  N2  UNL     1      24.192   1.635  51.571  1.00  0.00    -0.235 NA
HETATM    3  C2  UNL     1      23.022   1.151  51.981  1.00  0.00     0.049 A 
HETATM    4  C3  UNL     1      22.956   0.088  52.904  1.00  0.00    -0.027 A 
HETATM    5  C4  UNL     1      24.207  -0.392  53.329  1.00  0.00     0.023 A 
HETATM    6  C5  UNL     1      25.422   0.132  52.883  1.00  0.00     0.020 A 
HETATM    7  C12 UNL     1      21.878  -0.693  53.581  1.00  0.00     0.089 C 
HETATM    8  C13 UNL     1      20.652   0.128  53.510  1.00  0.00     0.116 C 
HETATM    9  N3  UNL     1      20.034   0.006  52.404  1.00  0.00    -0.196 NA
HETATM   10  N4  UNL     1      18.876   0.693  52.135  1.00  0.00    -0.315 N 
HETATM   11  C14 UNL     1      19.436   0.634  50.780  1.00  0.00     0.142 C 
HETATM   12  C15 UNL     1      20.931   0.487  50.869  1.00  0.00     0.033 C 
HETATM   13  C16 UNL     1      21.651   1.603  51.572  1.00  0.00     0.054 C 
HETATM   14  H15 UNL     1      18.258   0.883  52.951  1.00  0.00     0.182 HD
ENDROOT
BRANCH   6  15
HETATM   15  C6  UNL     1      26.736  -0.382  53.339  1.00  0.00     0.177 C 
BRANCH  15  16
HETATM   16  O1  UNL     1      26.588  -1.761  53.473  1.00  0.00    -0.387 OA
HETATM   17  H5  UNL     1      27.492  -2.163  53.636  1.00  0.00     0.210 HD
ENDBRANCH  15  16
BRANCH  15  18
HETATM   18  C7  UNL     1      27.117   0.186  54.660  1.00  0.00     0.009 C 
HETATM   19  C8  UNL     1      28.343   0.657  54.824  1.00  0.00    -0.001 C 
BRANCH  19  20
HETATM   20  C9  UNL     1      29.308   0.626  53.741  1.00  0.00    -0.002 C 
HETATM   21  C10 UNL     1      30.054  -0.411  53.407  1.00  0.00     0.004 C 
BRANCH  21  22
HETATM   22  C11 UNL     1      30.204  -1.788  53.920  1.00  0.00     0.249 C 
HETATM   23  F1  UNL     1      29.459  -2.696  53.201  1.00  0.00    -0.251 F 
ENDBRANCH  21  22
ENDBRANCH  19  20
ENDBRANCH  15  18
ENDBRANCH   6  15
BRANCH   1  24
HETATM   24  N1  UNL     1      26.557   1.798  51.445  1.00  0.00    -0.383 N 
HETATM   25  H1  UNL     1      27.522   1.490  51.764  1.00  0.00     0.157 HD
HETATM   26  H2  UNL     1      26.466   2.575  50.724  1.00  0.00     0.157 HD
ENDBRANCH   1  24
BRANCH  13  27
HETATM   27  C17 UNL     1      21.795   2.702  50.500  1.00  0.00     0.125 C 
HETATM   28 CL1  UNL     1      22.145   1.991  48.924  1.00  0.00    -0.130 Cl
ENDBRANCH  13  27
TORSDOF 7
ENDMDL
MODEL 2
REMARK VINA RESULT:      -7.5      3.973      6.787
REMARK  7 active torsions:
REMARK  status: ('A' for Active; 'I' for Inactive)
REMARK    1  A    between atoms: N1_1  and  C1_2 
REMARK    2  A    between atoms: C5_7  and  C6_8 
REMARK    3  A    between atoms: C6_8  and  O1_9 
REMARK    4  A    between atoms: C6_8  and  C7_10 
REMARK    5  A    between atoms: C8_11  and  C9_12 
REMARK    6  A    between atoms: C10_13  and  C11_14 
REMARK    7  A    between atoms: C16_22  and  C17_23 
ROOT
HETATM    1  C1  UNL     1      26.302   3.660  50.271  1.00  0.00     0.130 A 
HETATM    2  N2  UNL     1      26.869   2.760  51.088  1.00  0.00    -0.235 NA
HETATM    3  C2  UNL     1      26.190   1.933  51.878  1.00  0.00     0.049 A 
HETATM    4  C3  UNL     1      24.781   1.946  51.908  1.00  0.00    -0.027 A 
HETATM    5  C4  UNL     1      24.190   2.890  51.051  1.00  0.00     0.023 A 
HETATM    6  C5  UNL     1      24.925   3.748  50.231  1.00  0.00     0.020 A 
HETATM    7  C12 UNL     1      23.706   1.199  52.627  1.00  0.00     0.089 C 
HETATM    8  C13 UNL     1      24.312  -0.060  53.107  1.00  0.00     0.116 C 
HETATM    9  N3  UNL     1      24.941   0.078  54.205  1.00  0.00    -0.196 NA
HETATM   10  N4  UNL     1      25.584  -0.972  54.814  1.00  0.00    -0.315 N 
HETATM   11  C14 UNL     1      26.473   0.120  55.225  1.00  0.00     0.142 C 
HETATM   12  C15 UNL     1      26.363   1.247  54.234  1.00  0.00     0.033 C 
HETATM   13  C16 UNL     1      26.745   0.906  52.821  1.00  0.00     0.054 C 
HETATM   14  H15 UNL     1      25.152  -1.910  54.683  1.00  0.00     0.182 HD
ENDROOT
BRANCH   6  15
HETATM   15  C6  UNL     1      24.291   4.741  49.329  1.00  0.00     0.177 C 
BRANCH  15  16
HETATM   16  O1  UNL     1      24.907   5.961  49.601  1.00  0.00    -0.387 OA
HETATM   17  H5  UNL     1      25.855   5.915  49.280  1.00  0.00     0.210 HD
ENDBRANCH  15  16
BRANCH  15  18
HETATM   18  C7  UNL     1      22.834   4.873  49.601  1.00  0.00     0.009 C 
HETATM   19  C8  UNL     1      21.981   4.180  48.864  1.00  0.00    -0.001 C 
BRANCH  19  20
HETATM   20  C9  UNL     1      22.446   3.304  47.806  1.00  0.00    -0.002 C 
HETATM   21  C10 UNL     1      22.227   2.003  47.735  1.00  0.00     0.004 C 
BRANCH  21  22
HETATM   22  C11 UNL     1      21.515   1.024  48.582  1.00  0.00     0.249 C 
HETATM   23  F1  UNL     1      22.074   0.917  49.837  1.00  0.00    -0.251 F 
ENDBRANCH  21  22
ENDBRANCH  19  20
ENDBRANCH  15  18
ENDBRANCH   6  15
BRANCH   1  24
HETATM   24  N1  UNL     1      27.168   4.482  49.481  1.00  0.00    -0.383 N 
HETATM   25  H1  UNL     1      27.360   4.241  48.466  1.00  0.00     0.157 HD
HETATM   26  H2  UNL     1      27.623   5.343  49.910  1.00  0.00     0.157 HD
ENDBRANCH   1  24
BRANCH  13  27
HETATM   27  C17 UNL     1      28.284   1.005  52.805  1.00  0.00     0.125 C 
HETATM   28 CL1  UNL     1      28.829   2.381  53.764  1.00  0.00    -0.130 Cl
ENDBRANCH  13  27
TORSDOF 7
ENDMDL
MODEL 3
REMARK VINA RESULT:      -7.2      1.980      2.792
REMARK  7 active torsions:
REMARK  status: ('A' for Active; 'I' for Inactive)
REMARK    1  A    between atoms: N1_1  and  C1_2 
REMARK    2  A    between atoms: C5_7  and  C6_8 
REMARK    3  A    between atoms: C6_8  and  O1_9 
REMARK    4  A    between atoms: C6_8  and  C7_10 
REMARK    5  A    between atoms: C8_11  and  C9_12 
REMARK    6  A    between atoms: C10_13  and  C11_14 
REMARK    7  A    between atoms: C16_22  and  C17_23 
ROOT
HETATM    1  C1  UNL     1      24.196  -0.171  53.723  1.00  0.00     0.130 A 
HETATM    2  N2  UNL     1      22.975   0.290  53.412  1.00  0.00    -0.235 NA
HETATM    3  C2  UNL     1      22.728   1.153  52.430  1.00  0.00     0.049 A 
HETATM    4  C3  UNL     1      23.768   1.654  51.621  1.00  0.00    -0.027 A 
HETATM    5  C4  UNL     1      25.045   1.168  51.949  1.00  0.00     0.023 A 
HETATM    6  C5  UNL     1      25.279   0.263  52.985  1.00  0.00     0.020 A 
HETATM    7  C12 UNL     1      23.884   2.592  50.465  1.00  0.00     0.089 C 
HETATM    8  C13 UNL     1      22.541   2.680  49.854  1.00  0.00     0.116 C 
HETATM    9  N3  UNL     1      21.780   3.513  50.444  1.00  0.00    -0.196 NA
HETATM   10  N4  UNL     1      20.488   3.736  50.036  1.00  0.00    -0.315 N 
HETATM   11  C14 UNL     1      20.323   3.959  51.476  1.00  0.00     0.142 C 
HETATM   12  C15 UNL     1      21.396   3.210  52.218  1.00  0.00     0.033 C 
HETATM   13  C16 UNL     1      21.399   1.720  52.023  1.00  0.00     0.054 C 
HETATM   14  H15 UNL     1      20.309   3.642  49.015  1.00  0.00     0.182 HD
ENDROOT
BRANCH   6  15
HETATM   15  C6  UNL     1      26.632  -0.244  53.323  1.00  0.00     0.177 C 
BRANCH  15  16
HETATM   16  O1  UNL     1      26.534  -1.634  53.336  1.00  0.00    -0.387 OA
HETATM   17  H5  UNL     1      26.118  -1.913  54.205  1.00  0.00     0.210 HD
ENDBRANCH  15  16
BRANCH  15  18
HETATM   18  C7  UNL     1      27.068   0.216  54.669  1.00  0.00     0.009 C 
HETATM   19  C8  UNL     1      28.323   0.599  54.838  1.00  0.00    -0.001 C 
BRANCH  19  20
HETATM   20  C9  UNL     1      29.267   0.577  53.738  1.00  0.00    -0.002 C 
HETATM   21  C10 UNL     1      30.033  -0.447  53.404  1.00  0.00     0.004 C 
BRANCH  21  22
HETATM   22  C11 UNL     1      30.227  -1.812  53.933  1.00  0.00     0.249 C 
HETATM   23  F1  UNL     1      29.393  -2.728  53.330  1.00  0.00    -0.251 F 
ENDBRANCH  21  22
ENDBRANCH  19  20
ENDBRANCH  15  18
ENDBRANCH   6  15
BRANCH   1  24
HETATM   24  N1  UNL     1      24.302  -1.097  54.810  1.00  0.00    -0.383 N 
HETATM   25  H1  UNL     1      23.828  -2.045  54.758  1.00  0.00     0.157 HD
HETATM   26  H2  UNL     1      24.860  -0.837  55.678  1.00  0.00     0.157 HD
ENDBRANCH   1  24
BRANCH  13  27
HETATM   27  C17 UNL     1      20.324   1.202  53.000  1.00  0.00     0.125 C 
HETATM   28 CL1  UNL     1      19.323  -0.029  52.227  1.00  0.00    -0.130 Cl
ENDBRANCH  13  27
TORSDOF 7
ENDMDL
MODEL 4
REMARK VINA RESULT:      -7.0      3.675      7.040
REMARK  7 active torsions:
REMARK  status: ('A' for Active; 'I' for Inactive)
REMARK    1  A    between atoms: N1_1  and  C1_2 
REMARK    2  A    between atoms: C5_7  and  C6_8 
REMARK    3  A    between atoms: C6_8  and  O1_9 
REMARK    4  A    between atoms: C6_8  and  C7_10 
REMARK    5  A    between atoms: C8_11  and  C9_12 
REMARK    6  A    between atoms: C10_13  and  C11_14 
REMARK    7  A    between atoms: C16_22  and  C17_23 
ROOT
HETATM    1  C1  UNL     1      21.896   1.329  50.346  1.00  0.00     0.130 A 
HETATM    2  N2  UNL     1      22.276   0.733  51.486  1.00  0.00    -0.235 NA
HETATM    3  C2  UNL     1      23.407   1.006  52.133  1.00  0.00     0.049 A 
HETATM    4  C3  UNL     1      24.309   1.974  51.647  1.00  0.00    -0.027 A 
HETATM    5  C4  UNL     1      23.907   2.596  50.453  1.00  0.00     0.023 A 
HETATM    6  C5  UNL     1      22.715   2.292  49.792  1.00  0.00     0.020 A 
HETATM    7  C12 UNL     1      25.622   2.541  52.075  1.00  0.00     0.089 C 
HETATM    8  C13 UNL     1      25.759   2.252  53.517  1.00  0.00     0.116 C 
HETATM    9  N3  UNL     1      26.199   1.080  53.750  1.00  0.00    -0.196 NA
HETATM   10  N4  UNL     1      26.389   0.612  55.026  1.00  0.00    -0.315 N 
HETATM   11  C14 UNL     1      26.024  -0.646  54.365  1.00  0.00     0.142 C 
HETATM   12  C15 UNL     1      25.197  -0.342  53.146  1.00  0.00     0.033 C 
HETATM   13  C16 UNL     1      23.908   0.385  53.404  1.00  0.00     0.054 C 
HETATM   14  H15 UNL     1      26.666   1.321  55.736  1.00  0.00     0.182 HD
ENDROOT
BRANCH   6  15
HETATM   15  C6  UNL     1      22.300   2.955  48.532  1.00  0.00     0.177 C 
BRANCH  15  16
HETATM   16  O1  UNL     1      22.516   2.027  47.515  1.00  0.00    -0.387 OA
HETATM   17  H5  UNL     1      21.626   1.690  47.200  1.00  0.00     0.210 HD
ENDBRANCH  15  16
BRANCH  15  18
HETATM   18  C7  UNL     1      23.122   4.164  48.255  1.00  0.00     0.009 C 
HETATM   19  C8  UNL     1      22.605   5.357  48.499  1.00  0.00    -0.001 C 
BRANCH  19  20
HETATM   20  C9  UNL     1      21.262   5.498  49.028  1.00  0.00    -0.002 C 
HETATM   21  C10 UNL     1      20.943   5.546  50.309  1.00  0.00     0.004 C 
BRANCH  21  22
HETATM   22  C11 UNL     1      21.709   5.486  51.572  1.00  0.00     0.249 C 
HETATM   23  F1  UNL     1      21.602   4.258  52.187  1.00  0.00    -0.251 F 
ENDBRANCH  21  22
ENDBRANCH  19  20
ENDBRANCH  15  18
ENDBRANCH   6  15
BRANCH   1  24
HETATM   24  N1  UNL     1      20.649   0.926  49.768  1.00  0.00    -0.383 N 
HETATM   25  H1  UNL     1      19.968   0.329  50.320  1.00  0.00     0.157 HD
HETATM   26  H2  UNL     1      20.399   1.228  48.778  1.00  0.00     0.157 HD
ENDBRANCH   1  24
BRANCH  13  27
HETATM   27  C17 UNL     1      22.921  -0.722  53.831  1.00  0.00     0.125 C 
HETATM   28 CL1  UNL     1      21.552  -0.032  54.704  1.00  0.00    -0.130 Cl
ENDBRANCH  13  27
TORSDOF 7
ENDMDL
MODEL 5
REMARK VINA RESULT:      -7.0      2.539      4.256
REMARK  7 active torsions:
REMARK  status: ('A' for Active; 'I' for Inactive)
REMARK    1  A    between atoms: N1_1  and  C1_2 
REMARK    2  A    between atoms: C5_7  and  C6_8 
REMARK    3  A    between atoms: C6_8  and  O1_9 
REMARK    4  A    between atoms: C6_8  and  C7_10 
REMARK    5  A    between atoms: C8_11  and  C9_12 
REMARK    6  A    between atoms: C10_13  and  C11_14 
REMARK    7  A    between atoms: C16_22  and  C17_23 
ROOT
HETATM    1  C1  UNL     1      24.644   0.830  52.398  1.00  0.00     0.130 A 
HETATM    2  N2  UNL     1      23.916   1.798  51.820  1.00  0.00    -0.235 NA
HETATM    3  C2  UNL     1      24.425   2.767  51.063  1.00  0.00     0.049 A 
HETATM    4  C3  UNL     1      25.809   2.842  50.807  1.00  0.00    -0.027 A 
HETATM    5  C4  UNL     1      26.568   1.826  51.413  1.00  0.00     0.023 A 
HETATM    6  C5  UNL     1      26.011   0.820  52.204  1.00  0.00     0.020 A 
HETATM    7  C12 UNL     1      26.720   3.737  50.035  1.00  0.00     0.089 C 
HETATM    8  C13 UNL     1      25.881   4.450  49.049  1.00  0.00     0.116 C 
HETATM    9  N3  UNL     1      25.301   5.473  49.537  1.00  0.00    -0.196 NA
HETATM   10  N4  UNL     1      24.468   6.266  48.787  1.00  0.00    -0.315 N 
HETATM   11  C14 UNL     1      23.817   6.408  50.094  1.00  0.00     0.142 C 
HETATM   12  C15 UNL     1      24.139   5.207  50.940  1.00  0.00     0.033 C 
HETATM   13  C16 UNL     1      23.686   3.886  50.388  1.00  0.00     0.054 C 
HETATM   14  H15 UNL     1      24.704   6.349  47.777  1.00  0.00     0.182 HD
ENDROOT
BRANCH   6  15
HETATM   15  C6  UNL     1      26.822  -0.248  52.839  1.00  0.00     0.177 C 
BRANCH  15  16
HETATM   16  O1  UNL     1      26.132  -1.440  52.623  1.00  0.00    -0.387 OA
HETATM   17  H5  UNL     1      26.613  -1.961  51.915  1.00  0.00     0.210 HD
ENDBRANCH  15  16
BRANCH  15  18
HETATM   18  C7  UNL     1      26.954  -0.034  54.306  1.00  0.00     0.009 C 
HETATM   19  C8  UNL     1      28.142   0.275  54.801  1.00  0.00    -0.001 C 
BRANCH  19  20
HETATM   20  C9  UNL     1      29.301   0.407  53.940  1.00  0.00    -0.002 C 
HETATM   21  C10 UNL     1      30.057  -0.588  53.512  1.00  0.00     0.004 C 
BRANCH  21  22
HETATM   22  C11 UNL     1      30.046  -2.053  53.701  1.00  0.00     0.249 C 
HETATM   23  F1  UNL     1      28.997  -2.656  53.041  1.00  0.00    -0.251 F 
ENDBRANCH  21  22
ENDBRANCH  19  20
ENDBRANCH  15  18
ENDBRANCH   6  15
BRANCH   1  24
HETATM   24  N1  UNL     1      23.951  -0.144  53.186  1.00  0.00    -0.383 N 
HETATM   25  H1  UNL     1      22.959   0.037  53.514  1.00  0.00     0.157 HD
HETATM   26  H2  UNL     1      24.431  -1.057  53.446  1.00  0.00     0.157 HD
ENDBRANCH   1  24
BRANCH  13  27
HETATM   27  C17 UNL     1      22.196   3.796  50.780  1.00  0.00     0.125 C 
HETATM   28 CL1  UNL     1      21.927   4.516  52.368  1.00  0.00    -0.130 Cl
ENDBRANCH  13  27
TORSDOF 7
ENDMDL
MODEL 6
REMARK VINA RESULT:      -6.9      2.389      3.327
REMARK  7 active torsions:
REMARK  status: ('A' for Active; 'I' for Inactive)
REMARK    1  A    between atoms: N1_1  and  C1_2 
REMARK    2  A    between atoms: C5_7  and  C6_8 
REMARK    3  A    between atoms: C6_8  and  O1_9 
REMARK    4  A    between atoms: C6_8  and  C7_10 
REMARK    5  A    between atoms: C8_11  and  C9_12 
REMARK    6  A    between atoms: C10_13  and  C11_14 
REMARK    7  A    between atoms: C16_22  and  C17_23 
ROOT
HETATM    1  C1  UNL     1      22.967  -0.044  53.412  1.00  0.00     0.130 A 
HETATM    2  N2  UNL     1      21.676  -0.131  53.060  1.00  0.00    -0.235 NA
HETATM    3  C2  UNL     1      21.157   0.424  51.968  1.00  0.00     0.049 A 
HETATM    4  C3  UNL     1      21.960   1.165  51.076  1.00  0.00    -0.027 A 
HETATM    5  C4  UNL     1      23.312   1.254  51.447  1.00  0.00     0.023 A 
HETATM    6  C5  UNL     1      23.832   0.662  52.600  1.00  0.00     0.020 A 
HETATM    7  C12 UNL     1      21.755   1.903  49.795  1.00  0.00     0.089 C 
HETATM    8  C13 UNL     1      20.505   1.387  49.202  1.00  0.00     0.116 C 
HETATM    9  N3  UNL     1      19.462   1.941  49.679  1.00  0.00    -0.196 NA
HETATM   10  N4  UNL     1      18.199   1.595  49.266  1.00  0.00    -0.315 N 
HETATM   11  C14 UNL     1      17.907   1.939  50.662  1.00  0.00     0.142 C 
HETATM   12  C15 UNL     1      19.154   1.768  51.485  1.00  0.00     0.033 C 
HETATM   13  C16 UNL     1      19.730   0.380  51.507  1.00  0.00     0.054 C 
HETATM   14  H15 UNL     1      18.108   1.296  48.273  1.00  0.00     0.182 HD
ENDROOT
BRANCH   6  15
HETATM   15  C6  UNL     1      25.262   0.762  52.982  1.00  0.00     0.177 C 
BRANCH  15  16
HETATM   16  O1  UNL     1      25.656   2.063  52.676  1.00  0.00    -0.387 OA
HETATM   17  H5  UNL     1      26.346   2.023  51.950  1.00  0.00     0.210 HD
ENDBRANCH  15  16
BRANCH  15  18
HETATM   18  C7  UNL     1      26.104  -0.186  52.202  1.00  0.00     0.009 C 
HETATM   19  C8  UNL     1      27.116  -0.786  52.806  1.00  0.00    -0.001 C 
BRANCH  19  20
HETATM   20  C9  UNL     1      27.411  -0.535  54.203  1.00  0.00    -0.002 C 
HETATM   21  C10 UNL     1      28.440   0.157  54.658  1.00  0.00     0.004 C 
BRANCH  21  22
HETATM   22  C11 UNL     1      29.570   0.870  54.028  1.00  0.00     0.249 C 
HETATM   23  F1  UNL     1      30.369   0.027  53.286  1.00  0.00    -0.251 F 
ENDBRANCH  21  22
ENDBRANCH  19  20
ENDBRANCH  15  18
ENDBRANCH   6  15
BRANCH   1  24
HETATM   24  N1  UNL     1      23.375  -0.696  54.620  1.00  0.00    -0.383 N 
HETATM   25  H1  UNL     1      22.653  -1.016  55.328  1.00  0.00     0.157 HD
HETATM   26  H2  UNL     1      24.408  -0.864  54.812  1.00  0.00     0.157 HD
ENDBRANCH   1  24
BRANCH  13  27
HETATM   27  C17 UNL     1      18.895  -0.366  52.568  1.00  0.00     0.125 C 
HETATM   28 CL1  UNL     1      17.449  -1.068  51.841  1.00  0.00    -0.130 Cl
ENDBRANCH  13  27
TORSDOF 7
ENDMDL
MODEL 7
REMARK VINA RESULT:      -6.9      4.091      5.753
REMARK  7 active torsions:
REMARK  status: ('A' for Active; 'I' for Inactive)
REMARK    1  A    between atoms: N1_1  and  C1_2 
REMARK    2  A    between atoms: C5_7  and  C6_8 
REMARK    3  A    between atoms: C6_8  and  O1_9 
REMARK    4  A    between atoms: C6_8  and  C7_10 
REMARK    5  A    between atoms: C8_11  and  C9_12 
REMARK    6  A    between atoms: C10_13  and  C11_14 
REMARK    7  A    between atoms: C16_22  and  C17_23 
ROOT
HETATM    1  C1  UNL     1      25.326   2.831  51.568  1.00  0.00     0.130 A 
HETATM    2  N2  UNL     1      25.239   1.611  52.118  1.00  0.00    -0.235 NA
HETATM    3  C2  UNL     1      24.098   1.034  52.486  1.00  0.00     0.049 A 
HETATM    4  C3  UNL     1      22.862   1.689  52.313  1.00  0.00    -0.027 A 
HETATM    5  C4  UNL     1      22.956   2.967  51.737  1.00  0.00     0.023 A 
HETATM    6  C5  UNL     1      24.167   3.551  51.359  1.00  0.00     0.020 A 
HETATM    7  C12 UNL     1      21.426   1.380  52.583  1.00  0.00     0.089 C 
HETATM    8  C13 UNL     1      21.324  -0.089  52.706  1.00  0.00     0.116 C 
HETATM    9  N3  UNL     1      21.626  -0.513  53.868  1.00  0.00    -0.196 NA
HETATM   10  N4  UNL     1      21.604  -1.849  54.186  1.00  0.00    -0.315 N 
HETATM   11  C14 UNL     1      22.702  -1.417  55.057  1.00  0.00     0.142 C 
HETATM   12  C15 UNL     1      23.327  -0.174  54.485  1.00  0.00     0.033 C 
HETATM   13  C16 UNL     1      23.915  -0.318  53.110  1.00  0.00     0.054 C 
HETATM   14  H15 UNL     1      20.889  -2.424  53.693  1.00  0.00     0.182 HD
ENDROOT
BRANCH   6  15
HETATM   15  C6  UNL     1      24.254   4.902  50.751  1.00  0.00     0.177 C 
BRANCH  15  16
HETATM   16  O1  UNL     1      23.229   5.652  51.323  1.00  0.00    -0.387 OA
HETATM   17  H5  UNL     1      22.366   5.401  50.879  1.00  0.00     0.210 HD
ENDBRANCH  15  16
BRANCH  15  18
HETATM   18  C7  UNL     1      24.044   4.852  49.279  1.00  0.00     0.009 C 
HETATM   19  C8  UNL     1      24.714   5.694  48.509  1.00  0.00    -0.001 C 
BRANCH  19  20
HETATM   20  C9  UNL     1      25.641   6.653  49.078  1.00  0.00    -0.002 C 
HETATM   21  C10 UNL     1      26.955   6.625  48.941  1.00  0.00     0.004 C 
BRANCH  21  22
HETATM   22  C11 UNL     1      27.906   5.732  48.248  1.00  0.00     0.249 C 
HETATM   23  F1  UNL     1      27.651   4.402  48.499  1.00  0.00    -0.251 F 
ENDBRANCH  21  22
ENDBRANCH  19  20
ENDBRANCH  15  18
ENDBRANCH   6  15
BRANCH   1  24
HETATM   24  N1  UNL     1      26.628   3.318  51.226  1.00  0.00    -0.383 N 
HETATM   25  H1  UNL     1      26.920   3.405  50.209  1.00  0.00     0.157 HD
HETATM   26  H2  UNL     1      27.311   3.596  51.993  1.00  0.00     0.157 HD
ENDBRANCH   1  24
BRANCH  13  27
HETATM   27  C17 UNL     1      25.307  -0.940  53.350  1.00  0.00     0.125 C 
HETATM   28 CL1  UNL     1      26.057  -0.247  54.789  1.00  0.00    -0.130 Cl
ENDBRANCH  13  27
TORSDOF 7
ENDMDL
MODEL 8
REMARK VINA RESULT:      -6.9      3.913      6.087
REMARK  7 active torsions:
REMARK  status: ('A' for Active; 'I' for Inactive)
REMARK    1  A    between atoms: N1_1  and  C1_2 
REMARK    2  A    between atoms: C5_7  and  C6_8 
REMARK    3  A    between atoms: C6_8  and  O1_9 
REMARK    4  A    between atoms: C6_8  and  C7_10 
REMARK    5  A    between atoms: C8_11  and  C9_12 
REMARK    6  A    between atoms: C10_13  and  C11_14 
REMARK    7  A    between atoms: C16_22  and  C17_23 
ROOT
HETATM    1  C1  UNL     1      24.615   3.148  51.766  1.00  0.00     0.130 A 
HETATM    2  N2  UNL     1      24.490   1.876  52.170  1.00  0.00    -0.235 NA
HETATM    3  C2  UNL     1      23.340   1.317  52.541  1.00  0.00     0.049 A 
HETATM    4  C3  UNL     1      22.136   2.051  52.529  1.00  0.00    -0.027 A 
HETATM    5  C4  UNL     1      22.272   3.384  52.104  1.00  0.00     0.023 A 
HETATM    6  C5  UNL     1      23.490   3.947  51.721  1.00  0.00     0.020 A 
HETATM    7  C12 UNL     1      20.703   1.785  52.853  1.00  0.00     0.089 C 
HETATM    8  C13 UNL     1      20.522   0.320  52.806  1.00  0.00     0.116 C 
HETATM    9  N3  UNL     1      20.867  -0.259  53.887  1.00  0.00    -0.196 NA
HETATM   10  N4  UNL     1      20.784  -1.621  54.044  1.00  0.00    -0.315 N 
HETATM   11  C14 UNL     1      21.955  -1.356  54.886  1.00  0.00     0.142 C 
HETATM   12  C15 UNL     1      22.617  -0.086  54.428  1.00  0.00     0.033 C 
HETATM   13  C16 UNL     1      23.115  -0.090  53.010  1.00  0.00     0.054 C 
HETATM   14  H15 UNL     1      20.009  -2.093  53.534  1.00  0.00     0.182 HD
ENDROOT
BRANCH   6  15
HETATM   15  C6  UNL     1      23.622   5.355  51.274  1.00  0.00     0.177 C 
BRANCH  15  16
HETATM   16  O1  UNL     1      24.195   6.049  52.338  1.00  0.00    -0.387 OA
HETATM   17  H5  UNL     1      25.055   5.597  52.584  1.00  0.00     0.210 HD
ENDBRANCH  15  16
BRANCH  15  18
HETATM   18  C7  UNL     1      22.295   5.959  50.972  1.00  0.00     0.009 C 
HETATM   19  C8  UNL     1      21.941   6.123  49.708  1.00  0.00    -0.001 C 
BRANCH  19  20
HETATM   20  C9  UNL     1      22.821   5.725  48.626  1.00  0.00    -0.002 C 
HETATM   21  C10 UNL     1      22.873   4.523  48.081  1.00  0.00     0.004 C 
BRANCH  21  22
HETATM   22  C11 UNL     1      22.159   3.249  48.309  1.00  0.00     0.249 C 
HETATM   23  F1  UNL     1      22.990   2.266  48.800  1.00  0.00    -0.251 F 
ENDBRANCH  21  22
ENDBRANCH  19  20
ENDBRANCH  15  18
ENDBRANCH   6  15
BRANCH   1  24
HETATM   24  N1  UNL     1      25.922   3.605  51.400  1.00  0.00    -0.383 N 
HETATM   25  H1  UNL     1      26.301   4.517  51.788  1.00  0.00     0.157 HD
HETATM   26  H2  UNL     1      26.521   3.030  50.735  1.00  0.00     0.157 HD
ENDBRANCH   1  24
BRANCH  13  27
HETATM   27  C17 UNL     1      24.479  -0.807  53.083  1.00  0.00     0.125 C 
HETATM   28 CL1  UNL     1      25.309  -0.411  54.588  1.00  0.00    -0.130 Cl
ENDBRANCH  13  27
TORSDOF 7
ENDMDL
MODEL 9
REMARK VINA RESULT:      -6.7      1.694      2.302
REMARK  7 active torsions:
REMARK  status: ('A' for Active; 'I' for Inactive)
REMARK    1  A    between atoms: N1_1  and  C1_2 
REMARK    2  A    between atoms: C5_7  and  C6_8 
REMARK    3  A    between atoms: C6_8  and  O1_9 
REMARK    4  A    between atoms: C6_8  and  C7_10 
REMARK    5  A    between atoms: C8_11  and  C9_12 
REMARK    6  A    between atoms: C10_13  and  C11_14 
REMARK    7  A    between atoms: C16_22  and  C17_23 
ROOT
HETATM    1  C1  UNL     1      23.102   2.300  52.230  1.00  0.00     0.130 A 
HETATM    2  N2  UNL     1      21.799   2.479  51.968  1.00  0.00    -0.235 NA
HETATM    3  C2  UNL     1      20.858   1.562  52.181  1.00  0.00     0.049 A 
HETATM    4  C3  UNL     1      21.181   0.298  52.717  1.00  0.00    -0.027 A 
HETATM    5  C4  UNL     1      22.547   0.114  52.991  1.00  0.00     0.023 A 
HETATM    6  C5  UNL     1      23.515   1.093  52.758  1.00  0.00     0.020 A 
HETATM    7  C12 UNL     1      20.436  -0.941  53.091  1.00  0.00     0.089 C 
HETATM    8  C13 UNL     1      19.021  -0.551  53.261  1.00  0.00     0.116 C 
HETATM    9  N3  UNL     1      18.382  -0.507  52.161  1.00  0.00    -0.196 NA
HETATM   10  N4  UNL     1      17.055  -0.156  52.102  1.00  0.00    -0.315 N 
HETATM   11  C14 UNL     1      17.499   0.378  50.810  1.00  0.00     0.142 C 
HETATM   12  C15 UNL     1      18.973   0.671  50.876  1.00  0.00     0.033 C 
HETATM   13  C16 UNL     1      19.387   1.679  51.911  1.00  0.00     0.054 C 
HETATM   14  H15 UNL     1      16.475  -0.424  52.924  1.00  0.00     0.182 HD
ENDROOT
BRANCH   6  15
HETATM   15  C6  UNL     1      24.955   0.888  53.052  1.00  0.00     0.177 C 
BRANCH  15  16
HETATM   16  O1  UNL     1      25.617   0.982  51.829  1.00  0.00    -0.387 OA
HETATM   17  H5  UNL     1      25.046   1.512  51.199  1.00  0.00     0.210 HD
ENDBRANCH  15  16
BRANCH  15  18
HETATM   18  C7  UNL     1      25.208  -0.461  53.627  1.00  0.00     0.009 C 
HETATM   19  C8  UNL     1      26.275  -0.640  54.388  1.00  0.00    -0.001 C 
BRANCH  19  20
HETATM   20  C9  UNL     1      27.190   0.451  54.665  1.00  0.00    -0.002 C 
HETATM   21  C10 UNL     1      28.497   0.422  54.480  1.00  0.00     0.004 C 
BRANCH  21  22
HETATM   22  C11 UNL     1      29.452  -0.590  53.982  1.00  0.00     0.249 C 
HETATM   23  F1  UNL     1      30.439  -0.033  53.198  1.00  0.00    -0.251 F 
ENDBRANCH  21  22
ENDBRANCH  19  20
ENDBRANCH  15  18
ENDBRANCH   6  15
BRANCH   1  24
HETATM   24  N1  UNL     1      23.994   3.382  51.945  1.00  0.00    -0.383 N 
HETATM   25  H1  UNL     1      23.762   4.368  52.260  1.00  0.00     0.157 HD
HETATM   26  H2  UNL     1      24.899   3.201  51.415  1.00  0.00     0.157 HD
ENDBRANCH   1  24
BRANCH  13  27
HETATM   27  C17 UNL     1      19.117   3.045  51.246  1.00  0.00     0.125 C 
HETATM   28 CL1  UNL     1      19.471   2.976  49.519  1.00  0.00    -0.130 Cl
ENDBRANCH  13  27
TORSDOF 7
ENDMDL
