MODEL 1
REMARK VINA RESULT:      -9.6      0.000      0.000
REMARK  6 active torsions:
REMARK  status: ('A' for Active; 'I' for Inactive)
REMARK    1  A    between atoms: C6_6  and  N1_7 
REMARK    2  A    between atoms: N1_7  and  C8_9 
REMARK    3  A    between atoms: C11_13  and  N3_14 
REMARK    4  A    between atoms: N3_14  and  C12_15 
REMARK    5  A    between atoms: C15_18  and  S1_19 
REMARK    6  A    between atoms: S1_19  and  N4_20 
ROOT
HETATM    1  C8  UNL     1      21.651   0.603  53.288  1.00  0.00     0.150 A 
HETATM    2  C9  UNL     1      20.699  -0.326  53.577  1.00  0.00     0.071 A 
HETATM    3  C10 UNL     1      20.785  -1.475  54.305  1.00  0.00     0.140 A 
HETATM    4  N2  UNL     1      22.015  -1.703  54.806  1.00  0.00    -0.075 NA
HETATM    5  C11 UNL     1      23.029  -0.863  54.589  1.00  0.00     0.728 A 
HETATM    6  N5  UNL     1      22.812   0.227  53.860  1.00  0.00    -0.045 NA
ENDROOT
BRANCH   1   7
HETATM    7  N1  UNL     1      21.673   1.801  52.568  1.00  0.00    -0.336 N 
HETATM    8  C7  UNL     1      20.379   2.520  52.521  1.00  0.00     0.158 C 
BRANCH   7   9
HETATM    9  C6  UNL     1      22.660   2.496  51.868  1.00  0.00     0.037 A 
HETATM   10  C5  UNL     1      23.624   2.011  51.015  1.00  0.00     0.031 A 
HETATM   11  C4  UNL     1      24.582   2.704  50.339  1.00  0.00     0.018 A 
HETATM   12  C3  UNL     1      24.622   4.050  50.502  1.00  0.00     0.018 A 
HETATM   13  C2  UNL     1      25.429   5.040  49.991  1.00  0.00     0.039 A 
HETATM   14  C18 UNL     1      23.706   4.650  51.332  1.00  0.00     0.091 A 
HETATM   15  C1  UNL     1      26.563   4.922  49.054  1.00  0.00     0.071 C 
HETATM   16  N7  UNL     1      24.997   6.201  50.511  1.00  0.00    -0.277 N 
HETATM   17  N6  UNL     1      23.977   5.974  51.304  1.00  0.00    -0.172 NA
HETATM   18  C19 UNL     1      25.460   7.562  50.332  1.00  0.00     0.179 C 
HETATM   19  C17 UNL     1      22.782   3.866  51.968  1.00  0.00     0.064 A 
ENDBRANCH   7   9
ENDBRANCH   1   7
BRANCH   5  20
HETATM   20  N3  UNL     1      24.339  -1.117  55.128  1.00  0.00    -0.192 N 
HETATM   21  H11 UNL     1      24.436  -1.713  55.978  1.00  0.00     0.184 HD
BRANCH  20  22
HETATM   22  C12 UNL     1      25.502  -0.592  54.556  1.00  0.00     0.031 A 
HETATM   23  C13 UNL     1      25.737  -0.996  53.320  1.00  0.00     0.027 A 
HETATM   24  C14 UNL     1      26.984  -0.374  52.834  1.00  0.00     0.023 A 
HETATM   25  C15 UNL     1      27.498   0.400  53.772  1.00  0.00     0.058 A 
HETATM   26  C16 UNL     1      26.597   0.332  54.960  1.00  0.00     0.109 A 
BRANCH  25  27
HETATM   27  S1  UNL     1      28.952   1.380  53.767  1.00  0.00     0.235 S 
HETATM   28  O1  UNL     1      28.811   2.522  52.785  1.00  0.00    -0.206 OA
HETATM   29  O2  UNL     1      29.190   2.024  55.102  1.00  0.00    -0.206 OA
BRANCH  27  30
HETATM   30  N4  UNL     1      30.320   0.468  53.264  1.00  0.00    -0.225 NA
HETATM   31  H14 UNL     1      30.857   0.969  52.538  1.00  0.00     0.136 HD
HETATM   32  H15 UNL     1      30.027  -0.449  52.854  1.00  0.00     0.136 HD
ENDBRANCH  27  30
ENDBRANCH  25  27
ENDBRANCH  20  22
ENDBRANCH   5  20
TORSDOF 6
ENDMDL
MODEL 2
REMARK VINA RESULT:      -9.3      1.885      2.874
REMARK  6 active torsions:
REMARK  status: ('A' for Active; 'I' for Inactive)
REMARK    1  A    between atoms: C6_6  and  N1_7 
REMARK    2  A    between atoms: N1_7  and  C8_9 
REMARK    3  A    between atoms: C11_13  and  N3_14 
REMARK    4  A    between atoms: N3_14  and  C12_15 
REMARK    5  A    between atoms: C15_18  and  S1_19 
REMARK    6  A    between atoms: S1_19  and  N4_20 
ROOT
HETATM    1  C8  UNL     1      22.530   2.496  50.739  1.00  0.00     0.150 A 
HETATM    2  C9  UNL     1      21.484   1.710  50.366  1.00  0.00     0.071 A 
HETATM    3  C10 UNL     1      21.041   0.531  50.888  1.00  0.00     0.140 A 
HETATM    4  N2  UNL     1      21.770   0.099  51.934  1.00  0.00    -0.075 NA
HETATM    5  C11 UNL     1      22.820   0.784  52.391  1.00  0.00     0.728 A 
HETATM    6  N5  UNL     1      23.150   1.924  51.791  1.00  0.00    -0.045 NA
ENDROOT
BRANCH   1   7
HETATM    7  N1  UNL     1      23.064   3.706  50.288  1.00  0.00    -0.336 N 
HETATM    8  C7  UNL     1      22.108   4.837  50.270  1.00  0.00     0.158 C 
BRANCH   7   9
HETATM    9  C6  UNL     1      24.325   4.106  49.842  1.00  0.00     0.037 A 
HETATM   10  C5  UNL     1      25.509   3.407  49.847  1.00  0.00     0.031 A 
HETATM   11  C4  UNL     1      26.734   3.812  49.408  1.00  0.00     0.018 A 
HETATM   12  C3  UNL     1      26.837   5.061  48.890  1.00  0.00     0.018 A 
HETATM   13  C2  UNL     1      27.884   5.783  48.365  1.00  0.00     0.039 A 
HETATM   14  C18 UNL     1      25.717   5.856  48.831  1.00  0.00     0.091 A 
HETATM   15  C1  UNL     1      29.296   5.385  48.200  1.00  0.00     0.071 C 
HETATM   16  N7  UNL     1      27.390   6.979  48.005  1.00  0.00    -0.277 N 
HETATM   17  N6  UNL     1      26.109   7.025  48.279  1.00  0.00    -0.172 NA
HETATM   18  C19 UNL     1      28.024   8.134  47.403  1.00  0.00     0.179 C 
HETATM   19  C17 UNL     1      24.532   5.356  49.300  1.00  0.00     0.064 A 
ENDBRANCH   7   9
ENDBRANCH   1   7
BRANCH   5  20
HETATM   20  N3  UNL     1      23.593   0.312  53.509  1.00  0.00    -0.192 N 
HETATM   21  H11 UNL     1      23.102  -0.051  54.354  1.00  0.00     0.184 HD
BRANCH  20  22
HETATM   22  C12 UNL     1      24.992   0.318  53.513  1.00  0.00     0.031 A 
HETATM   23  C13 UNL     1      25.547  -0.813  53.113  1.00  0.00     0.027 A 
HETATM   24  C14 UNL     1      27.016  -0.677  53.162  1.00  0.00     0.023 A 
HETATM   25  C15 UNL     1      27.344   0.530  53.589  1.00  0.00     0.058 A 
HETATM   26  C16 UNL     1      26.078   1.276  53.852  1.00  0.00     0.109 A 
BRANCH  25  27
HETATM   27  S1  UNL     1      28.919   1.255  53.847  1.00  0.00     0.235 S 
HETATM   28  O1  UNL     1      29.132   1.535  55.318  1.00  0.00    -0.206 OA
HETATM   29  O2  UNL     1      30.028   0.325  53.450  1.00  0.00    -0.206 OA
BRANCH  27  30
HETATM   30  N4  UNL     1      29.054   2.765  53.036  1.00  0.00    -0.225 NA
HETATM   31  H14 UNL     1      29.483   2.651  52.104  1.00  0.00     0.136 HD
HETATM   32  H15 UNL     1      29.659   3.427  53.576  1.00  0.00     0.136 HD
ENDBRANCH  27  30
ENDBRANCH  25  27
ENDBRANCH  20  22
ENDBRANCH   5  20
TORSDOF 6
ENDMDL
MODEL 3
REMARK VINA RESULT:      -9.0      1.689      2.451
REMARK  6 active torsions:
REMARK  status: ('A' for Active; 'I' for Inactive)
REMARK    1  A    between atoms: C6_6  and  N1_7 
REMARK    2  A    between atoms: N1_7  and  C8_9 
REMARK    3  A    between atoms: C11_13  and  N3_14 
REMARK    4  A    between atoms: N3_14  and  C12_15 
REMARK    5  A    between atoms: C15_18  and  S1_19 
REMARK    6  A    between atoms: S1_19  and  N4_20 
ROOT
HETATM    1  C8  UNL     1      22.206   1.789  51.378  1.00  0.00     0.150 A 
HETATM    2  C9  UNL     1      21.090   1.932  52.145  1.00  0.00     0.071 A 
HETATM    3  C10 UNL     1      20.773   1.370  53.346  1.00  0.00     0.140 A 
HETATM    4  N2  UNL     1      21.728   0.552  53.826  1.00  0.00    -0.075 NA
HETATM    5  C11 UNL     1      22.865   0.333  53.163  1.00  0.00     0.728 A 
HETATM    6  N5  UNL     1      23.054   0.943  51.998  1.00  0.00    -0.045 NA
ENDROOT
BRANCH   1   7
HETATM    7  N1  UNL     1      22.633   2.310  50.154  1.00  0.00    -0.336 N 
HETATM    8  C7  UNL     1      22.056   1.647  48.962  1.00  0.00     0.158 C 
BRANCH   7   9
HETATM    9  C6  UNL     1      23.499   3.341  49.786  1.00  0.00     0.037 A 
HETATM   10  C5  UNL     1      23.217   4.663  49.536  1.00  0.00     0.031 A 
HETATM   11  C4  UNL     1      24.075   5.660  49.177  1.00  0.00     0.018 A 
HETATM   12  C3  UNL     1      25.387   5.343  49.040  1.00  0.00     0.018 A 
HETATM   13  C2  UNL     1      26.504   6.071  48.702  1.00  0.00     0.039 A 
HETATM   14  C18 UNL     1      25.791   4.049  49.266  1.00  0.00     0.091 A 
HETATM   15  C1  UNL     1      26.611   7.505  48.364  1.00  0.00     0.071 C 
HETATM   16  N7  UNL     1      27.544   5.223  48.727  1.00  0.00    -0.277 N 
HETATM   17  N6  UNL     1      27.126   4.025  49.061  1.00  0.00    -0.172 NA
HETATM   18  C19 UNL     1      28.953   5.427  48.459  1.00  0.00     0.179 C 
HETATM   19  C17 UNL     1      24.850   3.121  49.622  1.00  0.00     0.064 A 
ENDBRANCH   7   9
ENDBRANCH   1   7
BRANCH   5  20
HETATM   20  N3  UNL     1      23.879  -0.545  53.686  1.00  0.00    -0.192 N 
HETATM   21  H11 UNL     1      23.595  -1.421  54.175  1.00  0.00     0.184 HD
BRANCH  20  22
HETATM   22  C12 UNL     1      25.245  -0.272  53.565  1.00  0.00     0.031 A 
HETATM   23  C13 UNL     1      25.907  -1.113  52.789  1.00  0.00     0.027 A 
HETATM   24  C14 UNL     1      27.328  -0.718  52.745  1.00  0.00     0.023 A 
HETATM   25  C15 UNL     1      27.522   0.355  53.491  1.00  0.00     0.058 A 
HETATM   26  C16 UNL     1      26.206   0.738  54.083  1.00  0.00     0.109 A 
BRANCH  25  27
HETATM   27  S1  UNL     1      28.985   1.264  53.816  1.00  0.00     0.235 S 
HETATM   28  O1  UNL     1      28.957   2.585  53.078  1.00  0.00    -0.206 OA
HETATM   29  O2  UNL     1      29.105   1.619  55.270  1.00  0.00    -0.206 OA
BRANCH  27  30
HETATM   30  N4  UNL     1      30.380   0.425  53.264  1.00  0.00    -0.225 NA
HETATM   31  H14 UNL     1      30.121  -0.407  52.711  1.00  0.00     0.136 HD
HETATM   32  H15 UNL     1      30.959   0.092  54.071  1.00  0.00     0.136 HD
ENDBRANCH  27  30
ENDBRANCH  25  27
ENDBRANCH  20  22
ENDBRANCH   5  20
TORSDOF 6
ENDMDL
MODEL 4
REMARK VINA RESULT:      -8.8      2.710      4.767
REMARK  6 active torsions:
REMARK  status: ('A' for Active; 'I' for Inactive)
REMARK    1  A    between atoms: C6_6  and  N1_7 
REMARK    2  A    between atoms: N1_7  and  C8_9 
REMARK    3  A    between atoms: C11_13  and  N3_14 
REMARK    4  A    between atoms: N3_14  and  C12_15 
REMARK    5  A    between atoms: C15_18  and  S1_19 
REMARK    6  A    between atoms: S1_19  and  N4_20 
ROOT
HETATM    1  C8  UNL     1      23.721   3.983  49.520  1.00  0.00     0.150 A 
HETATM    2  C9  UNL     1      22.997   3.365  48.547  1.00  0.00     0.071 A 
HETATM    3  C10 UNL     1      22.360   2.159  48.558  1.00  0.00     0.140 A 
HETATM    4  N2  UNL     1      22.482   1.498  49.725  1.00  0.00    -0.075 NA
HETATM    5  C11 UNL     1      23.168   2.005  50.752  1.00  0.00     0.728 A 
HETATM    6  N5  UNL     1      23.744   3.194  50.612  1.00  0.00    -0.045 NA
ENDROOT
BRANCH   1   7
HETATM    7  N1  UNL     1      24.402   5.200  49.618  1.00  0.00    -0.336 N 
HETATM    8  C7  UNL     1      23.799   6.174  50.557  1.00  0.00     0.158 C 
BRANCH   7   9
HETATM    9  C6  UNL     1      25.552   5.720  49.023  1.00  0.00     0.037 A 
HETATM   10  C5  UNL     1      25.721   6.908  48.351  1.00  0.00     0.031 A 
HETATM   11  C4  UNL     1      26.852   7.403  47.775  1.00  0.00     0.018 A 
HETATM   12  C3  UNL     1      27.980   6.653  47.855  1.00  0.00     0.018 A 
HETATM   13  C2  UNL     1      29.267   6.832  47.403  1.00  0.00     0.039 A 
HETATM   14  C18 UNL     1      27.935   5.444  48.505  1.00  0.00     0.091 A 
HETATM   15  C1  UNL     1      29.837   7.965  46.647  1.00  0.00     0.071 C 
HETATM   16  N7  UNL     1      29.966   5.748  47.779  1.00  0.00    -0.277 N 
HETATM   17  N6  UNL     1      29.181   4.925  48.432  1.00  0.00    -0.172 NA
HETATM   18  C19 UNL     1      31.355   5.389  47.582  1.00  0.00     0.179 C 
HETATM   19  C17 UNL     1      26.748   5.035  49.051  1.00  0.00     0.064 A 
ENDBRANCH   7   9
ENDBRANCH   1   7
BRANCH   5  20
HETATM   20  N3  UNL     1      23.292   1.288  51.994  1.00  0.00    -0.192 N 
HETATM   21  H11 UNL     1      22.432   0.971  52.491  1.00  0.00     0.184 HD
BRANCH  20  22
HETATM   22  C12 UNL     1      24.531   0.997  52.573  1.00  0.00     0.031 A 
HETATM   23  C13 UNL     1      24.527  -0.049  53.382  1.00  0.00     0.027 A 
HETATM   24  C14 UNL     1      25.885  -0.250  53.924  1.00  0.00     0.023 A 
HETATM   25  C15 UNL     1      26.704   0.669  53.444  1.00  0.00     0.058 A 
HETATM   26  C16 UNL     1      25.912   1.551  52.536  1.00  0.00     0.109 A 
BRANCH  25  27
HETATM   27  S1  UNL     1      28.414   0.929  53.729  1.00  0.00     0.235 S 
HETATM   28  O1  UNL     1      28.693   0.996  55.215  1.00  0.00    -0.206 OA
HETATM   29  O2  UNL     1      29.240  -0.214  53.216  1.00  0.00    -0.206 OA
BRANCH  27  30
HETATM   30  N4  UNL     1      28.940   2.425  53.064  1.00  0.00    -0.225 NA
HETATM   31  H14 UNL     1      28.182   2.884  52.534  1.00  0.00     0.136 HD
HETATM   32  H15 UNL     1      29.737   2.279  52.402  1.00  0.00     0.136 HD
ENDBRANCH  27  30
ENDBRANCH  25  27
ENDBRANCH  20  22
ENDBRANCH   5  20
TORSDOF 6
ENDMDL
MODEL 5
REMARK VINA RESULT:      -8.6      2.921      5.902
REMARK  6 active torsions:
REMARK  status: ('A' for Active; 'I' for Inactive)
REMARK    1  A    between atoms: C6_6  and  N1_7 
REMARK    2  A    between atoms: N1_7  and  C8_9 
REMARK    3  A    between atoms: C11_13  and  N3_14 
REMARK    4  A    between atoms: N3_14  and  C12_15 
REMARK    5  A    between atoms: C15_18  and  S1_19 
REMARK    6  A    between atoms: S1_19  and  N4_20 
ROOT
HETATM    1  C8  UNL     1      21.469   0.015  52.558  1.00  0.00     0.150 A 
HETATM    2  C9  UNL     1      20.121  -0.132  52.670  1.00  0.00     0.071 A 
HETATM    3  C10 UNL     1      19.130   0.147  51.776  1.00  0.00     0.140 A 
HETATM    4  N2  UNL     1      19.582   0.645  50.609  1.00  0.00    -0.075 NA
HETATM    5  C11 UNL     1      20.884   0.835  50.383  1.00  0.00     0.728 A 
HETATM    6  N5  UNL     1      21.752   0.521  51.340  1.00  0.00    -0.045 NA
ENDROOT
BRANCH   1   7
HETATM    7  N1  UNL     1      22.561  -0.238  53.393  1.00  0.00    -0.336 N 
HETATM    8  C7  UNL     1      22.305  -1.228  54.464  1.00  0.00     0.158 C 
BRANCH   7   9
HETATM    9  C6  UNL     1      23.872   0.236  53.449  1.00  0.00     0.037 A 
HETATM   10  C5  UNL     1      24.328   1.533  53.419  1.00  0.00     0.031 A 
HETATM   11  C4  UNL     1      25.614   1.981  53.474  1.00  0.00     0.018 A 
HETATM   12  C3  UNL     1      26.601   1.055  53.573  1.00  0.00     0.018 A 
HETATM   13  C2  UNL     1      27.971   1.140  53.650  1.00  0.00     0.039 A 
HETATM   14  C18 UNL     1      26.267  -0.277  53.613  1.00  0.00     0.091 A 
HETATM   15  C1  UNL     1      28.829   2.341  53.647  1.00  0.00     0.071 C 
HETATM   16  N7  UNL     1      28.435  -0.118  53.733  1.00  0.00    -0.277 N 
HETATM   17  N6  UNL     1      27.429  -0.959  53.712  1.00  0.00    -0.172 NA
HETATM   18  C19 UNL     1      29.784  -0.636  53.836  1.00  0.00     0.179 C 
HETATM   19  C17 UNL     1      24.944  -0.625  53.550  1.00  0.00     0.064 A 
ENDBRANCH   7   9
ENDBRANCH   1   7
BRANCH   5  20
HETATM   20  N3  UNL     1      21.357   1.369  49.133  1.00  0.00    -0.192 N 
HETATM   21  H11 UNL     1      21.049   0.929  48.240  1.00  0.00     0.184 HD
BRANCH  20  22
HETATM   22  C12 UNL     1      22.222   2.465  49.063  1.00  0.00     0.031 A 
HETATM   23  C13 UNL     1      22.045   3.237  48.005  1.00  0.00     0.027 A 
HETATM   24  C14 UNL     1      23.013   4.351  48.049  1.00  0.00     0.023 A 
HETATM   25  C15 UNL     1      23.769   4.251  49.128  1.00  0.00     0.058 A 
HETATM   26  C16 UNL     1      23.331   3.035  49.875  1.00  0.00     0.109 A 
BRANCH  25  27
HETATM   27  S1  UNL     1      25.072   5.273  49.702  1.00  0.00     0.235 S 
HETATM   28  O1  UNL     1      25.528   6.207  48.602  1.00  0.00    -0.206 OA
HETATM   29  O2  UNL     1      24.624   6.162  50.825  1.00  0.00    -0.206 OA
BRANCH  27  30
HETATM   30  N4  UNL     1      26.445   4.342  50.154  1.00  0.00    -0.225 NA
HETATM   31  H14 UNL     1      26.880   4.712  51.014  1.00  0.00     0.136 HD
HETATM   32  H15 UNL     1      27.175   4.363  49.404  1.00  0.00     0.136 HD
ENDBRANCH  27  30
ENDBRANCH  25  27
ENDBRANCH  20  22
ENDBRANCH   5  20
TORSDOF 6
ENDMDL
MODEL 6
REMARK VINA RESULT:      -8.6      3.435      7.109
REMARK  6 active torsions:
REMARK  status: ('A' for Active; 'I' for Inactive)
REMARK    1  A    between atoms: C6_6  and  N1_7 
REMARK    2  A    between atoms: N1_7  and  C8_9 
REMARK    3  A    between atoms: C11_13  and  N3_14 
REMARK    4  A    between atoms: N3_14  and  C12_15 
REMARK    5  A    between atoms: C15_18  and  S1_19 
REMARK    6  A    between atoms: S1_19  and  N4_20 
ROOT
HETATM    1  C8  UNL     1      26.030   0.566  53.609  1.00  0.00     0.150 A 
HETATM    2  C9  UNL     1      27.314   0.424  54.035  1.00  0.00     0.071 A 
HETATM    3  C10 UNL     1      28.444   1.085  53.655  1.00  0.00     0.140 A 
HETATM    4  N2  UNL     1      28.228   2.018  52.708  1.00  0.00    -0.075 NA
HETATM    5  C11 UNL     1      27.011   2.248  52.212  1.00  0.00     0.728 A 
HETATM    6  N5  UNL     1      25.988   1.533  52.669  1.00  0.00    -0.045 NA
ENDROOT
BRANCH   1   7
HETATM    7  N1  UNL     1      24.813  -0.043  53.927  1.00  0.00    -0.336 N 
HETATM    8  C7  UNL     1      24.871  -0.989  55.064  1.00  0.00     0.158 C 
BRANCH   7   9
HETATM    9  C6  UNL     1      23.519   0.041  53.408  1.00  0.00     0.037 A 
HETATM   10  C5  UNL     1      23.061   0.765  52.333  1.00  0.00     0.031 A 
HETATM   11  C4  UNL     1      21.793   0.837  51.838  1.00  0.00     0.018 A 
HETATM   12  C3  UNL     1      20.831   0.111  52.461  1.00  0.00     0.018 A 
HETATM   13  C2  UNL     1      19.483  -0.055  52.242  1.00  0.00     0.039 A 
HETATM   14  C18 UNL     1      21.170  -0.655  53.550  1.00  0.00     0.091 A 
HETATM   15  C1  UNL     1      18.630   0.548  51.199  1.00  0.00     0.071 C 
HETATM   16  N7  UNL     1      19.037  -0.902  53.185  1.00  0.00    -0.277 N 
HETATM   17  N6  UNL     1      20.033  -1.260  53.960  1.00  0.00    -0.172 NA
HETATM   18  C19 UNL     1      17.716  -1.435  53.445  1.00  0.00     0.179 C 
HETATM   19  C17 UNL     1      22.473  -0.659  53.970  1.00  0.00     0.064 A 
ENDBRANCH   7   9
ENDBRANCH   1   7
BRANCH   5  20
HETATM   20  N3  UNL     1      26.792   3.247  51.200  1.00  0.00    -0.192 N 
HETATM   21  H11 UNL     1      27.612   3.708  50.750  1.00  0.00     0.184 HD
BRANCH  20  22
HETATM   22  C12 UNL     1      25.512   3.633  50.789  1.00  0.00     0.031 A 
HETATM   23  C13 UNL     1      25.149   3.160  49.609  1.00  0.00     0.027 A 
HETATM   24  C14 UNL     1      23.788   3.637  49.293  1.00  0.00     0.023 A 
HETATM   25  C15 UNL     1      23.334   4.392  50.277  1.00  0.00     0.058 A 
HETATM   26  C16 UNL     1      24.396   4.459  51.324  1.00  0.00     0.109 A 
BRANCH  25  27
HETATM   27  S1  UNL     1      21.801   5.223  50.457  1.00  0.00     0.235 S 
HETATM   28  O1  UNL     1      21.377   5.833  49.139  1.00  0.00    -0.206 OA
HETATM   29  O2  UNL     1      20.699   4.276  50.835  1.00  0.00    -0.206 OA
BRANCH  27  30
HETATM   30  N4  UNL     1      21.919   6.519  51.581  1.00  0.00    -0.225 NA
HETATM   31  H14 UNL     1      22.795   7.049  51.449  1.00  0.00     0.136 HD
HETATM   32  H15 UNL     1      21.919   6.162  52.565  1.00  0.00     0.136 HD
ENDBRANCH  27  30
ENDBRANCH  25  27
ENDBRANCH  20  22
ENDBRANCH   5  20
TORSDOF 6
ENDMDL
MODEL 7
REMARK VINA RESULT:      -8.5      2.046      5.912
REMARK  6 active torsions:
REMARK  status: ('A' for Active; 'I' for Inactive)
REMARK    1  A    between atoms: C6_6  and  N1_7 
REMARK    2  A    between atoms: N1_7  and  C8_9 
REMARK    3  A    between atoms: C11_13  and  N3_14 
REMARK    4  A    between atoms: N3_14  and  C12_15 
REMARK    5  A    between atoms: C15_18  and  S1_19 
REMARK    6  A    between atoms: S1_19  and  N4_20 
ROOT
HETATM    1  C8  UNL     1      23.434   3.515  49.273  1.00  0.00     0.150 A 
HETATM    2  C9  UNL     1      23.400   4.757  48.718  1.00  0.00     0.071 A 
HETATM    3  C10 UNL     1      24.354   5.731  48.686  1.00  0.00     0.140 A 
HETATM    4  N2  UNL     1      25.497   5.384  49.307  1.00  0.00    -0.075 NA
HETATM    5  C11 UNL     1      25.648   4.193  49.889  1.00  0.00     0.728 A 
HETATM    6  N5  UNL     1      24.639   3.329  49.850  1.00  0.00    -0.045 NA
ENDROOT
BRANCH   1   7
HETATM    7  N1  UNL     1      22.534   2.449  49.361  1.00  0.00    -0.336 N 
HETATM    8  C7  UNL     1      21.831   2.127  48.098  1.00  0.00     0.158 C 
BRANCH   7   9
HETATM    9  C6  UNL     1      22.137   1.595  50.391  1.00  0.00     0.037 A 
HETATM   10  C5  UNL     1      20.929   0.967  50.581  1.00  0.00     0.031 A 
HETATM   11  C4  UNL     1      20.557   0.134  51.593  1.00  0.00     0.018 A 
HETATM   12  C3  UNL     1      21.472  -0.135  52.557  1.00  0.00     0.018 A 
HETATM   13  C2  UNL     1      21.446  -0.908  53.695  1.00  0.00     0.039 A 
HETATM   14  C18 UNL     1      22.719   0.437  52.475  1.00  0.00     0.091 A 
HETATM   15  C1  UNL     1      20.344  -1.727  54.236  1.00  0.00     0.071 C 
HETATM   16  N7  UNL     1      22.654  -0.794  54.270  1.00  0.00    -0.277 N 
HETATM   17  N6  UNL     1      23.410   0.000  53.551  1.00  0.00    -0.172 NA
HETATM   18  C19 UNL     1      23.199  -1.380  55.478  1.00  0.00     0.179 C 
HETATM   19  C17 UNL     1      22.995   1.261  51.417  1.00  0.00     0.064 A 
ENDBRANCH   7   9
ENDBRANCH   1   7
BRANCH   5  20
HETATM   20  N3  UNL     1      26.875   3.834  50.551  1.00  0.00    -0.192 N 
HETATM   21  H11 UNL     1      27.718   4.434  50.427  1.00  0.00     0.184 HD
BRANCH  20  22
HETATM   22  C12 UNL     1      26.987   2.700  51.363  1.00  0.00     0.031 A 
HETATM   23  C13 UNL     1      26.488   1.596  50.835  1.00  0.00     0.027 A 
HETATM   24  C14 UNL     1      26.668   0.480  51.785  1.00  0.00     0.023 A 
HETATM   25  C15 UNL     1      27.272   0.910  52.878  1.00  0.00     0.058 A 
HETATM   26  C16 UNL     1      27.531   2.370  52.708  1.00  0.00     0.109 A 
BRANCH  25  27
HETATM   27  S1  UNL     1      27.742   0.048  54.331  1.00  0.00     0.235 S 
HETATM   28  O1  UNL     1      28.647   0.912  55.182  1.00  0.00    -0.206 OA
HETATM   29  O2  UNL     1      26.556  -0.267  55.196  1.00  0.00    -0.206 OA
BRANCH  27  30
HETATM   30  N4  UNL     1      28.633  -1.374  53.955  1.00  0.00    -0.225 NA
HETATM   31  H14 UNL     1      28.815  -1.935  54.802  1.00  0.00     0.136 HD
HETATM   32  H15 UNL     1      29.562  -1.133  53.538  1.00  0.00     0.136 HD
ENDBRANCH  27  30
ENDBRANCH  25  27
ENDBRANCH  20  22
ENDBRANCH   5  20
TORSDOF 6
ENDMDL
MODEL 8
REMARK VINA RESULT:      -8.4      2.962      6.094
REMARK  6 active torsions:
REMARK  status: ('A' for Active; 'I' for Inactive)
REMARK    1  A    between atoms: C6_6  and  N1_7 
REMARK    2  A    between atoms: N1_7  and  C8_9 
REMARK    3  A    between atoms: C11_13  and  N3_14 
REMARK    4  A    between atoms: N3_14  and  C12_15 
REMARK    5  A    between atoms: C15_18  and  S1_19 
REMARK    6  A    between atoms: S1_19  and  N4_20 
ROOT
HETATM    1  C8  UNL     1      21.794   1.768  52.397  1.00  0.00     0.150 A 
HETATM    2  C9  UNL     1      20.578   2.369  52.498  1.00  0.00     0.071 A 
HETATM    3  C10 UNL     1      19.948   3.225  51.644  1.00  0.00     0.140 A 
HETATM    4  N2  UNL     1      20.662   3.502  50.537  1.00  0.00    -0.075 NA
HETATM    5  C11 UNL     1      21.869   2.972  50.327  1.00  0.00     0.728 A 
HETATM    6  N5  UNL     1      22.373   2.149  51.241  1.00  0.00    -0.045 NA
ENDROOT
BRANCH   1   7
HETATM    7  N1  UNL     1      22.526   0.883  53.195  1.00  0.00    -0.336 N 
HETATM    8  C7  UNL     1      21.711   0.070  54.126  1.00  0.00     0.158 C 
BRANCH   7   9
HETATM    9  C6  UNL     1      23.883   0.580  53.317  1.00  0.00     0.037 A 
HETATM   10  C5  UNL     1      24.514  -0.636  53.208  1.00  0.00     0.031 A 
HETATM   11  C4  UNL     1      25.841  -0.917  53.330  1.00  0.00     0.018 A 
HETATM   12  C3  UNL     1      26.682   0.115  53.593  1.00  0.00     0.018 A 
HETATM   13  C2  UNL     1      28.043   0.202  53.775  1.00  0.00     0.039 A 
HETATM   14  C18 UNL     1      26.166   1.382  53.723  1.00  0.00     0.091 A 
HETATM   15  C1  UNL     1      29.056  -0.871  53.736  1.00  0.00     0.071 C 
HETATM   16  N7  UNL     1      28.323   1.495  54.008  1.00  0.00    -0.277 N 
HETATM   17  N6  UNL     1      27.215   2.196  53.978  1.00  0.00    -0.172 NA
HETATM   18  C19 UNL     1      29.577   2.172  54.267  1.00  0.00     0.179 C 
HETATM   19  C17 UNL     1      24.816   1.559  53.583  1.00  0.00     0.064 A 
ENDBRANCH   7   9
ENDBRANCH   1   7
BRANCH   5  20
HETATM   20  N3  UNL     1      22.624   3.277  49.141  1.00  0.00    -0.192 N 
HETATM   21  H11 UNL     1      22.319   2.884  48.224  1.00  0.00     0.184 HD
BRANCH  20  22
HETATM   22  C12 UNL     1      23.765   4.086  49.163  1.00  0.00     0.031 A 
HETATM   23  C13 UNL     1      24.894   3.436  49.388  1.00  0.00     0.027 A 
HETATM   24  C14 UNL     1      26.016   4.396  49.387  1.00  0.00     0.023 A 
HETATM   25  C15 UNL     1      25.565   5.617  49.161  1.00  0.00     0.058 A 
HETATM   26  C16 UNL     1      24.084   5.529  48.997  1.00  0.00     0.109 A 
BRANCH  25  27
HETATM   27  S1  UNL     1      26.422   7.142  49.048  1.00  0.00     0.235 S 
HETATM   28  O1  UNL     1      27.856   6.907  48.629  1.00  0.00    -0.206 OA
HETATM   29  O2  UNL     1      25.834   8.030  47.990  1.00  0.00    -0.206 OA
BRANCH  27  30
HETATM   30  N4  UNL     1      26.481   7.941  50.569  1.00  0.00    -0.225 NA
HETATM   31  H14 UNL     1      27.126   7.463  51.217  1.00  0.00     0.136 HD
HETATM   32  H15 UNL     1      25.538   7.951  51.023  1.00  0.00     0.136 HD
ENDBRANCH  27  30
ENDBRANCH  25  27
ENDBRANCH  20  22
ENDBRANCH   5  20
TORSDOF 6
ENDMDL
MODEL 9
REMARK VINA RESULT:      -8.4      2.934      5.939
REMARK  6 active torsions:
REMARK  status: ('A' for Active; 'I' for Inactive)
REMARK    1  A    between atoms: C6_6  and  N1_7 
REMARK    2  A    between atoms: N1_7  and  C8_9 
REMARK    3  A    between atoms: C11_13  and  N3_14 
REMARK    4  A    between atoms: N3_14  and  C12_15 
REMARK    5  A    between atoms: C15_18  and  S1_19 
REMARK    6  A    between atoms: S1_19  and  N4_20 
ROOT
HETATM    1  C8  UNL     1      20.070  -0.249  52.997  1.00  0.00     0.150 A 
HETATM    2  C9  UNL     1      18.869  -0.881  52.904  1.00  0.00     0.071 A 
HETATM    3  C10 UNL     1      17.698  -0.464  52.344  1.00  0.00     0.140 A 
HETATM    4  N2  UNL     1      17.768   0.768  51.805  1.00  0.00    -0.075 NA
HETATM    5  C11 UNL     1      18.894   1.485  51.835  1.00  0.00     0.728 A 
HETATM    6  N5  UNL     1      19.970   0.963  52.414  1.00  0.00    -0.045 NA
ENDROOT
BRANCH   1   7
HETATM    7  N1  UNL     1      21.317  -0.577  53.536  1.00  0.00    -0.336 N 
HETATM    8  C7  UNL     1      21.305  -1.723  54.474  1.00  0.00     0.158 C 
BRANCH   7   9
HETATM    9  C6  UNL     1      22.606  -0.062  53.386  1.00  0.00     0.037 A 
HETATM   10  C5  UNL     1      23.034   1.000  52.625  1.00  0.00     0.031 A 
HETATM   11  C4  UNL     1      24.298   1.491  52.489  1.00  0.00     0.018 A 
HETATM   12  C3  UNL     1      25.290   0.878  53.181  1.00  0.00     0.018 A 
HETATM   13  C2  UNL     1      26.645   1.096  53.283  1.00  0.00     0.039 A 
HETATM   14  C18 UNL     1      24.984  -0.198  53.979  1.00  0.00     0.091 A 
HETATM   15  C1  UNL     1      27.472   2.127  52.626  1.00  0.00     0.071 C 
HETATM   16  N7  UNL     1      27.126   0.166  54.125  1.00  0.00    -0.277 N 
HETATM   17  N6  UNL     1      26.146  -0.601  54.539  1.00  0.00    -0.172 NA
HETATM   18  C19 UNL     1      28.470  -0.089  54.603  1.00  0.00     0.179 C 
HETATM   19  C17 UNL     1      23.682  -0.615  54.048  1.00  0.00     0.064 A 
ENDBRANCH   7   9
ENDBRANCH   1   7
BRANCH   5  20
HETATM   20  N3  UNL     1      18.957   2.802  51.257  1.00  0.00    -0.192 N 
HETATM   21  H11 UNL     1      18.076   3.277  50.968  1.00  0.00     0.184 HD
BRANCH  20  22
HETATM   22  C12 UNL     1      20.165   3.480  51.062  1.00  0.00     0.031 A 
HETATM   23  C13 UNL     1      20.539   3.583  49.799  1.00  0.00     0.027 A 
HETATM   24  C14 UNL     1      21.820   4.314  49.729  1.00  0.00     0.023 A 
HETATM   25  C15 UNL     1      22.214   4.650  50.944  1.00  0.00     0.058 A 
HETATM   26  C16 UNL     1      21.191   4.147  51.908  1.00  0.00     0.109 A 
BRANCH  25  27
HETATM   27  S1  UNL     1      23.641   5.520  51.476  1.00  0.00     0.235 S 
HETATM   28  O1  UNL     1      24.880   4.934  50.836  1.00  0.00    -0.206 OA
HETATM   29  O2  UNL     1      23.606   6.957  51.044  1.00  0.00    -0.206 OA
BRANCH  27  30
HETATM   30  N4  UNL     1      23.858   5.386  53.176  1.00  0.00    -0.225 NA
HETATM   31  H14 UNL     1      23.404   4.536  53.545  1.00  0.00     0.136 HD
HETATM   32  H15 UNL     1      23.432   6.204  53.673  1.00  0.00     0.136 HD
ENDBRANCH  27  30
ENDBRANCH  25  27
ENDBRANCH  20  22
ENDBRANCH   5  20
TORSDOF 6
ENDMDL
