MODEL 1
REMARK VINA RESULT:      -6.5      0.000      0.000
REMARK  2 active torsions:
REMARK  status: ('A' for Active; 'I' for Inactive)
REMARK    1  A    between atoms: C2_2  and  C3_3 
REMARK    2  A    between atoms: C9_10  and  O1_11 
ROOT
HETATM    1  C3  UNL     1      22.786   2.542  49.854  1.00  0.00    -0.071 C 
HETATM    2  C4  UNL     1      23.227   3.013  48.656  1.00  0.00     0.006 C 
HETATM    3  C5  UNL     1      23.621   4.425  48.358  1.00  0.00     0.033 C 
HETATM    4  C6  UNL     1      23.737   5.366  49.285  1.00  0.00     0.069 A 
HETATM    5  C7  UNL     1      22.752   5.946  50.266  1.00  0.00     0.083 A 
HETATM    6  N1  UNL     1      22.903   6.893  51.115  1.00  0.00    -0.255 NA
HETATM    7  C8  UNL     1      24.192   7.546  51.228  1.00  0.00     0.173 A 
HETATM    8  C9  UNL     1      25.230   7.174  50.463  1.00  0.00     0.164 A 
HETATM    9  N2  UNL     1      24.859   6.133  49.597  1.00  0.00    -0.300 N 
HETATM   10  C10 UNL     1      25.953   5.445  48.995  1.00  0.00     0.099 C 
HETATM   11  C11 UNL     1      26.139   4.189  49.411  1.00  0.00     0.017 C 
HETATM   12  C12 UNL     1      25.874   3.000  50.171  1.00  0.00    -0.001 C 
HETATM   13  C13 UNL     1      25.087   2.392  51.086  1.00  0.00    -0.010 C 
HETATM   14  C14 UNL     1      23.844   2.493  52.041  1.00  0.00     0.092 C 
HETATM   15 BR1  UNL     1      24.443   3.528  53.540  1.00  0.00    -0.086 Br
HETATM   16  C15 UNL     1      22.941   3.222  51.204  1.00  0.00     0.055 C 
HETATM   17  C16 UNL     1      21.797   4.095  51.458  1.00  0.00    -0.014 C 
HETATM   18  C17 UNL     1      21.450   5.229  50.640  1.00  0.00     0.030 C 
ENDROOT
BRANCH   1  19
HETATM   19  C2  UNL     1      22.080   1.253  49.906  1.00  0.00     0.030 C 
HETATM   20  C1  UNL     1      20.933   1.160  48.960  1.00  0.00     0.010 C 
ENDBRANCH   1  19
BRANCH   8  21
HETATM   21  O1  UNL     1      26.482   7.751  50.535  1.00  0.00    -0.345 OA
HETATM   22  H9  UNL     1      26.758   8.503  49.937  1.00  0.00     0.219 HD
ENDBRANCH   8  21
TORSDOF 2
ENDMDL
MODEL 2
REMARK VINA RESULT:      -6.5      7.585      9.996
REMARK  2 active torsions:
REMARK  status: ('A' for Active; 'I' for Inactive)
REMARK    1  A    between atoms: C2_2  and  C3_3 
REMARK    2  A    between atoms: C9_10  and  O1_11 
ROOT
HETATM    1  C3  UNL     1      30.761   8.947  48.321  1.00  0.00    -0.071 C 
HETATM    2  C4  UNL     1      31.441   8.622  49.453  1.00  0.00     0.006 C 
HETATM    3  C5  UNL     1      31.958   7.264  49.808  1.00  0.00     0.033 C 
HETATM    4  C6  UNL     1      31.950   6.234  48.972  1.00  0.00     0.069 A 
HETATM    5  C7  UNL     1      30.832   5.520  48.259  1.00  0.00     0.083 A 
HETATM    6  N1  UNL     1      30.872   4.494  47.494  1.00  0.00    -0.255 NA
HETATM    7  C8  UNL     1      32.150   3.876  47.201  1.00  0.00     0.173 A 
HETATM    8  C9  UNL     1      33.291   4.361  47.715  1.00  0.00     0.164 A 
HETATM    9  N2  UNL     1      33.033   5.475  48.529  1.00  0.00    -0.300 N 
HETATM   10  C10 UNL     1      34.182   6.260  48.841  1.00  0.00     0.099 C 
HETATM   11  C11 UNL     1      34.221   7.470  48.276  1.00  0.00     0.017 C 
HETATM   12  C12 UNL     1      33.755   8.562  47.467  1.00  0.00    -0.001 C 
HETATM   13  C13 UNL     1      32.781   9.042  46.664  1.00  0.00    -0.010 C 
HETATM   14  C14 UNL     1      31.389   8.799  45.978  1.00  0.00     0.092 C 
HETATM   15 BR1  UNL     1      31.752   7.631  44.502  1.00  0.00    -0.086 Br
HETATM   16  C15 UNL     1      30.697   8.133  47.039  1.00  0.00     0.055 C 
HETATM   17  C16 UNL     1      29.574   7.200  47.095  1.00  0.00    -0.014 C 
HETATM   18  C17 UNL     1      29.447   6.148  48.072  1.00  0.00     0.030 C 
ENDROOT
BRANCH   1  19
HETATM   19  C2  UNL     1      29.990  10.198  48.278  1.00  0.00     0.030 C 
HETATM   20  C1  UNL     1      30.661  11.338  48.965  1.00  0.00     0.010 C 
ENDBRANCH   1  19
BRANCH   8  21
HETATM   21  O1  UNL     1      34.537   3.822  47.462  1.00  0.00    -0.345 OA
HETATM   22  H9  UNL     1      35.066   4.060  46.649  1.00  0.00     0.219 HD
ENDBRANCH   8  21
TORSDOF 2
ENDMDL
MODEL 3
REMARK VINA RESULT:      -6.4      3.386      5.225
REMARK  2 active torsions:
REMARK  status: ('A' for Active; 'I' for Inactive)
REMARK    1  A    between atoms: C2_2  and  C3_3 
REMARK    2  A    between atoms: C9_10  and  O1_11 
ROOT
HETATM    1  C3  UNL     1      24.090   4.164  49.777  1.00  0.00    -0.071 C 
HETATM    2  C4  UNL     1      24.306   2.856  50.079  1.00  0.00     0.006 C 
HETATM    3  C5  UNL     1      23.375   1.964  50.837  1.00  0.00     0.033 C 
HETATM    4  C6  UNL     1      22.139   2.309  51.171  1.00  0.00     0.069 A 
HETATM    5  C7  UNL     1      21.595   3.434  52.012  1.00  0.00     0.083 A 
HETATM    6  N1  UNL     1      20.388   3.698  52.346  1.00  0.00    -0.255 NA
HETATM    7  C8  UNL     1      19.317   2.845  51.868  1.00  0.00     0.173 A 
HETATM    8  C9  UNL     1      19.568   1.788  51.081  1.00  0.00     0.164 A 
HETATM    9  N2  UNL     1      20.946   1.666  50.840  1.00  0.00    -0.300 N 
HETATM   10  C10 UNL     1      21.285   0.800  49.759  1.00  0.00     0.099 C 
HETATM   11  C11 UNL     1      21.785   1.402  48.677  1.00  0.00     0.017 C 
HETATM   12  C12 UNL     1      22.234   2.503  47.870  1.00  0.00    -0.001 C 
HETATM   13  C13 UNL     1      22.432   3.836  47.782  1.00  0.00    -0.010 C 
HETATM   14  C14 UNL     1      22.336   5.239  48.482  1.00  0.00     0.092 C 
HETATM   15 BR1  UNL     1      20.480   5.713  48.409  1.00  0.00    -0.086 Br
HETATM   16  C15 UNL     1      22.755   4.890  49.805  1.00  0.00     0.055 C 
HETATM   17  C16 UNL     1      22.526   5.463  51.130  1.00  0.00    -0.014 C 
HETATM   18  C17 UNL     1      22.419   4.685  52.338  1.00  0.00     0.030 C 
ENDROOT
BRANCH   1  19
HETATM   19  C2  UNL     1      25.226   5.009  49.378  1.00  0.00     0.030 C 
HETATM   20  C1  UNL     1      26.523   4.279  49.318  1.00  0.00     0.010 C 
ENDBRANCH   1  19
BRANCH   8  21
HETATM   21  O1  UNL     1      18.590   0.948  50.587  1.00  0.00    -0.345 OA
HETATM   22  H9  UNL     1      18.564   0.664  49.630  1.00  0.00     0.219 HD
ENDBRANCH   8  21
TORSDOF 2
ENDMDL
MODEL 4
REMARK VINA RESULT:      -6.4      2.777      4.601
REMARK  2 active torsions:
REMARK  status: ('A' for Active; 'I' for Inactive)
REMARK    1  A    between atoms: C2_2  and  C3_3 
REMARK    2  A    between atoms: C9_10  and  O1_11 
ROOT
HETATM    1  C3  UNL     1      19.541   1.585  50.703  1.00  0.00    -0.071 C 
HETATM    2  C4  UNL     1      19.334   2.478  51.708  1.00  0.00     0.006 C 
HETATM    3  C5  UNL     1      20.396   3.162  52.508  1.00  0.00     0.033 C 
HETATM    4  C6  UNL     1      21.689   3.096  52.220  1.00  0.00     0.069 A 
HETATM    5  C7  UNL     1      22.644   1.936  52.118  1.00  0.00     0.083 A 
HETATM    6  N1  UNL     1      23.902   1.929  51.881  1.00  0.00    -0.255 NA
HETATM    7  C8  UNL     1      24.587   3.185  51.643  1.00  0.00     0.173 A 
HETATM    8  C9  UNL     1      23.925   4.352  51.664  1.00  0.00     0.164 A 
HETATM    9  N2  UNL     1      22.566   4.146  51.948  1.00  0.00    -0.300 N 
HETATM   10  C10 UNL     1      21.724   5.261  51.661  1.00  0.00     0.099 C 
HETATM   11  C11 UNL     1      20.888   5.097  50.632  1.00  0.00     0.017 C 
HETATM   12  C12 UNL     1      20.265   4.407  49.537  1.00  0.00    -0.001 C 
HETATM   13  C13 UNL     1      20.188   3.270  48.811  1.00  0.00    -0.010 C 
HETATM   14  C14 UNL     1      20.708   1.806  48.583  1.00  0.00     0.092 C 
HETATM   15 BR1  UNL     1      22.408   2.005  47.718  1.00  0.00    -0.086 Br
HETATM   16  C15 UNL     1      20.837   1.369  49.939  1.00  0.00     0.055 C 
HETATM   17  C16 UNL     1      21.649   0.356  50.609  1.00  0.00    -0.014 C 
HETATM   18  C17 UNL     1      22.162   0.491  51.949  1.00  0.00     0.030 C 
ENDROOT
BRANCH   1  19
HETATM   19  C2  UNL     1      18.437   0.715  50.272  1.00  0.00     0.030 C 
HETATM   20  C1  UNL     1      17.973  -0.230  51.327  1.00  0.00     0.010 C 
ENDBRANCH   1  19
BRANCH   8  21
HETATM   21  O1  UNL     1      24.521   5.576  51.434  1.00  0.00    -0.345 OA
HETATM   22  H9  UNL     1      25.484   5.662  51.184  1.00  0.00     0.219 HD
ENDBRANCH   8  21
TORSDOF 2
ENDMDL
MODEL 5
REMARK VINA RESULT:      -6.3      2.169      3.837
REMARK  2 active torsions:
REMARK  status: ('A' for Active; 'I' for Inactive)
REMARK    1  A    between atoms: C2_2  and  C3_3 
REMARK    2  A    between atoms: C9_10  and  O1_11 
ROOT
HETATM    1  C3  UNL     1      23.763   2.614  51.667  1.00  0.00    -0.071 C 
HETATM    2  C4  UNL     1      23.515   3.625  52.541  1.00  0.00     0.006 C 
HETATM    3  C5  UNL     1      23.559   5.088  52.229  1.00  0.00     0.033 C 
HETATM    4  C6  UNL     1      23.693   5.572  51.002  1.00  0.00     0.069 A 
HETATM    5  C7  UNL     1      24.774   5.413  49.964  1.00  0.00     0.083 A 
HETATM    6  N1  UNL     1      24.880   5.943  48.804  1.00  0.00    -0.255 NA
HETATM    7  C8  UNL     1      23.834   6.828  48.330  1.00  0.00     0.173 A 
HETATM    8  C9  UNL     1      22.757   7.099  49.083  1.00  0.00     0.164 A 
HETATM    9  N2  UNL     1      22.834   6.431  50.316  1.00  0.00    -0.300 N 
HETATM   10  C10 UNL     1      21.606   6.376  51.039  1.00  0.00     0.099 C 
HETATM   11  C11 UNL     1      21.050   5.164  51.130  1.00  0.00     0.017 C 
HETATM   12  C12 UNL     1      20.934   3.748  50.921  1.00  0.00    -0.001 C 
HETATM   13  C13 UNL     1      21.481   2.633  50.390  1.00  0.00    -0.010 C 
HETATM   14  C14 UNL     1      22.669   1.993  49.587  1.00  0.00     0.092 C 
HETATM   15 BR1  UNL     1      22.353   2.467  47.756  1.00  0.00    -0.086 Br
HETATM   16  C15 UNL     1      23.771   2.712  50.150  1.00  0.00     0.055 C 
HETATM   17  C16 UNL     1      25.112   3.054  49.679  1.00  0.00    -0.014 C 
HETATM   18  C17 UNL     1      25.799   4.275  50.018  1.00  0.00     0.030 C 
ENDROOT
BRANCH   1  19
HETATM   19  C2  UNL     1      24.060   1.270  52.184  1.00  0.00     0.030 C 
HETATM   20  C1  UNL     1      23.061   0.774  53.172  1.00  0.00     0.010 C 
ENDBRANCH   1  19
BRANCH   8  21
HETATM   21  O1  UNL     1      21.725   7.923  48.680  1.00  0.00    -0.345 OA
HETATM   22  H9  UNL     1      21.184   7.738  47.861  1.00  0.00     0.219 HD
ENDBRANCH   8  21
TORSDOF 2
ENDMDL
MODEL 6
REMARK VINA RESULT:      -6.3      2.426      3.835
REMARK  2 active torsions:
REMARK  status: ('A' for Active; 'I' for Inactive)
REMARK    1  A    between atoms: C2_2  and  C3_3 
REMARK    2  A    between atoms: C9_10  and  O1_11 
ROOT
HETATM    1  C3  UNL     1      22.077   1.327  51.412  1.00  0.00    -0.071 C 
HETATM    2  C4  UNL     1      23.396   1.657  51.437  1.00  0.00     0.006 C 
HETATM    3  C5  UNL     1      24.111   2.501  50.430  1.00  0.00     0.033 C 
HETATM    4  C6  UNL     1      23.495   3.167  49.462  1.00  0.00     0.069 A 
HETATM    5  C7  UNL     1      22.618   2.716  48.324  1.00  0.00     0.083 A 
HETATM    6  N1  UNL     1      22.083   3.398  47.382  1.00  0.00    -0.255 NA
HETATM    7  C8  UNL     1      22.285   4.833  47.341  1.00  0.00     0.173 A 
HETATM    8  C9  UNL     1      23.020   5.458  48.274  1.00  0.00     0.164 A 
HETATM    9  N2  UNL     1      23.523   4.538  49.208  1.00  0.00    -0.300 N 
HETATM   10  C10 UNL     1      24.020   5.124  50.409  1.00  0.00     0.099 C 
HETATM   11  C11 UNL     1      23.295   4.885  51.506  1.00  0.00     0.017 C 
HETATM   12  C12 UNL     1      22.213   4.340  52.277  1.00  0.00    -0.001 C 
HETATM   13  C13 UNL     1      21.091   3.587  52.281  1.00  0.00    -0.010 C 
HETATM   14  C14 UNL     1      20.080   2.712  51.458  1.00  0.00     0.092 C 
HETATM   15 BR1  UNL     1      18.994   3.966  50.497  1.00  0.00    -0.086 Br
HETATM   16  C15 UNL     1      20.989   2.013  50.602  1.00  0.00     0.055 C 
HETATM   17  C16 UNL     1      20.871   1.383  49.289  1.00  0.00    -0.014 C 
HETATM   18  C17 UNL     1      21.930   1.346  48.313  1.00  0.00     0.030 C 
ENDROOT
BRANCH   1  19
HETATM   19  C2  UNL     1      21.600   0.201  52.227  1.00  0.00     0.030 C 
HETATM   20  C1  UNL     1      22.089   0.231  53.635  1.00  0.00     0.010 C 
ENDBRANCH   1  19
BRANCH   8  21
HETATM   21  O1  UNL     1      23.238   6.822  48.294  1.00  0.00    -0.345 OA
HETATM   22  H9  UNL     1      23.921   7.261  47.711  1.00  0.00     0.219 HD
ENDBRANCH   8  21
TORSDOF 2
ENDMDL
MODEL 7
REMARK VINA RESULT:      -6.2      3.280      4.863
REMARK  2 active torsions:
REMARK  status: ('A' for Active; 'I' for Inactive)
REMARK    1  A    between atoms: C2_2  and  C3_3 
REMARK    2  A    between atoms: C9_10  and  O1_11 
ROOT
HETATM    1  C3  UNL     1      22.786   5.393  50.357  1.00  0.00    -0.071 C 
HETATM    2  C4  UNL     1      23.477   5.483  51.525  1.00  0.00     0.006 C 
HETATM    3  C5  UNL     1      23.410   4.514  52.662  1.00  0.00     0.033 C 
HETATM    4  C6  UNL     1      22.777   3.350  52.599  1.00  0.00     0.069 A 
HETATM    5  C7  UNL     1      21.338   2.995  52.334  1.00  0.00     0.083 A 
HETATM    6  N1  UNL     1      20.763   1.851  52.330  1.00  0.00    -0.255 NA
HETATM    7  C8  UNL     1      21.550   0.661  52.590  1.00  0.00     0.173 A 
HETATM    8  C9  UNL     1      22.868   0.738  52.831  1.00  0.00     0.164 A 
HETATM    9  N2  UNL     1      23.300   2.073  52.801  1.00  0.00    -0.300 N 
HETATM   10  C10 UNL     1      24.714   2.237  52.706  1.00  0.00     0.099 C 
HETATM   11  C11 UNL     1      25.157   2.724  51.543  1.00  0.00     0.017 C 
HETATM   12  C12 UNL     1      25.057   3.234  50.204  1.00  0.00    -0.001 C 
HETATM   13  C13 UNL     1      24.246   3.572  49.178  1.00  0.00    -0.010 C 
HETATM   14  C14 UNL     1      22.778   3.683  48.631  1.00  0.00     0.092 C 
HETATM   15 BR1  UNL     1      22.275   1.890  48.173  1.00  0.00    -0.086 Br
HETATM   16  C15 UNL     1      22.105   4.152  49.803  1.00  0.00     0.055 C 
HETATM   17  C16 UNL     1      20.727   4.082  50.283  1.00  0.00    -0.014 C 
HETATM   18  C17 UNL     1      20.361   3.974  51.673  1.00  0.00     0.030 C 
ENDROOT
BRANCH   1  19
HETATM   19  C2  UNL     1      22.649   6.585  49.506  1.00  0.00     0.030 C 
HETATM   20  C1  UNL     1      21.971   7.727  50.180  1.00  0.00     0.010 C 
ENDBRANCH   1  19
BRANCH   8  21
HETATM   21  O1  UNL     1      23.669  -0.360  53.073  1.00  0.00    -0.345 OA
HETATM   22  H9  UNL     1      23.691  -0.820  53.960  1.00  0.00     0.219 HD
ENDBRANCH   8  21
TORSDOF 2
ENDMDL
MODEL 8
REMARK VINA RESULT:      -6.2      3.323      5.173
REMARK  2 active torsions:
REMARK  status: ('A' for Active; 'I' for Inactive)
REMARK    1  A    between atoms: C2_2  and  C3_3 
REMARK    2  A    between atoms: C9_10  and  O1_11 
ROOT
HETATM    1  C3  UNL     1      22.508   1.854  51.782  1.00  0.00    -0.071 C 
HETATM    2  C4  UNL     1      21.456   1.880  52.644  1.00  0.00     0.006 C 
HETATM    3  C5  UNL     1      20.374   2.912  52.678  1.00  0.00     0.033 C 
HETATM    4  C6  UNL     1      20.225   3.851  51.753  1.00  0.00     0.069 A 
HETATM    5  C7  UNL     1      21.133   4.954  51.277  1.00  0.00     0.083 A 
HETATM    6  N1  UNL     1      20.924   5.870  50.408  1.00  0.00    -0.255 NA
HETATM    7  C8  UNL     1      19.652   5.912  49.713  1.00  0.00     0.173 A 
HETATM    8  C9  UNL     1      18.693   5.006  49.963  1.00  0.00     0.164 A 
HETATM    9  N2  UNL     1      19.114   4.099  50.948  1.00  0.00    -0.300 N 
HETATM   10  C10 UNL     1      18.323   2.916  51.040  1.00  0.00     0.099 C 
HETATM   11  C11 UNL     1      18.924   1.792  50.640  1.00  0.00     0.017 C 
HETATM   12  C12 UNL     1      19.992   0.979  50.125  1.00  0.00    -0.001 C 
HETATM   13  C13 UNL     1      21.264   0.934  49.675  1.00  0.00    -0.010 C 
HETATM   14  C14 UNL     1      22.586   1.719  49.357  1.00  0.00     0.092 C 
HETATM   15 BR1  UNL     1      22.247   2.629  47.704  1.00  0.00    -0.086 Br
HETATM   16  C15 UNL     1      22.623   2.615  50.472  1.00  0.00     0.055 C 
HETATM   17  C16 UNL     1      23.226   3.926  50.706  1.00  0.00    -0.014 C 
HETATM   18  C17 UNL     1      22.643   4.944  51.543  1.00  0.00     0.030 C 
ENDROOT
BRANCH   1  19
HETATM   19  C2  UNL     1      23.680   1.025  52.100  1.00  0.00     0.030 C 
HETATM   20  C1  UNL     1      23.398  -0.060  53.081  1.00  0.00     0.010 C 
ENDBRANCH   1  19
BRANCH   8  21
HETATM   21  O1  UNL     1      17.469   4.989  49.324  1.00  0.00    -0.345 OA
HETATM   22  H9  UNL     1      16.651   5.393  49.730  1.00  0.00     0.219 HD
ENDBRANCH   8  21
TORSDOF 2
ENDMDL
MODEL 9
REMARK VINA RESULT:      -6.1      3.360      4.923
REMARK  2 active torsions:
REMARK  status: ('A' for Active; 'I' for Inactive)
REMARK    1  A    between atoms: C2_2  and  C3_3 
REMARK    2  A    between atoms: C9_10  and  O1_11 
ROOT
HETATM    1  C3  UNL     1      23.186   2.651  51.983  1.00  0.00    -0.071 C 
HETATM    2  C4  UNL     1      23.152   1.461  51.326  1.00  0.00     0.006 C 
HETATM    3  C5  UNL     1      22.023   0.952  50.487  1.00  0.00     0.033 C 
HETATM    4  C6  UNL     1      20.969   1.684  50.153  1.00  0.00     0.069 A 
HETATM    5  C7  UNL     1      19.919   2.381  50.978  1.00  0.00     0.083 A 
HETATM    6  N1  UNL     1      18.887   3.041  50.604  1.00  0.00    -0.255 NA
HETATM    7  C8  UNL     1      18.627   3.209  49.188  1.00  0.00     0.173 A 
HETATM    8  C9  UNL     1      19.449   2.688  48.263  1.00  0.00     0.164 A 
HETATM    9  N2  UNL     1      20.509   1.998  48.874  1.00  0.00    -0.300 N 
HETATM   10  C10 UNL     1      21.603   1.706  48.009  1.00  0.00     0.099 C 
HETATM   11  C11 UNL     1      22.728   2.382  48.259  1.00  0.00     0.017 C 
HETATM   12  C12 UNL     1      23.581   3.314  48.942  1.00  0.00    -0.001 C 
HETATM   13  C13 UNL     1      23.707   4.207  49.948  1.00  0.00    -0.010 C 
HETATM   14  C14 UNL     1      23.034   4.935  51.166  1.00  0.00     0.092 C 
HETATM   15 BR1  UNL     1      21.901   6.272  50.390  1.00  0.00    -0.086 Br
HETATM   16  C15 UNL     1      22.288   3.851  51.728  1.00  0.00     0.055 C 
HETATM   17  C16 UNL     1      21.087   3.762  52.556  1.00  0.00    -0.014 C 
HETATM   18  C17 UNL     1      20.121   2.696  52.464  1.00  0.00     0.030 C 
ENDROOT
BRANCH   1  19
HETATM   19  C2  UNL     1      24.167   2.852  53.060  1.00  0.00     0.030 C 
HETATM   20  C1  UNL     1      25.502   2.258  52.772  1.00  0.00     0.010 C 
ENDBRANCH   1  19
BRANCH   8  21
HETATM   21  O1  UNL     1      19.259   2.825  46.903  1.00  0.00    -0.345 OA
HETATM   22  H9  UNL     1      18.366   2.697  46.473  1.00  0.00     0.219 HD
ENDBRANCH   8  21
TORSDOF 2
ENDMDL
