MODEL 1
REMARK VINA RESULT:      -7.1      0.000      0.000
REMARK  7 active torsions:
REMARK  status: ('A' for Active; 'I' for Inactive)
REMARK    1  A    between atoms: C1_2  and  C2_3 
REMARK    2  A    between atoms: C2_3  and  O2_4 
REMARK    3  A    between atoms: O2_4  and  C3_5 
REMARK    4  A    between atoms: N4_15  and  C10_16 
REMARK    5  A    between atoms: C10_16  and  C11_17 
REMARK    6  A    between atoms: C11_17  and  C12_18 
REMARK    7  A    between atoms: C12_18  and  N5_19 
ROOT
HETATM    1  C3  UNL     1      24.012  -0.108  53.456  1.00  0.00     0.146 C 
HETATM    2  C4  UNL     1      25.140  -0.435  54.095  1.00  0.00     0.090 C 
HETATM    3  C5  UNL     1      26.375   0.310  54.236  1.00  0.00     0.092 A 
HETATM    4  N1  UNL     1      27.471  -0.365  54.655  1.00  0.00    -0.238 NA
HETATM    5  C6  UNL     1      28.652   0.284  54.804  1.00  0.00     0.257 A 
HETATM    6  N2  UNL     1      28.796   1.615  54.546  1.00  0.00    -0.143 NA
HETATM    7  N3  UNL     1      27.730   2.291  54.133  1.00  0.00    -0.147 NA
HETATM    8  C7  UNL     1      26.529   1.675  53.972  1.00  0.00     0.109 A 
HETATM    9  C8  UNL     1      25.522   2.627  53.514  1.00  0.00     0.053 C 
HETATM   10  C9  UNL     1      24.340   2.353  52.989  1.00  0.00     0.095 C 
HETATM   11  N4  UNL     1      23.737   1.095  52.734  1.00  0.00    -0.338 N 
ENDROOT
BRANCH  11  12
HETATM   12  C10 UNL     1      22.769   0.918  51.677  1.00  0.00     0.132 C 
BRANCH  12  13
HETATM   13  C11 UNL     1      21.976   2.140  51.362  1.00  0.00     0.050 C 
BRANCH  13  14
HETATM   14  C12 UNL     1      21.950   2.599  49.957  1.00  0.00     0.274 C 
BRANCH  14  15
HETATM   15  N5  UNL     1      22.714   3.791  49.669  1.00  0.00     0.092 N 
HETATM   16  C13 UNL     1      24.058   3.504  49.251  1.00  0.00     0.298 C 
HETATM   17  C14 UNL     1      24.973   4.683  49.322  1.00  0.00     0.198 C 
HETATM   18  O3  UNL     1      25.029   5.021  50.697  1.00  0.00    -0.388 OA
HETATM   19  C15 UNL     1      23.818   5.577  50.998  1.00  0.00     0.198 C 
HETATM   20  C16 UNL     1      22.610   4.781  50.692  1.00  0.00     0.298 C 
ENDBRANCH  14  15
ENDBRANCH  13  14
ENDBRANCH  12  13
ENDBRANCH  11  12
BRANCH   1  21
HETATM   21  O2  UNL     1      23.060  -1.107  53.561  1.00  0.00    -0.329 OA
BRANCH  21  22
HETATM   22  C2  UNL     1      22.353  -1.255  54.774  1.00  0.00     0.246 C 
BRANCH  22  23
HETATM   23  C1  UNL     1      21.208  -0.291  54.853  1.00  0.00     0.257 C 
HETATM   24  O1  UNL     1      20.544   0.588  54.355  1.00  0.00    -0.305 OA
ENDBRANCH  22  23
ENDBRANCH  21  22
ENDBRANCH   1  21
TORSDOF 7
ENDMDL
MODEL 2
REMARK VINA RESULT:      -6.9      1.544      2.024
REMARK  7 active torsions:
REMARK  status: ('A' for Active; 'I' for Inactive)
REMARK    1  A    between atoms: C1_2  and  C2_3 
REMARK    2  A    between atoms: C2_3  and  O2_4 
REMARK    3  A    between atoms: O2_4  and  C3_5 
REMARK    4  A    between atoms: N4_15  and  C10_16 
REMARK    5  A    between atoms: C10_16  and  C11_17 
REMARK    6  A    between atoms: C11_17  and  C12_18 
REMARK    7  A    between atoms: C12_18  and  N5_19 
ROOT
HETATM    1  C3  UNL     1      24.677  -0.078  53.342  1.00  0.00     0.146 C 
HETATM    2  C4  UNL     1      25.746  -0.859  53.528  1.00  0.00     0.090 C 
HETATM    3  C5  UNL     1      27.154  -0.517  53.533  1.00  0.00     0.092 A 
HETATM    4  N1  UNL     1      28.046  -1.531  53.426  1.00  0.00    -0.238 NA
HETATM    5  C6  UNL     1      29.376  -1.267  53.426  1.00  0.00     0.257 A 
HETATM    6  N2  UNL     1      29.873  -0.001  53.530  1.00  0.00    -0.143 NA
HETATM    7  N3  UNL     1      29.011   1.003  53.634  1.00  0.00    -0.147 NA
HETATM    8  C7  UNL     1      27.670   0.778  53.638  1.00  0.00     0.109 A 
HETATM    9  C8  UNL     1      26.940   2.035  53.763  1.00  0.00     0.053 C 
HETATM   10  C9  UNL     1      25.657   2.244  53.526  1.00  0.00     0.095 C 
HETATM   11  N4  UNL     1      24.659   1.331  53.096  1.00  0.00    -0.338 N 
ENDROOT
BRANCH  11  12
HETATM   12  C10 UNL     1      23.509   1.764  52.339  1.00  0.00     0.132 C 
BRANCH  12  13
HETATM   13  C11 UNL     1      23.581   3.176  51.869  1.00  0.00     0.050 C 
BRANCH  13  14
HETATM   14  C12 UNL     1      24.125   3.425  50.518  1.00  0.00     0.274 C 
BRANCH  14  15
HETATM   15  N5  UNL     1      25.269   4.305  50.452  1.00  0.00     0.092 N 
HETATM   16  C13 UNL     1      24.929   5.628  50.004  1.00  0.00     0.298 C 
HETATM   17  C14 UNL     1      26.107   6.431  49.558  1.00  0.00     0.198 C 
HETATM   18  O3  UNL     1      26.624   5.733  48.438  1.00  0.00    -0.388 OA
HETATM   19  C15 UNL     1      27.215   4.606  48.935  1.00  0.00     0.198 C 
HETATM   20  C16 UNL     1      26.386   3.721  49.782  1.00  0.00     0.298 C 
ENDBRANCH  14  15
ENDBRANCH  13  14
ENDBRANCH  12  13
ENDBRANCH  11  12
BRANCH   1  21
HETATM   21  O2  UNL     1      23.500  -0.801  53.413  1.00  0.00    -0.329 OA
BRANCH  21  22
HETATM   22  C2  UNL     1      22.940  -1.076  54.680  1.00  0.00     0.246 C 
BRANCH  22  23
HETATM   23  C1  UNL     1      21.548  -0.528  54.785  1.00  0.00     0.257 C 
HETATM   24  O1  UNL     1      20.765   0.379  54.621  1.00  0.00    -0.305 OA
ENDBRANCH  22  23
ENDBRANCH  21  22
ENDBRANCH   1  21
TORSDOF 7
ENDMDL
MODEL 3
REMARK VINA RESULT:      -6.5      1.949      2.576
REMARK  7 active torsions:
REMARK  status: ('A' for Active; 'I' for Inactive)
REMARK    1  A    between atoms: C1_2  and  C2_3 
REMARK    2  A    between atoms: C2_3  and  O2_4 
REMARK    3  A    between atoms: O2_4  and  C3_5 
REMARK    4  A    between atoms: N4_15  and  C10_16 
REMARK    5  A    between atoms: C10_16  and  C11_17 
REMARK    6  A    between atoms: C11_17  and  C12_18 
REMARK    7  A    between atoms: C12_18  and  N5_19 
ROOT
HETATM    1  C3  UNL     1      23.976  -0.114  53.383  1.00  0.00     0.146 C 
HETATM    2  C4  UNL     1      25.088  -0.444  54.048  1.00  0.00     0.090 C 
HETATM    3  C5  UNL     1      26.319   0.300  54.219  1.00  0.00     0.092 A 
HETATM    4  N1  UNL     1      27.405  -0.377  54.664  1.00  0.00    -0.238 NA
HETATM    5  C6  UNL     1      28.582   0.271  54.843  1.00  0.00     0.257 A 
HETATM    6  N2  UNL     1      28.733   1.602  54.590  1.00  0.00    -0.143 NA
HETATM    7  N3  UNL     1      27.679   2.280  54.153  1.00  0.00    -0.147 NA
HETATM    8  C7  UNL     1      26.481   1.666  53.962  1.00  0.00     0.109 A 
HETATM    9  C8  UNL     1      25.487   2.619  53.482  1.00  0.00     0.053 C 
HETATM   10  C9  UNL     1      24.317   2.347  52.929  1.00  0.00     0.095 C 
HETATM   11  N4  UNL     1      23.719   1.090  52.656  1.00  0.00    -0.338 N 
ENDROOT
BRANCH  11  12
HETATM   12  C10 UNL     1      22.777   0.916  51.576  1.00  0.00     0.132 C 
BRANCH  12  13
HETATM   13  C11 UNL     1      22.867   1.954  50.511  1.00  0.00     0.050 C 
BRANCH  13  14
HETATM   14  C12 UNL     1      21.843   1.937  49.445  1.00  0.00     0.274 C 
BRANCH  14  15
HETATM   15  N5  UNL     1      20.570   2.529  49.786  1.00  0.00     0.092 N 
HETATM   16  C13 UNL     1      20.705   3.753  50.528  1.00  0.00     0.298 C 
HETATM   17  C14 UNL     1      19.451   4.177  51.219  1.00  0.00     0.198 C 
HETATM   18  O3  UNL     1      19.185   3.149  52.158  1.00  0.00    -0.388 OA
HETATM   19  C15 UNL     1      18.763   2.073  51.430  1.00  0.00     0.198 C 
HETATM   20  C16 UNL     1      19.652   1.593  50.349  1.00  0.00     0.298 C 
ENDBRANCH  14  15
ENDBRANCH  13  14
ENDBRANCH  12  13
ENDBRANCH  11  12
BRANCH   1  21
HETATM   21  O2  UNL     1      23.021  -1.112  53.463  1.00  0.00    -0.329 OA
BRANCH  21  22
HETATM   22  C2  UNL     1      22.001  -1.008  54.435  1.00  0.00     0.246 C 
BRANCH  22  23
HETATM   23  C1  UNL     1      20.658  -0.834  53.791  1.00  0.00     0.257 C 
HETATM   24  O1  UNL     1      19.494  -1.145  53.700  1.00  0.00    -0.305 OA
ENDBRANCH  22  23
ENDBRANCH  21  22
ENDBRANCH   1  21
TORSDOF 7
ENDMDL
MODEL 4
REMARK VINA RESULT:      -6.5      2.569      4.562
REMARK  7 active torsions:
REMARK  status: ('A' for Active; 'I' for Inactive)
REMARK    1  A    between atoms: C1_2  and  C2_3 
REMARK    2  A    between atoms: C2_3  and  O2_4 
REMARK    3  A    between atoms: O2_4  and  C3_5 
REMARK    4  A    between atoms: N4_15  and  C10_16 
REMARK    5  A    between atoms: C10_16  and  C11_17 
REMARK    6  A    between atoms: C11_17  and  C12_18 
REMARK    7  A    between atoms: C12_18  and  N5_19 
ROOT
HETATM    1  C3  UNL     1      25.719   0.717  52.238  1.00  0.00     0.146 C 
HETATM    2  C4  UNL     1      25.134  -0.133  53.088  1.00  0.00     0.090 C 
HETATM    3  C5  UNL     1      23.748  -0.225  53.499  1.00  0.00     0.092 A 
HETATM    4  N1  UNL     1      23.468  -0.960  54.602  1.00  0.00    -0.238 NA
HETATM    5  C6  UNL     1      22.188  -1.080  55.030  1.00  0.00     0.257 A 
HETATM    6  N2  UNL     1      21.141  -0.482  54.392  1.00  0.00    -0.143 NA
HETATM    7  N3  UNL     1      21.399   0.242  53.311  1.00  0.00    -0.147 NA
HETATM    8  C7  UNL     1      22.670   0.386  52.850  1.00  0.00     0.109 A 
HETATM    9  C8  UNL     1      22.691   1.222  51.655  1.00  0.00     0.053 C 
HETATM   10  C9  UNL     1      23.742   1.804  51.101  1.00  0.00     0.095 C 
HETATM   11  N4  UNL     1      25.102   1.777  51.503  1.00  0.00    -0.338 N 
ENDROOT
BRANCH  11  12
HETATM   12  C10 UNL     1      26.004   2.862  51.199  1.00  0.00     0.132 C 
BRANCH  12  13
HETATM   13  C11 UNL     1      25.699   3.574  49.926  1.00  0.00     0.050 C 
BRANCH  13  14
HETATM   14  C12 UNL     1      25.556   5.044  49.977  1.00  0.00     0.274 C 
BRANCH  14  15
HETATM   15  N5  UNL     1      24.202   5.547  49.941  1.00  0.00     0.092 N 
HETATM   16  C13 UNL     1      23.618   5.667  51.249  1.00  0.00     0.298 C 
HETATM   17  C14 UNL     1      22.130   5.804  51.231  1.00  0.00     0.198 C 
HETATM   18  O3  UNL     1      21.657   4.590  50.674  1.00  0.00    -0.388 OA
HETATM   19  C15 UNL     1      21.967   4.638  49.344  1.00  0.00     0.198 C 
HETATM   20  C16 UNL     1      23.382   4.876  48.985  1.00  0.00     0.298 C 
ENDBRANCH  14  15
ENDBRANCH  13  14
ENDBRANCH  12  13
ENDBRANCH  11  12
BRANCH   1  21
HETATM   21  O2  UNL     1      27.075   0.468  52.121  1.00  0.00    -0.329 OA
BRANCH  21  22
HETATM   22  C2  UNL     1      27.831   0.225  53.288  1.00  0.00     0.246 C 
BRANCH  22  23
HETATM   23  C1  UNL     1      28.449   1.491  53.803  1.00  0.00     0.257 C 
HETATM   24  O1  UNL     1      28.370   2.674  54.035  1.00  0.00    -0.305 OA
ENDBRANCH  22  23
ENDBRANCH  21  22
ENDBRANCH   1  21
TORSDOF 7
ENDMDL
MODEL 5
REMARK VINA RESULT:      -6.5      2.083      2.878
REMARK  7 active torsions:
REMARK  status: ('A' for Active; 'I' for Inactive)
REMARK    1  A    between atoms: C1_2  and  C2_3 
REMARK    2  A    between atoms: C2_3  and  O2_4 
REMARK    3  A    between atoms: O2_4  and  C3_5 
REMARK    4  A    between atoms: N4_15  and  C10_16 
REMARK    5  A    between atoms: C10_16  and  C11_17 
REMARK    6  A    between atoms: C11_17  and  C12_18 
REMARK    7  A    between atoms: C12_18  and  N5_19 
ROOT
HETATM    1  C3  UNL     1      24.750   0.483  53.300  1.00  0.00     0.146 C 
HETATM    2  C4  UNL     1      25.367  -0.704  53.308  1.00  0.00     0.090 C 
HETATM    3  C5  UNL     1      26.782  -1.012  53.295  1.00  0.00     0.092 A 
HETATM    4  N1  UNL     1      27.145  -2.280  52.987  1.00  0.00    -0.238 NA
HETATM    5  C6  UNL     1      28.456  -2.623  52.961  1.00  0.00     0.257 A 
HETATM    6  N2  UNL     1      29.453  -1.734  53.234  1.00  0.00    -0.143 NA
HETATM    7  N3  UNL     1      29.114  -0.487  53.537  1.00  0.00    -0.147 NA
HETATM    8  C7  UNL     1      27.809  -0.105  53.574  1.00  0.00     0.109 A 
HETATM    9  C8  UNL     1      27.698   1.306  53.930  1.00  0.00     0.053 C 
HETATM   10  C9  UNL     1      26.640   2.086  53.793  1.00  0.00     0.095 C 
HETATM   11  N4  UNL     1      25.354   1.779  53.277  1.00  0.00    -0.338 N 
ENDROOT
BRANCH  11  12
HETATM   12  C10 UNL     1      24.526   2.785  52.656  1.00  0.00     0.132 C 
BRANCH  12  13
HETATM   13  C11 UNL     1      24.504   2.727  51.167  1.00  0.00     0.050 C 
BRANCH  13  14
HETATM   14  C12 UNL     1      23.660   3.707  50.452  1.00  0.00     0.274 C 
BRANCH  14  15
HETATM   15  N5  UNL     1      22.513   3.164  49.762  1.00  0.00     0.092 N 
HETATM   16  C13 UNL     1      22.335   1.757  49.996  1.00  0.00     0.298 C 
HETATM   17  C14 UNL     1      21.420   1.097  49.017  1.00  0.00     0.198 C 
HETATM   18  O3  UNL     1      22.067   1.232  47.763  1.00  0.00    -0.388 OA
HETATM   19  C15 UNL     1      21.954   2.550  47.420  1.00  0.00     0.198 C 
HETATM   20  C16 UNL     1      22.453   3.549  48.389  1.00  0.00     0.298 C 
ENDBRANCH  14  15
ENDBRANCH  13  14
ENDBRANCH  12  13
ENDBRANCH  11  12
BRANCH   1  21
HETATM   21  O2  UNL     1      23.374   0.342  53.317  1.00  0.00    -0.329 OA
BRANCH  21  22
HETATM   22  C2  UNL     1      22.813  -0.930  53.070  1.00  0.00     0.246 C 
BRANCH  22  23
HETATM   23  C1  UNL     1      21.919  -1.354  54.197  1.00  0.00     0.257 C 
HETATM   24  O1  UNL     1      21.765  -1.919  55.254  1.00  0.00    -0.305 OA
ENDBRANCH  22  23
ENDBRANCH  21  22
ENDBRANCH   1  21
TORSDOF 7
ENDMDL
MODEL 6
REMARK VINA RESULT:      -6.4      2.572      4.211
REMARK  7 active torsions:
REMARK  status: ('A' for Active; 'I' for Inactive)
REMARK    1  A    between atoms: C1_2  and  C2_3 
REMARK    2  A    between atoms: C2_3  and  O2_4 
REMARK    3  A    between atoms: O2_4  and  C3_5 
REMARK    4  A    between atoms: N4_15  and  C10_16 
REMARK    5  A    between atoms: C10_16  and  C11_17 
REMARK    6  A    between atoms: C11_17  and  C12_18 
REMARK    7  A    between atoms: C12_18  and  N5_19 
ROOT
HETATM    1  C3  UNL     1      25.556   2.248  51.365  1.00  0.00     0.146 C 
HETATM    2  C4  UNL     1      26.827   2.039  51.726  1.00  0.00     0.090 C 
HETATM    3  C5  UNL     1      27.361   1.266  52.828  1.00  0.00     0.092 A 
HETATM    4  N1  UNL     1      28.657   1.469  53.167  1.00  0.00    -0.238 NA
HETATM    5  C6  UNL     1      29.208   0.771  54.190  1.00  0.00     0.257 A 
HETATM    6  N2  UNL     1      28.506  -0.147  54.915  1.00  0.00    -0.143 NA
HETATM    7  N3  UNL     1      27.235  -0.356  54.596  1.00  0.00    -0.147 NA
HETATM    8  C7  UNL     1      26.647   0.324  53.575  1.00  0.00     0.109 A 
HETATM    9  C8  UNL     1      25.254  -0.083  53.423  1.00  0.00     0.053 C 
HETATM   10  C9  UNL     1      24.306   0.540  52.745  1.00  0.00     0.095 C 
HETATM   11  N4  UNL     1      24.377   1.742  51.996  1.00  0.00    -0.338 N 
ENDROOT
BRANCH  11  12
HETATM   12  C10 UNL     1      23.223   2.590  51.812  1.00  0.00     0.132 C 
BRANCH  12  13
HETATM   13  C11 UNL     1      23.233   3.828  52.643  1.00  0.00     0.050 C 
BRANCH  13  14
HETATM   14  C12 UNL     1      22.347   4.938  52.235  1.00  0.00     0.274 C 
BRANCH  14  15
HETATM   15  N5  UNL     1      22.765   5.680  51.068  1.00  0.00     0.092 N 
HETATM   16  C13 UNL     1      24.103   6.192  51.182  1.00  0.00     0.298 C 
HETATM   17  C14 UNL     1      24.422   7.266  50.193  1.00  0.00     0.198 C 
HETATM   18  O3  UNL     1      23.542   8.330  50.511  1.00  0.00    -0.388 OA
HETATM   19  C15 UNL     1      22.300   7.925  50.108  1.00  0.00     0.198 C 
HETATM   20  C16 UNL     1      21.799   6.639  50.639  1.00  0.00     0.298 C 
ENDBRANCH  14  15
ENDBRANCH  13  14
ENDBRANCH  12  13
ENDBRANCH  11  12
BRANCH   1  21
HETATM   21  O2  UNL     1      25.471   3.054  50.244  1.00  0.00    -0.329 OA
BRANCH  21  22
HETATM   22  C2  UNL     1      26.612   3.215  49.427  1.00  0.00     0.246 C 
BRANCH  22  23
HETATM   23  C1  UNL     1      26.897   4.666  49.178  1.00  0.00     0.257 C 
HETATM   24  O1  UNL     1      26.993   5.596  48.413  1.00  0.00    -0.305 OA
ENDBRANCH  22  23
ENDBRANCH  21  22
ENDBRANCH   1  21
TORSDOF 7
ENDMDL
MODEL 7
REMARK VINA RESULT:      -6.4      1.642      1.934
REMARK  7 active torsions:
REMARK  status: ('A' for Active; 'I' for Inactive)
REMARK    1  A    between atoms: C1_2  and  C2_3 
REMARK    2  A    between atoms: C2_3  and  O2_4 
REMARK    3  A    between atoms: O2_4  and  C3_5 
REMARK    4  A    between atoms: N4_15  and  C10_16 
REMARK    5  A    between atoms: C10_16  and  C11_17 
REMARK    6  A    between atoms: C11_17  and  C12_18 
REMARK    7  A    between atoms: C12_18  and  N5_19 
ROOT
HETATM    1  C3  UNL     1      24.829  -0.040  53.170  1.00  0.00     0.146 C 
HETATM    2  C4  UNL     1      25.868  -0.840  53.430  1.00  0.00     0.090 C 
HETATM    3  C5  UNL     1      27.284  -0.538  53.460  1.00  0.00     0.092 A 
HETATM    4  N1  UNL     1      28.149  -1.581  53.436  1.00  0.00    -0.238 NA
HETATM    5  C6  UNL     1      29.485  -1.355  53.463  1.00  0.00     0.257 A 
HETATM    6  N2  UNL     1      30.017  -0.100  53.514  1.00  0.00    -0.143 NA
HETATM    7  N3  UNL     1      29.183   0.932  53.537  1.00  0.00    -0.147 NA
HETATM    8  C7  UNL     1      27.836   0.746  53.512  1.00  0.00     0.109 A 
HETATM    9  C8  UNL     1      27.140   2.028  53.547  1.00  0.00     0.053 C 
HETATM   10  C9  UNL     1      25.871   2.260  53.259  1.00  0.00     0.095 C 
HETATM   11  N4  UNL     1      24.860   1.353  52.848  1.00  0.00    -0.338 N 
ENDROOT
BRANCH  11  12
HETATM   12  C10 UNL     1      23.746   1.777  52.034  1.00  0.00     0.132 C 
BRANCH  12  13
HETATM   13  C11 UNL     1      22.969   2.915  52.603  1.00  0.00     0.050 C 
BRANCH  13  14
HETATM   14  C12 UNL     1      21.820   3.421  51.824  1.00  0.00     0.274 C 
BRANCH  14  15
HETATM   15  N5  UNL     1      22.109   4.491  50.897  1.00  0.00     0.092 N 
HETATM   16  C13 UNL     1      23.153   5.363  51.361  1.00  0.00     0.298 C 
HETATM   17  C14 UNL     1      23.210   6.669  50.638  1.00  0.00     0.198 C 
HETATM   18  O3  UNL     1      21.977   7.304  50.932  1.00  0.00    -0.388 OA
HETATM   19  C15 UNL     1      21.025   6.624  50.226  1.00  0.00     0.198 C 
HETATM   20  C16 UNL     1      20.937   5.163  50.436  1.00  0.00     0.298 C 
ENDBRANCH  14  15
ENDBRANCH  13  14
ENDBRANCH  12  13
ENDBRANCH  11  12
BRANCH   1  21
HETATM   21  O2  UNL     1      23.628  -0.724  53.243  1.00  0.00    -0.329 OA
BRANCH  21  22
HETATM   22  C2  UNL     1      23.056  -0.969  54.510  1.00  0.00     0.246 C 
BRANCH  22  23
HETATM   23  C1  UNL     1      21.672  -0.398  54.597  1.00  0.00     0.257 C 
HETATM   24  O1  UNL     1      20.815   0.337  54.166  1.00  0.00    -0.305 OA
ENDBRANCH  22  23
ENDBRANCH  21  22
ENDBRANCH   1  21
TORSDOF 7
ENDMDL
MODEL 8
REMARK VINA RESULT:      -6.3      2.659      5.189
REMARK  7 active torsions:
REMARK  status: ('A' for Active; 'I' for Inactive)
REMARK    1  A    between atoms: C1_2  and  C2_3 
REMARK    2  A    between atoms: C2_3  and  O2_4 
REMARK    3  A    between atoms: O2_4  and  C3_5 
REMARK    4  A    between atoms: N4_15  and  C10_16 
REMARK    5  A    between atoms: C10_16  and  C11_17 
REMARK    6  A    between atoms: C11_17  and  C12_18 
REMARK    7  A    between atoms: C12_18  and  N5_19 
ROOT
HETATM    1  C3  UNL     1      24.387   2.069  53.017  1.00  0.00     0.146 C 
HETATM    2  C4  UNL     1      25.681   2.278  53.284  1.00  0.00     0.090 C 
HETATM    3  C5  UNL     1      26.692   1.352  53.751  1.00  0.00     0.092 A 
HETATM    4  N1  UNL     1      27.840   1.874  54.247  1.00  0.00    -0.238 NA
HETATM    5  C6  UNL     1      28.819   1.052  54.697  1.00  0.00     0.257 A 
HETATM    6  N2  UNL     1      28.705  -0.307  54.677  1.00  0.00    -0.143 NA
HETATM    7  N3  UNL     1      27.585  -0.833  54.196  1.00  0.00    -0.147 NA
HETATM    8  C7  UNL     1      26.580  -0.042  53.734  1.00  0.00     0.109 A 
HETATM    9  C8  UNL     1      25.465  -0.854  53.260  1.00  0.00     0.053 C 
HETATM   10  C9  UNL     1      24.231  -0.453  53.009  1.00  0.00     0.095 C 
HETATM   11  N4  UNL     1      23.662   0.841  53.128  1.00  0.00    -0.338 N 
ENDROOT
BRANCH  11  12
HETATM   12  C10 UNL     1      22.255   1.031  53.391  1.00  0.00     0.132 C 
BRANCH  12  13
HETATM   13  C11 UNL     1      21.354   0.272  52.479  1.00  0.00     0.050 C 
BRANCH  13  14
HETATM   14  C12 UNL     1      20.055   0.885  52.129  1.00  0.00     0.274 C 
BRANCH  14  15
HETATM   15  N5  UNL     1      18.957  -0.034  51.934  1.00  0.00     0.092 N 
HETATM   16  C13 UNL     1      17.741   0.625  51.547  1.00  0.00     0.298 C 
HETATM   17  C14 UNL     1      16.520  -0.220  51.714  1.00  0.00     0.198 C 
HETATM   18  O3  UNL     1      16.434  -0.466  53.107  1.00  0.00    -0.388 OA
HETATM   19  C15 UNL     1      17.437  -1.347  53.398  1.00  0.00     0.198 C 
HETATM   20  C16 UNL     1      18.811  -0.965  53.007  1.00  0.00     0.298 C 
ENDBRANCH  14  15
ENDBRANCH  13  14
ENDBRANCH  12  13
ENDBRANCH  11  12
BRANCH   1  21
HETATM   21  O2  UNL     1      23.762   3.226  52.590  1.00  0.00    -0.329 OA
BRANCH  21  22
HETATM   22  C2  UNL     1      24.028   3.710  51.290  1.00  0.00     0.246 C 
BRANCH  22  23
HETATM   23  C1  UNL     1      23.180   3.011  50.270  1.00  0.00     0.257 C 
HETATM   24  O1  UNL     1      22.775   1.989  49.770  1.00  0.00    -0.305 OA
ENDBRANCH  22  23
ENDBRANCH  21  22
ENDBRANCH   1  21
TORSDOF 7
ENDMDL
MODEL 9
REMARK VINA RESULT:      -6.2      2.431      5.086
REMARK  7 active torsions:
REMARK  status: ('A' for Active; 'I' for Inactive)
REMARK    1  A    between atoms: C1_2  and  C2_3 
REMARK    2  A    between atoms: C2_3  and  O2_4 
REMARK    3  A    between atoms: O2_4  and  C3_5 
REMARK    4  A    between atoms: N4_15  and  C10_16 
REMARK    5  A    between atoms: C10_16  and  C11_17 
REMARK    6  A    between atoms: C11_17  and  C12_18 
REMARK    7  A    between atoms: C12_18  and  N5_19 
ROOT
HETATM    1  C3  UNL     1      25.583   2.487  51.788  1.00  0.00     0.146 C 
HETATM    2  C4  UNL     1      26.880   2.250  52.013  1.00  0.00     0.090 C 
HETATM    3  C5  UNL     1      27.507   1.241  52.841  1.00  0.00     0.092 A 
HETATM    4  N1  UNL     1      28.815   1.407  53.152  1.00  0.00    -0.238 NA
HETATM    5  C6  UNL     1      29.450   0.492  53.924  1.00  0.00     0.257 A 
HETATM    6  N2  UNL     1      28.825  -0.615  54.416  1.00  0.00    -0.143 NA
HETATM    7  N3  UNL     1      27.543  -0.793  54.120  1.00  0.00    -0.147 NA
HETATM    8  C7  UNL     1      26.871   0.103  53.349  1.00  0.00     0.109 A 
HETATM    9  C8  UNL     1      25.484  -0.314  53.169  1.00  0.00     0.053 C 
HETATM   10  C9  UNL     1      24.477   0.421  52.730  1.00  0.00     0.095 C 
HETATM   11  N4  UNL     1      24.462   1.780  52.324  1.00  0.00    -0.338 N 
ENDROOT
BRANCH  11  12
HETATM   12  C10 UNL     1      23.273   2.592  52.432  1.00  0.00     0.132 C 
BRANCH  12  13
HETATM   13  C11 UNL     1      22.036   1.937  51.921  1.00  0.00     0.050 C 
BRANCH  13  14
HETATM   14  C12 UNL     1      21.005   1.550  52.906  1.00  0.00     0.274 C 
BRANCH  14  15
HETATM   15  N5  UNL     1      19.659   1.426  52.394  1.00  0.00     0.092 N 
HETATM   16  C13 UNL     1      19.367   0.105  51.911  1.00  0.00     0.298 C 
HETATM   17  C14 UNL     1      18.156   0.039  51.039  1.00  0.00     0.198 C 
HETATM   18  O3  UNL     1      18.475   0.833  49.909  1.00  0.00    -0.388 OA
HETATM   19  C15 UNL     1      18.451   2.130  50.340  1.00  0.00     0.198 C 
HETATM   20  C16 UNL     1      19.304   2.477  51.497  1.00  0.00     0.298 C 
ENDBRANCH  14  15
ENDBRANCH  13  14
ENDBRANCH  12  13
ENDBRANCH  11  12
BRANCH   1  21
HETATM   21  O2  UNL     1      25.403   3.555  50.927  1.00  0.00    -0.329 OA
BRANCH  21  22
HETATM   22  C2  UNL     1      25.753   3.405  49.567  1.00  0.00     0.246 C 
BRANCH  22  23
HETATM   23  C1  UNL     1      26.847   4.357  49.183  1.00  0.00     0.257 C 
HETATM   24  O1  UNL     1      27.932   4.560  48.691  1.00  0.00    -0.305 OA
ENDBRANCH  22  23
ENDBRANCH  21  22
ENDBRANCH   1  21
TORSDOF 7
ENDMDL
