MODEL 1
REMARK VINA RESULT:      -7.7      0.000      0.000
REMARK  6 active torsions:
REMARK  status: ('A' for Active; 'I' for Inactive)
REMARK    1  A    between atoms: N1_2  and  C3_4 
REMARK    2  A    between atoms: C3_4  and  C4_5 
REMARK    3  A    between atoms: C5_6  and  C6_7 
REMARK       I    between atoms: C6_7  and  N2_9 
REMARK    4  A    between atoms: N2_9  and  C7_10 
REMARK    5  A    between atoms: C17_23  and  O2_24 
REMARK    6  A    between atoms: O2_24  and  C18_25 
ROOT
HETATM    1  C7  UNL     1      24.266   3.067  52.024  1.00  0.00     0.043 A 
HETATM    2  C8  UNL     1      24.247   3.774  50.914  1.00  0.00     0.040 A 
HETATM    3  C9  UNL     1      22.863   3.678  50.342  1.00  0.00     0.005 A 
HETATM    4  C10 UNL     1      21.842   3.922  49.461  1.00  0.00     0.134 C 
HETATM    5  N3  UNL     1      20.798   4.900  49.927  1.00  0.00    -0.247 NA
HETATM    6  C11 UNL     1      21.202   5.252  51.162  1.00  0.00     0.093 C 
HETATM    7  C12 UNL     1      21.032   3.877  51.816  1.00  0.00     0.067 C 
HETATM    8  C13 UNL     1      21.998   2.828  51.197  1.00  0.00     0.061 A 
HETATM    9  C14 UNL     1      21.357   1.642  50.667  1.00  0.00     0.210 C 
HETATM   10  F1  UNL     1      19.975   1.927  50.579  1.00  0.00    -0.244 F 
HETATM   11  C15 UNL     1      21.742   1.041  49.338  1.00  0.00     0.028 C 
HETATM   12  C16 UNL     1      21.599   1.765  48.174  1.00  0.00     0.088 C 
HETATM   13  N4  UNL     1      21.544   3.253  48.167  1.00  0.00    -0.351 N 
HETATM   14  C17 UNL     1      22.928   2.432  52.327  1.00  0.00     0.188 A 
HETATM   15  H19 UNL     1      21.338   4.019  47.508  1.00  0.00     0.166 HD
ENDROOT
BRANCH   1  16
HETATM   16  N2  UNL     1      25.486   3.011  52.743  1.00  0.00    -0.325 N 
HETATM   17  C6  UNL     1      26.605   2.198  52.384  1.00  0.00     0.245 C 
HETATM   18  O1  UNL     1      26.349   1.543  51.343  1.00  0.00    -0.268 OA
HETATM   19  H11 UNL     1      25.553   3.627  53.609  1.00  0.00     0.169 HD
BRANCH  17  20
HETATM   20  C5  UNL     1      27.831   2.189  53.168  1.00  0.00     0.072 C 
HETATM   21  C4  UNL     1      28.245   1.163  53.852  1.00  0.00     0.008 C 
BRANCH  21  22
HETATM   22  C3  UNL     1      27.696  -0.173  54.050  1.00  0.00     0.299 C 
BRANCH  22  23
HETATM   23  N1  UNL     1      28.113  -1.138  53.054  1.00  0.00     0.083 N 
HETATM   24  C1  UNL     1      29.358  -1.790  53.357  1.00  0.00     0.309 C 
HETATM   25  C2  UNL     1      27.086  -2.056  52.656  1.00  0.00     0.309 C 
ENDBRANCH  22  23
ENDBRANCH  21  22
ENDBRANCH  17  20
ENDBRANCH   1  16
BRANCH  14  26
HETATM   26  O2  UNL     1      23.198   1.094  52.440  1.00  0.00    -0.371 OA
BRANCH  26  27
HETATM   27  C18 UNL     1      23.066   0.552  53.670  1.00  0.00     0.148 C 
HETATM   28  C19 UNL     1      21.704  -0.063  53.855  1.00  0.00     0.060 C 
HETATM   29  C20 UNL     1      22.003  -1.391  54.563  1.00  0.00     0.170 C 
HETATM   30  O3  UNL     1      23.276  -1.171  55.071  1.00  0.00    -0.389 OA
HETATM   31  C21 UNL     1      23.942  -0.656  53.932  1.00  0.00     0.199 C 
ENDBRANCH  26  27
ENDBRANCH  14  26
TORSDOF 6
ENDMDL
MODEL 2
REMARK VINA RESULT:      -7.4      3.218      5.066
REMARK  6 active torsions:
REMARK  status: ('A' for Active; 'I' for Inactive)
REMARK    1  A    between atoms: N1_2  and  C3_4 
REMARK    2  A    between atoms: C3_4  and  C4_5 
REMARK    3  A    between atoms: C5_6  and  C6_7 
REMARK       I    between atoms: C6_7  and  N2_9 
REMARK    4  A    between atoms: N2_9  and  C7_10 
REMARK    5  A    between atoms: C17_23  and  O2_24 
REMARK    6  A    between atoms: O2_24  and  C18_25 
ROOT
HETATM    1  C7  UNL     1      24.447   3.281  49.940  1.00  0.00     0.043 A 
HETATM    2  C8  UNL     1      23.405   3.601  49.203  1.00  0.00     0.040 A 
HETATM    3  C9  UNL     1      22.175   3.349  50.026  1.00  0.00     0.005 A 
HETATM    4  C10 UNL     1      20.836   3.317  50.317  1.00  0.00     0.134 C 
HETATM    5  N3  UNL     1      20.340   4.407  51.229  1.00  0.00    -0.247 NA
HETATM    6  C11 UNL     1      21.442   5.126  51.514  1.00  0.00     0.093 C 
HETATM    7  C12 UNL     1      22.188   4.031  52.285  1.00  0.00     0.067 C 
HETATM    8  C13 UNL     1      22.537   2.826  51.367  1.00  0.00     0.061 A 
HETATM    9  C14 UNL     1      22.047   1.542  51.826  1.00  0.00     0.210 C 
HETATM   10  F1  UNL     1      21.098   1.805  52.841  1.00  0.00    -0.244 F 
HETATM   11  C15 UNL     1      21.397   0.546  50.898  1.00  0.00     0.028 C 
HETATM   12  C16 UNL     1      20.236   0.867  50.227  1.00  0.00     0.088 C 
HETATM   13  N4  UNL     1      19.829   2.278  49.975  1.00  0.00    -0.351 N 
HETATM   14  C17 UNL     1      24.052   2.793  51.316  1.00  0.00     0.188 A 
HETATM   15  H19 UNL     1      19.011   2.799  49.627  1.00  0.00     0.166 HD
ENDROOT
BRANCH   1  16
HETATM   16  N2  UNL     1      25.731   3.438  49.361  1.00  0.00    -0.325 N 
HETATM   17  C6  UNL     1      26.460   4.665  49.323  1.00  0.00     0.245 C 
HETATM   18  O1  UNL     1      25.799   5.581  49.875  1.00  0.00    -0.268 OA
HETATM   19  H11 UNL     1      26.164   2.566  48.930  1.00  0.00     0.169 HD
BRANCH  17  20
HETATM   20  C5  UNL     1      27.778   4.758  48.712  1.00  0.00     0.072 C 
HETATM   21  C4  UNL     1      28.268   5.852  48.210  1.00  0.00     0.008 C 
BRANCH  21  22
HETATM   22  C3  UNL     1      27.738   7.205  48.096  1.00  0.00     0.299 C 
BRANCH  22  23
HETATM   23  N1  UNL     1      28.145   8.092  49.166  1.00  0.00     0.083 N 
HETATM   24  C1  UNL     1      29.327   8.858  48.872  1.00  0.00     0.309 C 
HETATM   25  C2  UNL     1      27.084   8.891  49.706  1.00  0.00     0.309 C 
ENDBRANCH  22  23
ENDBRANCH  21  22
ENDBRANCH  17  20
ENDBRANCH   1  16
BRANCH  14  26
HETATM   26  O2  UNL     1      24.630   1.556  51.423  1.00  0.00    -0.371 OA
BRANCH  26  27
HETATM   27  C18 UNL     1      25.429   1.352  52.493  1.00  0.00     0.148 C 
HETATM   28  C19 UNL     1      26.882   1.342  52.098  1.00  0.00     0.060 C 
HETATM   29  C20 UNL     1      27.560   2.168  53.198  1.00  0.00     0.170 C 
HETATM   30  O3  UNL     1      26.614   2.133  54.214  1.00  0.00    -0.389 OA
HETATM   31  C21 UNL     1      25.437   2.479  53.506  1.00  0.00     0.199 C 
ENDBRANCH  26  27
ENDBRANCH  14  26
TORSDOF 6
ENDMDL
MODEL 3
REMARK VINA RESULT:      -7.3      2.838      6.459
REMARK  6 active torsions:
REMARK  status: ('A' for Active; 'I' for Inactive)
REMARK    1  A    between atoms: N1_2  and  C3_4 
REMARK    2  A    between atoms: C3_4  and  C4_5 
REMARK    3  A    between atoms: C5_6  and  C6_7 
REMARK       I    between atoms: C6_7  and  N2_9 
REMARK    4  A    between atoms: N2_9  and  C7_10 
REMARK    5  A    between atoms: C17_23  and  O2_24 
REMARK    6  A    between atoms: O2_24  and  C18_25 
ROOT
HETATM    1  C7  UNL     1      24.582   2.925  52.836  1.00  0.00     0.043 A 
HETATM    2  C8  UNL     1      25.378   2.789  53.876  1.00  0.00     0.040 A 
HETATM    3  C9  UNL     1      25.767   1.342  53.959  1.00  0.00     0.005 A 
HETATM    4  C10 UNL     1      26.402   0.232  54.453  1.00  0.00     0.134 C 
HETATM    5  N3  UNL     1      27.593  -0.244  53.665  1.00  0.00    -0.247 NA
HETATM    6  C11 UNL     1      27.670   0.616  52.632  1.00  0.00     0.093 C 
HETATM    7  C12 UNL     1      26.348   0.227  51.962  1.00  0.00     0.067 C 
HETATM    8  C13 UNL     1      25.130   0.561  52.869  1.00  0.00     0.061 A 
HETATM    9  C14 UNL     1      24.257  -0.557  53.162  1.00  0.00     0.210 C 
HETATM   10  F1  UNL     1      24.953  -1.729  52.787  1.00  0.00    -0.244 F 
HETATM   11  C15 UNL     1      23.716  -0.820  54.545  1.00  0.00     0.028 C 
HETATM   12  C16 UNL     1      24.571  -1.078  55.594  1.00  0.00     0.088 C 
HETATM   13  N4  UNL     1      25.999  -0.653  55.578  1.00  0.00    -0.351 N 
HETATM   14  C17 UNL     1      24.351   1.619  52.111  1.00  0.00     0.188 A 
HETATM   15  H19 UNL     1      26.858  -0.797  56.129  1.00  0.00     0.166 HD
ENDROOT
BRANCH   1  16
HETATM   16  N2  UNL     1      24.084   4.223  52.560  1.00  0.00    -0.325 N 
HETATM   17  C6  UNL     1      24.253   4.911  51.320  1.00  0.00     0.245 C 
HETATM   18  O1  UNL     1      24.907   4.202  50.514  1.00  0.00    -0.268 OA
HETATM   19  H11 UNL     1      23.547   4.700  53.346  1.00  0.00     0.169 HD
BRANCH  17  20
HETATM   20  C5  UNL     1      23.714   6.246  51.102  1.00  0.00     0.072 C 
HETATM   21  C4  UNL     1      24.398   7.229  50.597  1.00  0.00     0.008 C 
BRANCH  21  22
HETATM   22  C3  UNL     1      25.775   7.332  50.129  1.00  0.00     0.299 C 
BRANCH  22  23
HETATM   23  N1  UNL     1      25.973   6.874  48.769  1.00  0.00     0.083 N 
HETATM   24  C1  UNL     1      25.632   7.850  47.769  1.00  0.00     0.309 C 
HETATM   25  C2  UNL     1      27.246   6.257  48.534  1.00  0.00     0.309 C 
ENDBRANCH  22  23
ENDBRANCH  21  22
ENDBRANCH  17  20
ENDBRANCH   1  16
BRANCH  14  26
HETATM   26  O2  UNL     1      22.990   1.467  52.097  1.00  0.00    -0.371 OA
BRANCH  26  27
HETATM   27  C18 UNL     1      22.391   1.487  50.887  1.00  0.00     0.148 C 
HETATM   28  C19 UNL     1      21.391   0.370  50.751  1.00  0.00     0.060 C 
HETATM   29  C20 UNL     1      20.189   1.043  50.076  1.00  0.00     0.170 C 
HETATM   30  O3  UNL     1      20.763   2.185  49.532  1.00  0.00    -0.389 OA
HETATM   31  C21 UNL     1      21.493   2.681  50.640  1.00  0.00     0.199 C 
ENDBRANCH  26  27
ENDBRANCH  14  26
TORSDOF 6
ENDMDL
MODEL 4
REMARK VINA RESULT:      -7.2      2.516      6.771
REMARK  6 active torsions:
REMARK  status: ('A' for Active; 'I' for Inactive)
REMARK    1  A    between atoms: N1_2  and  C3_4 
REMARK    2  A    between atoms: C3_4  and  C4_5 
REMARK    3  A    between atoms: C5_6  and  C6_7 
REMARK       I    between atoms: C6_7  and  N2_9 
REMARK    4  A    between atoms: N2_9  and  C7_10 
REMARK    5  A    between atoms: C17_23  and  O2_24 
REMARK    6  A    between atoms: O2_24  and  C18_25 
ROOT
HETATM    1  C7  UNL     1      23.596   3.097  52.503  1.00  0.00     0.043 A 
HETATM    2  C8  UNL     1      24.458   3.354  53.464  1.00  0.00     0.040 A 
HETATM    3  C9  UNL     1      25.435   2.215  53.508  1.00  0.00     0.005 A 
HETATM    4  C10 UNL     1      26.523   1.502  53.940  1.00  0.00     0.134 C 
HETATM    5  N3  UNL     1      27.731   1.549  53.043  1.00  0.00    -0.247 NA
HETATM    6  C11 UNL     1      27.345   2.319  52.008  1.00  0.00     0.093 C 
HETATM    7  C12 UNL     1      26.265   1.378  51.464  1.00  0.00     0.067 C 
HETATM    8  C13 UNL     1      25.104   1.196  52.481  1.00  0.00     0.061 A 
HETATM    9  C14 UNL     1      24.822  -0.176  52.853  1.00  0.00     0.210 C 
HETATM   10  F1  UNL     1      25.919  -0.953  52.413  1.00  0.00    -0.244 F 
HETATM   11  C15 UNL     1      24.565  -0.590  54.280  1.00  0.00     0.028 C 
HETATM   12  C16 UNL     1      25.535  -0.418  55.245  1.00  0.00     0.088 C 
HETATM   13  N4  UNL     1      26.635   0.574  55.096  1.00  0.00    -0.351 N 
HETATM   14  C17 UNL     1      23.886   1.790  51.801  1.00  0.00     0.188 A 
HETATM   15  H19 UNL     1      27.516   0.831  55.564  1.00  0.00     0.166 HD
ENDROOT
BRANCH   1  16
HETATM   16  N2  UNL     1      22.568   4.046  52.277  1.00  0.00    -0.325 N 
HETATM   17  C6  UNL     1      22.622   5.084  51.297  1.00  0.00     0.245 C 
HETATM   18  O1  UNL     1      23.710   5.033  50.669  1.00  0.00    -0.268 OA
HETATM   19  H11 UNL     1      21.703   3.962  52.891  1.00  0.00     0.169 HD
BRANCH  17  20
HETATM   20  C5  UNL     1      21.529   6.028  51.116  1.00  0.00     0.072 C 
HETATM   21  C4  UNL     1      20.647   5.941  50.165  1.00  0.00     0.008 C 
BRANCH  21  22
HETATM   22  C3  UNL     1      20.463   4.985  49.079  1.00  0.00     0.299 C 
BRANCH  22  23
HETATM   23  N1  UNL     1      21.017   5.415  47.812  1.00  0.00     0.083 N 
HETATM   24  C1  UNL     1      21.066   6.843  47.650  1.00  0.00     0.309 C 
HETATM   25  C2  UNL     1      22.249   4.773  47.458  1.00  0.00     0.309 C 
ENDBRANCH  22  23
ENDBRANCH  21  22
ENDBRANCH  17  20
ENDBRANCH   1  16
BRANCH  14  26
HETATM   26  O2  UNL     1      22.725   1.072  51.914  1.00  0.00    -0.371 OA
BRANCH  26  27
HETATM   27  C18 UNL     1      22.132   0.694  50.761  1.00  0.00     0.148 C 
HETATM   28  C19 UNL     1      20.635   0.646  50.903  1.00  0.00     0.060 C 
HETATM   29  C20 UNL     1      20.129   1.293  49.608  1.00  0.00     0.170 C 
HETATM   30  O3  UNL     1      21.238   1.191  48.779  1.00  0.00    -0.389 OA
HETATM   31  C21 UNL     1      22.260   1.688  49.624  1.00  0.00     0.199 C 
ENDBRANCH  26  27
ENDBRANCH  14  26
TORSDOF 6
ENDMDL
MODEL 5
REMARK VINA RESULT:      -7.1     11.599     14.186
REMARK  6 active torsions:
REMARK  status: ('A' for Active; 'I' for Inactive)
REMARK    1  A    between atoms: N1_2  and  C3_4 
REMARK    2  A    between atoms: C3_4  and  C4_5 
REMARK    3  A    between atoms: C5_6  and  C6_7 
REMARK       I    between atoms: C6_7  and  N2_9 
REMARK    4  A    between atoms: N2_9  and  C7_10 
REMARK    5  A    between atoms: C17_23  and  O2_24 
REMARK    6  A    between atoms: O2_24  and  C18_25 
ROOT
HETATM    1  C7  UNL     1      34.496   5.037  44.341  1.00  0.00     0.043 A 
HETATM    2  C8  UNL     1      35.044   4.068  45.044  1.00  0.00     0.040 A 
HETATM    3  C9  UNL     1      34.481   4.144  46.432  1.00  0.00     0.005 A 
HETATM    4  C10 UNL     1      34.292   3.777  47.740  1.00  0.00     0.134 C 
HETATM    5  N3  UNL     1      33.002   3.062  48.037  1.00  0.00    -0.247 NA
HETATM    6  C11 UNL     1      32.371   3.010  46.849  1.00  0.00     0.093 C 
HETATM    7  C12 UNL     1      32.164   4.518  46.677  1.00  0.00     0.067 C 
HETATM    8  C13 UNL     1      33.520   5.269  46.551  1.00  0.00     0.061 A 
HETATM    9  C14 UNL     1      33.726   6.330  47.515  1.00  0.00     0.210 C 
HETATM   10  F1  UNL     1      32.744   6.168  48.519  1.00  0.00    -0.244 F 
HETATM   11  C15 UNL     1      35.035   6.521  48.240  1.00  0.00     0.028 C 
HETATM   12  C16 UNL     1      35.528   5.533  49.066  1.00  0.00     0.088 C 
HETATM   13  N4  UNL     1      35.116   4.108  48.932  1.00  0.00    -0.351 N 
HETATM   14  C17 UNL     1      33.518   5.856  45.153  1.00  0.00     0.188 A 
HETATM   15  H19 UNL     1      35.217   3.220  49.445  1.00  0.00     0.166 HD
ENDROOT
BRANCH   1  16
HETATM   16  N2  UNL     1      34.884   5.161  42.984  1.00  0.00    -0.325 N 
HETATM   17  C6  UNL     1      34.035   4.885  41.868  1.00  0.00     0.245 C 
HETATM   18  O1  UNL     1      32.900   4.518  42.264  1.00  0.00    -0.268 OA
HETATM   19  H11 UNL     1      35.882   5.484  42.805  1.00  0.00     0.169 HD
BRANCH  17  20
HETATM   20  C5  UNL     1      34.498   5.034  40.495  1.00  0.00     0.072 C 
HETATM   21  C4  UNL     1      34.640   4.041  39.668  1.00  0.00     0.008 C 
BRANCH  21  22
HETATM   22  C3  UNL     1      34.413   2.608  39.804  1.00  0.00     0.299 C 
BRANCH  22  23
HETATM   23  N1  UNL     1      33.217   2.132  39.141  1.00  0.00     0.083 N 
HETATM   24  C1  UNL     1      32.099   1.933  40.024  1.00  0.00     0.309 C 
HETATM   25  C2  UNL     1      32.868   2.864  37.958  1.00  0.00     0.309 C 
ENDBRANCH  22  23
ENDBRANCH  21  22
ENDBRANCH  17  20
ENDBRANCH   1  16
BRANCH  14  26
HETATM   26  O2  UNL     1      33.971   7.144  45.043  1.00  0.00    -0.371 OA
BRANCH  26  27
HETATM   27  C18 UNL     1      33.149   8.024  44.429  1.00  0.00     0.148 C 
HETATM   28  C19 UNL     1      31.791   7.424  44.180  1.00  0.00     0.060 C 
HETATM   29  C20 UNL     1      30.824   8.552  44.564  1.00  0.00     0.170 C 
HETATM   30  O3  UNL     1      31.647   9.670  44.516  1.00  0.00    -0.389 OA
HETATM   31  C21 UNL     1      32.761   9.224  45.268  1.00  0.00     0.199 C 
ENDBRANCH  26  27
ENDBRANCH  14  26
TORSDOF 6
ENDMDL
MODEL 6
REMARK VINA RESULT:      -7.0      2.664      3.758
REMARK  6 active torsions:
REMARK  status: ('A' for Active; 'I' for Inactive)
REMARK    1  A    between atoms: N1_2  and  C3_4 
REMARK    2  A    between atoms: C3_4  and  C4_5 
REMARK    3  A    between atoms: C5_6  and  C6_7 
REMARK       I    between atoms: C6_7  and  N2_9 
REMARK    4  A    between atoms: N2_9  and  C7_10 
REMARK    5  A    between atoms: C17_23  and  O2_24 
REMARK    6  A    between atoms: O2_24  and  C18_25 
ROOT
HETATM    1  C7  UNL     1      23.871   3.405  50.379  1.00  0.00     0.043 A 
HETATM    2  C8  UNL     1      24.807   4.034  49.700  1.00  0.00     0.040 A 
HETATM    3  C9  UNL     1      24.248   5.365  49.290  1.00  0.00     0.005 A 
HETATM    4  C10 UNL     1      24.245   6.610  48.715  1.00  0.00     0.134 C 
HETATM    5  N3  UNL     1      24.363   7.769  49.668  1.00  0.00    -0.247 NA
HETATM    6  C11 UNL     1      24.425   7.193  50.883  1.00  0.00     0.093 C 
HETATM    7  C12 UNL     1      23.015   6.595  50.882  1.00  0.00     0.067 C 
HETATM    8  C13 UNL     1      22.852   5.521  49.769  1.00  0.00     0.061 A 
HETATM    9  C14 UNL     1      21.765   5.758  48.842  1.00  0.00     0.210 C 
HETATM   10  F1  UNL     1      21.349   7.096  49.031  1.00  0.00    -0.244 F 
HETATM   11  C15 UNL     1      21.920   5.578  47.352  1.00  0.00     0.028 C 
HETATM   12  C16 UNL     1      22.827   6.338  46.645  1.00  0.00     0.088 C 
HETATM   13  N4  UNL     1      23.999   6.984  47.297  1.00  0.00    -0.351 N 
HETATM   14  C17 UNL     1      22.605   4.220  50.508  1.00  0.00     0.188 A 
HETATM   15  H19 UNL     1      24.738   7.665  47.066  1.00  0.00     0.166 HD
ENDROOT
BRANCH   1  16
HETATM   16  N2  UNL     1      24.179   2.112  50.871  1.00  0.00    -0.325 N 
HETATM   17  C6  UNL     1      24.381   1.794  52.249  1.00  0.00     0.245 C 
HETATM   18  O1  UNL     1      24.248   2.825  52.957  1.00  0.00    -0.268 OA
HETATM   19  H11 UNL     1      24.259   1.337  50.146  1.00  0.00     0.169 HD
BRANCH  17  20
HETATM   20  C5  UNL     1      24.694   0.442  52.688  1.00  0.00     0.072 C 
HETATM   21  C4  UNL     1      25.904  -0.012  52.828  1.00  0.00     0.008 C 
BRANCH  21  22
HETATM   22  C3  UNL     1      27.213   0.597  52.621  1.00  0.00     0.299 C 
BRANCH  22  23
HETATM   23  N1  UNL     1      27.787   1.186  53.813  1.00  0.00     0.083 N 
HETATM   24  C1  UNL     1      28.499   0.252  54.642  1.00  0.00     0.309 C 
HETATM   25  C2  UNL     1      28.522   2.394  53.578  1.00  0.00     0.309 C 
ENDBRANCH  22  23
ENDBRANCH  21  22
ENDBRANCH  17  20
ENDBRANCH   1  16
BRANCH  14  26
HETATM   26  O2  UNL     1      21.622   3.416  49.995  1.00  0.00    -0.371 OA
BRANCH  26  27
HETATM   27  C18 UNL     1      20.652   3.025  50.850  1.00  0.00     0.148 C 
HETATM   28  C19 UNL     1      20.754   1.556  51.160  1.00  0.00     0.060 C 
HETATM   29  C20 UNL     1      20.516   1.491  52.675  1.00  0.00     0.170 C 
HETATM   30  O3  UNL     1      19.899   2.709  52.925  1.00  0.00    -0.389 OA
HETATM   31  C21 UNL     1      20.764   3.602  52.247  1.00  0.00     0.199 C 
ENDBRANCH  26  27
ENDBRANCH  14  26
TORSDOF 6
ENDMDL
MODEL 7
REMARK VINA RESULT:      -6.9      8.894     11.706
REMARK  6 active torsions:
REMARK  status: ('A' for Active; 'I' for Inactive)
REMARK    1  A    between atoms: N1_2  and  C3_4 
REMARK    2  A    between atoms: C3_4  and  C4_5 
REMARK    3  A    between atoms: C5_6  and  C6_7 
REMARK       I    between atoms: C6_7  and  N2_9 
REMARK    4  A    between atoms: N2_9  and  C7_10 
REMARK    5  A    between atoms: C17_23  and  O2_24 
REMARK    6  A    between atoms: O2_24  and  C18_25 
ROOT
HETATM    1  C7  UNL     1      30.698   6.774  48.289  1.00  0.00     0.043 A 
HETATM    2  C8  UNL     1      31.227   5.735  47.679  1.00  0.00     0.040 A 
HETATM    3  C9  UNL     1      32.607   6.124  47.239  1.00  0.00     0.005 A 
HETATM    4  C10 UNL     1      33.845   5.960  46.672  1.00  0.00     0.134 C 
HETATM    5  N3  UNL     1      34.987   5.789  47.636  1.00  0.00    -0.247 NA
HETATM    6  C11 UNL     1      34.410   5.870  48.850  1.00  0.00     0.093 C 
HETATM    7  C12 UNL     1      33.960   7.332  48.749  1.00  0.00     0.067 C 
HETATM    8  C13 UNL     1      32.907   7.526  47.622  1.00  0.00     0.061 A 
HETATM    9  C14 UNL     1      33.253   8.517  46.623  1.00  0.00     0.210 C 
HETATM   10  F1  UNL     1      34.627   8.806  46.790  1.00  0.00    -0.244 F 
HETATM   11  C15 UNL     1      33.055   8.279  45.146  1.00  0.00     0.028 C 
HETATM   12  C16 UNL     1      33.716   7.252  44.508  1.00  0.00     0.088 C 
HETATM   13  N4  UNL     1      34.240   6.068  45.242  1.00  0.00    -0.351 N 
HETATM   14  C17 UNL     1      31.640   7.956  48.335  1.00  0.00     0.188 A 
HETATM   15  H19 UNL     1      34.841   5.249  45.066  1.00  0.00     0.166 HD
ENDROOT
BRANCH   1  16
HETATM   16  N2  UNL     1      29.381   6.636  48.794  1.00  0.00    -0.325 N 
HETATM   17  C6  UNL     1      28.192   6.854  48.033  1.00  0.00     0.245 C 
HETATM   18  O1  UNL     1      28.484   7.184  46.855  1.00  0.00    -0.268 OA
HETATM   19  H11 UNL     1      29.295   6.349  49.815  1.00  0.00     0.169 HD
BRANCH  17  20
HETATM   20  C5  UNL     1      26.867   6.694  48.614  1.00  0.00     0.072 C 
HETATM   21  C4  UNL     1      26.399   5.562  49.048  1.00  0.00     0.008 C 
BRANCH  21  22
HETATM   22  C3  UNL     1      26.964   4.219  49.101  1.00  0.00     0.299 C 
BRANCH  22  23
HETATM   23  N1  UNL     1      26.071   3.222  49.653  1.00  0.00     0.083 N 
HETATM   24  C1  UNL     1      26.520   2.660  50.898  1.00  0.00     0.309 C 
HETATM   25  C2  UNL     1      24.693   3.619  49.686  1.00  0.00     0.309 C 
ENDBRANCH  22  23
ENDBRANCH  21  22
ENDBRANCH  17  20
ENDBRANCH   1  16
BRANCH  14  26
HETATM   26  O2  UNL     1      30.940   8.979  47.751  1.00  0.00    -0.371 OA
BRANCH  26  27
HETATM   27  C18 UNL     1      30.581  10.003  48.555  1.00  0.00     0.148 C 
HETATM   28  C19 UNL     1      31.309  11.269  48.190  1.00  0.00     0.060 C 
HETATM   29  C20 UNL     1      30.218  12.345  48.260  1.00  0.00     0.170 C 
HETATM   30  O3  UNL     1      29.248  11.725  49.036  1.00  0.00    -0.389 OA
HETATM   31  C21 UNL     1      29.147  10.465  48.397  1.00  0.00     0.199 C 
ENDBRANCH  26  27
ENDBRANCH  14  26
TORSDOF 6
ENDMDL
MODEL 8
REMARK VINA RESULT:      -6.6      2.435      3.121
REMARK  6 active torsions:
REMARK  status: ('A' for Active; 'I' for Inactive)
REMARK    1  A    between atoms: N1_2  and  C3_4 
REMARK    2  A    between atoms: C3_4  and  C4_5 
REMARK    3  A    between atoms: C5_6  and  C6_7 
REMARK       I    between atoms: C6_7  and  N2_9 
REMARK    4  A    between atoms: N2_9  and  C7_10 
REMARK    5  A    between atoms: C17_23  and  O2_24 
REMARK    6  A    between atoms: O2_24  and  C18_25 
ROOT
HETATM    1  C7  UNL     1      21.574   1.912  50.410  1.00  0.00     0.043 A 
HETATM    2  C8  UNL     1      20.932   2.194  49.296  1.00  0.00     0.040 A 
HETATM    3  C9  UNL     1      19.473   2.299  49.632  1.00  0.00     0.005 A 
HETATM    4  C10 UNL     1      18.137   2.511  49.405  1.00  0.00     0.134 C 
HETATM    5  N3  UNL     1      17.597   3.833  49.879  1.00  0.00    -0.247 NA
HETATM    6  C11 UNL     1      18.660   4.444  50.435  1.00  0.00     0.093 C 
HETATM    7  C12 UNL     1      18.861   3.461  51.592  1.00  0.00     0.067 C 
HETATM    8  C13 UNL     1      19.245   2.045  51.076  1.00  0.00     0.061 A 
HETATM    9  C14 UNL     1      18.377   0.974  51.520  1.00  0.00     0.210 C 
HETATM   10  F1  UNL     1      17.216   1.581  52.052  1.00  0.00    -0.244 F 
HETATM   11  C15 UNL     1      17.889  -0.109  50.590  1.00  0.00     0.028 C 
HETATM   12  C16 UNL     1      17.116   0.205  49.493  1.00  0.00     0.088 C 
HETATM   13  N4  UNL     1      17.116   1.564  48.885  1.00  0.00    -0.351 N 
HETATM   14  C17 UNL     1      20.647   1.801  51.599  1.00  0.00     0.188 A 
HETATM   15  H19 UNL     1      16.588   2.099  48.179  1.00  0.00     0.166 HD
ENDROOT
BRANCH   1  16
HETATM   16  N2  UNL     1      22.982   1.763  50.333  1.00  0.00    -0.325 N 
HETATM   17  C6  UNL     1      23.927   2.686  50.877  1.00  0.00     0.245 C 
HETATM   18  O1  UNL     1      23.330   3.644  51.430  1.00  0.00    -0.268 OA
HETATM   19  H11 UNL     1      23.338   0.895  49.831  1.00  0.00     0.169 HD
BRANCH  17  20
HETATM   20  C5  UNL     1      25.362   2.473  50.763  1.00  0.00     0.072 C 
HETATM   21  C4  UNL     1      26.107   2.028  51.731  1.00  0.00     0.008 C 
BRANCH  21  22
HETATM   22  C3  UNL     1      25.806   1.633  53.102  1.00  0.00     0.299 C 
BRANCH  22  23
HETATM   23  N1  UNL     1      26.275   0.309  53.453  1.00  0.00     0.083 N 
HETATM   24  C1  UNL     1      26.821  -0.430  52.347  1.00  0.00     0.309 C 
HETATM   25  C2  UNL     1      27.112   0.269  54.617  1.00  0.00     0.309 C 
ENDBRANCH  22  23
ENDBRANCH  21  22
ENDBRANCH  17  20
ENDBRANCH   1  16
BRANCH  14  26
HETATM   26  O2  UNL     1      20.888   0.554  52.111  1.00  0.00    -0.371 OA
BRANCH  26  27
HETATM   27  C18 UNL     1      21.734   0.484  53.162  1.00  0.00     0.148 C 
HETATM   28  C19 UNL     1      21.014   0.079  54.420  1.00  0.00     0.060 C 
HETATM   29  C20 UNL     1      21.962  -0.941  55.064  1.00  0.00     0.170 C 
HETATM   30  O3  UNL     1      23.167  -0.657  54.434  1.00  0.00    -0.389 OA
HETATM   31  C21 UNL     1      22.766  -0.622  53.076  1.00  0.00     0.199 C 
ENDBRANCH  26  27
ENDBRANCH  14  26
TORSDOF 6
ENDMDL
MODEL 9
REMARK VINA RESULT:      -6.6      3.419      6.974
REMARK  6 active torsions:
REMARK  status: ('A' for Active; 'I' for Inactive)
REMARK    1  A    between atoms: N1_2  and  C3_4 
REMARK    2  A    between atoms: C3_4  and  C4_5 
REMARK    3  A    between atoms: C5_6  and  C6_7 
REMARK       I    between atoms: C6_7  and  N2_9 
REMARK    4  A    between atoms: N2_9  and  C7_10 
REMARK    5  A    between atoms: C17_23  and  O2_24 
REMARK    6  A    between atoms: O2_24  and  C18_25 
ROOT
HETATM    1  C7  UNL     1      20.042   1.747  51.834  1.00  0.00     0.043 A 
HETATM    2  C8  UNL     1      19.860   2.913  51.251  1.00  0.00     0.040 A 
HETATM    3  C9  UNL     1      21.189   3.364  50.719  1.00  0.00     0.005 A 
HETATM    4  C10 UNL     1      22.076   4.181  50.069  1.00  0.00     0.134 C 
HETATM    5  N3  UNL     1      22.498   3.727  48.697  1.00  0.00    -0.247 NA
HETATM    6  C11 UNL     1      21.842   2.565  48.518  1.00  0.00     0.093 C 
HETATM    7  C12 UNL     1      22.548   1.776  49.625  1.00  0.00     0.067 C 
HETATM    8  C13 UNL     1      22.245   2.369  51.029  1.00  0.00     0.061 A 
HETATM    9  C14 UNL     1      23.413   2.736  51.805  1.00  0.00     0.210 C 
HETATM   10  F1  UNL     1      24.511   2.741  50.915  1.00  0.00    -0.244 F 
HETATM   11  C15 UNL     1      23.497   4.030  52.576  1.00  0.00     0.028 C 
HETATM   12  C16 UNL     1      23.422   5.241  51.923  1.00  0.00     0.088 C 
HETATM   13  N4  UNL     1      22.790   5.381  50.581  1.00  0.00    -0.351 N 
HETATM   14  C17 UNL     1      21.479   1.284  51.761  1.00  0.00     0.188 A 
HETATM   15  H19 UNL     1      22.695   6.089  49.838  1.00  0.00     0.166 HD
ENDROOT
BRANCH   1  16
HETATM   16  N2  UNL     1      18.911   1.123  52.417  1.00  0.00    -0.325 N 
HETATM   17  C6  UNL     1      18.078   0.170  51.755  1.00  0.00     0.245 C 
HETATM   18  O1  UNL     1      18.492  -0.032  50.586  1.00  0.00    -0.268 OA
HETATM   19  H11 UNL     1      18.685   1.398  53.420  1.00  0.00     0.169 HD
BRANCH  17  20
HETATM   20  C5  UNL     1      16.928  -0.434  52.414  1.00  0.00     0.072 C 
HETATM   21  C4  UNL     1      15.726   0.056  52.364  1.00  0.00     0.008 C 
BRANCH  21  22
HETATM   22  C3  UNL     1      15.170   1.236  51.712  1.00  0.00     0.299 C 
BRANCH  22  23
HETATM   23  N1  UNL     1      15.264   2.447  52.500  1.00  0.00     0.083 N 
HETATM   24  C1  UNL     1      16.111   3.456  51.923  1.00  0.00     0.309 C 
HETATM   25  C2  UNL     1      14.001   2.965  52.939  1.00  0.00     0.309 C 
ENDBRANCH  22  23
ENDBRANCH  21  22
ENDBRANCH  17  20
ENDBRANCH   1  16
BRANCH  14  26
HETATM   26  O2  UNL     1      21.841   1.069  53.064  1.00  0.00    -0.371 OA
BRANCH  26  27
HETATM   27  C18 UNL     1      21.945  -0.219  53.459  1.00  0.00     0.148 C 
HETATM   28  C19 UNL     1      23.336  -0.534  53.941  1.00  0.00     0.060 C 
HETATM   29  C20 UNL     1      23.097  -1.370  55.205  1.00  0.00     0.170 C 
HETATM   30  O3  UNL     1      21.785  -1.791  55.033  1.00  0.00    -0.389 OA
HETATM   31  C21 UNL     1      21.147  -0.572  54.697  1.00  0.00     0.199 C 
ENDBRANCH  26  27
ENDBRANCH  14  26
TORSDOF 6
ENDMDL
