MODEL 1
REMARK VINA RESULT:      -8.3      0.000      0.000
REMARK  4 active torsions:
REMARK  status: ('A' for Active; 'I' for Inactive)
REMARK    1  A    between atoms: C2_2  and  C3_3 
REMARK       I    between atoms: C3_3  and  N1_5 
REMARK    2  A    between atoms: N4_16  and  C11_17 
REMARK    3  A    between atoms: C11_17  and  N5_18 
REMARK    4  A    between atoms: N5_18  and  C12_19 
ROOT
HETATM    1  C3  UNL     1      28.219   0.894  54.030  1.00  0.00     0.242 C 
HETATM    2  O1  UNL     1      28.370   1.019  55.273  1.00  0.00    -0.268 OA
HETATM    3  N1  UNL     1      27.071   1.229  53.260  1.00  0.00    -0.343 N 
HETATM    4  C4  UNL     1      26.931   1.070  51.804  1.00  0.00     0.183 C 
HETATM    5  C5  UNL     1      25.759   1.952  51.455  1.00  0.00     0.065 C 
HETATM    6  N2  UNL     1      25.589   2.815  50.483  1.00  0.00    -0.139 NA
HETATM    7  O2  UNL     1      26.541   3.059  49.559  1.00  0.00    -0.223 OA
HETATM    8  C6  UNL     1      27.074   4.253  49.173  1.00  0.00     0.499 C 
HETATM    9  N3  UNL     1      26.265   5.267  49.206  1.00  0.00    -0.392 NA
HETATM   10  C7  UNL     1      24.909   5.118  49.622  1.00  0.00     0.071 C 
HETATM   11  C8  UNL     1      23.606   4.850  49.794  1.00  0.00    -0.003 C 
HETATM   12  C9  UNL     1      22.881   5.331  51.030  1.00  0.00     0.114 C 
HETATM   13  C10 UNL     1      22.449   4.077  51.749  1.00  0.00     0.140 C 
HETATM   14  N4  UNL     1      21.270   3.832  52.047  1.00  0.00    -0.251 NA
HETATM   15  O3  UNL     1      23.605   3.377  51.950  1.00  0.00    -0.337 OA
HETATM   16  C16 UNL     1      23.577   2.160  52.676  1.00  0.00     0.189 C 
HETATM   17  C17 UNL     1      24.924   1.478  52.581  1.00  0.00     0.080 C 
HETATM   18  C18 UNL     1      25.825   1.791  53.760  1.00  0.00     0.139 C 
ENDROOT
BRANCH  14  19
HETATM   19  C11 UNL     1      20.611   2.766  52.700  1.00  0.00     0.273 C 
BRANCH  19  20
HETATM   20  N5  UNL     1      20.149   1.763  51.714  1.00  0.00    -0.369 N 
HETATM   21  H13 UNL     1      20.252   1.818  50.671  1.00  0.00     0.161 HD
BRANCH  20  22
HETATM   22  C12 UNL     1      19.500   0.619  52.266  1.00  0.00     0.066 A 
HETATM   23  C13 UNL     1      20.047  -0.220  53.218  1.00  0.00     0.169 A 
HETATM   24  N6  UNL     1      19.121  -1.183  53.481  1.00  0.00    -0.183 NA
HETATM   25  N7  UNL     1      18.045  -0.981  52.746  1.00  0.00    -0.283 N 
HETATM   26  C14 UNL     1      16.803  -1.735  52.675  1.00  0.00     0.179 C 
HETATM   27  C15 UNL     1      18.250   0.129  51.983  1.00  0.00     0.142 A 
ENDBRANCH  20  22
ENDBRANCH  19  20
ENDBRANCH  14  19
BRANCH   1  28
HETATM   28  C2  UNL     1      29.390   0.338  53.367  1.00  0.00     0.064 C 
HETATM   29  C1  UNL     1      29.673  -0.906  53.759  1.00  0.00     0.017 C 
ENDBRANCH   1  28
TORSDOF 4
ENDMDL
MODEL 2
REMARK VINA RESULT:      -8.2      1.470      2.228
REMARK  4 active torsions:
REMARK  status: ('A' for Active; 'I' for Inactive)
REMARK    1  A    between atoms: C2_2  and  C3_3 
REMARK       I    between atoms: C3_3  and  N1_5 
REMARK    2  A    between atoms: N4_16  and  C11_17 
REMARK    3  A    between atoms: C11_17  and  N5_18 
REMARK    4  A    between atoms: N5_18  and  C12_19 
ROOT
HETATM    1  C3  UNL     1      28.057   0.412  54.244  1.00  0.00     0.242 C 
HETATM    2  O1  UNL     1      28.218   0.240  55.480  1.00  0.00    -0.268 OA
HETATM    3  N1  UNL     1      26.828   0.472  53.530  1.00  0.00    -0.343 N 
HETATM    4  C4  UNL     1      26.679   0.676  52.081  1.00  0.00     0.183 C 
HETATM    5  C5  UNL     1      25.238   1.092  51.921  1.00  0.00     0.065 C 
HETATM    6  N2  UNL     1      24.692   2.052  51.214  1.00  0.00    -0.139 NA
HETATM    7  O2  UNL     1      25.421   2.889  50.448  1.00  0.00    -0.223 OA
HETATM    8  C6  UNL     1      25.426   4.253  50.435  1.00  0.00     0.499 C 
HETATM    9  N3  UNL     1      24.289   4.822  50.698  1.00  0.00    -0.392 NA
HETATM   10  C7  UNL     1      23.123   4.050  50.980  1.00  0.00     0.071 C 
HETATM   11  C8  UNL     1      22.039   3.261  50.998  1.00  0.00    -0.003 C 
HETATM   12  C9  UNL     1      21.255   3.064  52.275  1.00  0.00     0.114 C 
HETATM   13  C10 UNL     1      21.385   1.596  52.597  1.00  0.00     0.140 C 
HETATM   14  N4  UNL     1      20.413   0.841  52.749  1.00  0.00    -0.251 NA
HETATM   15  O3  UNL     1      22.731   1.374  52.664  1.00  0.00    -0.337 OA
HETATM   16  C16 UNL     1      23.220   0.093  53.027  1.00  0.00     0.189 C 
HETATM   17  C17 UNL     1      24.718   0.043  52.825  1.00  0.00     0.080 C 
HETATM   18  C18 UNL     1      25.492   0.345  54.094  1.00  0.00     0.139 C 
ENDROOT
BRANCH  14  19
HETATM   19  C11 UNL     1      20.258  -0.532  53.047  1.00  0.00     0.273 C 
BRANCH  19  20
HETATM   20  N5  UNL     1      19.145  -0.729  54.004  1.00  0.00    -0.369 N 
HETATM   21  H13 UNL     1      19.103  -0.387  54.995  1.00  0.00     0.161 HD
BRANCH  20  22
HETATM   22  C12 UNL     1      18.030  -1.462  53.498  1.00  0.00     0.066 A 
HETATM   23  C13 UNL     1      17.788  -2.802  53.734  1.00  0.00     0.169 A 
HETATM   24  N6  UNL     1      16.635  -3.120  53.085  1.00  0.00    -0.183 NA
HETATM   25  N7  UNL     1      16.161  -2.056  52.466  1.00  0.00    -0.283 N 
HETATM   26  C14 UNL     1      14.967  -1.899  51.650  1.00  0.00     0.179 C 
HETATM   27  C15 UNL     1      17.004  -1.012  52.705  1.00  0.00     0.142 A 
ENDBRANCH  20  22
ENDBRANCH  19  20
ENDBRANCH  14  19
BRANCH   1  28
HETATM   28  C2  UNL     1      29.313   0.558  53.521  1.00  0.00     0.064 C 
HETATM   29  C1  UNL     1      30.052  -0.553  53.522  1.00  0.00     0.017 C 
ENDBRANCH   1  28
TORSDOF 4
ENDMDL
MODEL 3
REMARK VINA RESULT:      -7.9      1.696      2.482
REMARK  4 active torsions:
REMARK  status: ('A' for Active; 'I' for Inactive)
REMARK    1  A    between atoms: C2_2  and  C3_3 
REMARK       I    between atoms: C3_3  and  N1_5 
REMARK    2  A    between atoms: N4_16  and  C11_17 
REMARK    3  A    between atoms: C11_17  and  N5_18 
REMARK    4  A    between atoms: N5_18  and  C12_19 
ROOT
HETATM    1  C3  UNL     1      28.226   0.855  54.015  1.00  0.00     0.242 C 
HETATM    2  O1  UNL     1      28.381   0.962  55.259  1.00  0.00    -0.268 OA
HETATM    3  N1  UNL     1      27.074   1.196  53.253  1.00  0.00    -0.343 N 
HETATM    4  C4  UNL     1      26.929   1.058  51.796  1.00  0.00     0.183 C 
HETATM    5  C5  UNL     1      25.752   1.941  51.464  1.00  0.00     0.065 C 
HETATM    6  N2  UNL     1      25.577   2.817  50.505  1.00  0.00    -0.139 NA
HETATM    7  O2  UNL     1      26.524   3.078  49.582  1.00  0.00    -0.223 OA
HETATM    8  C6  UNL     1      27.052   4.280  49.211  1.00  0.00     0.499 C 
HETATM    9  N3  UNL     1      26.238   5.290  49.262  1.00  0.00    -0.392 NA
HETATM   10  C7  UNL     1      24.885   5.130  49.680  1.00  0.00     0.071 C 
HETATM   11  C8  UNL     1      23.583   4.854  49.853  1.00  0.00    -0.003 C 
HETATM   12  C9  UNL     1      22.861   5.314  51.098  1.00  0.00     0.114 C 
HETATM   13  C10 UNL     1      22.436   4.049  51.800  1.00  0.00     0.140 C 
HETATM   14  N4  UNL     1      21.259   3.795  52.098  1.00  0.00    -0.251 NA
HETATM   15  O3  UNL     1      23.595   3.350  51.987  1.00  0.00    -0.337 OA
HETATM   16  C16 UNL     1      23.575   2.122  52.695  1.00  0.00     0.189 C 
HETATM   17  C17 UNL     1      24.924   1.447  52.586  1.00  0.00     0.080 C 
HETATM   18  C18 UNL     1      25.828   1.746  53.766  1.00  0.00     0.139 C 
ENDROOT
BRANCH  14  19
HETATM   19  C11 UNL     1      20.607   2.717  52.739  1.00  0.00     0.273 C 
BRANCH  19  20
HETATM   20  N5  UNL     1      19.607   2.107  51.832  1.00  0.00    -0.369 N 
HETATM   21  H13 UNL     1      18.678   1.704  52.105  1.00  0.00     0.161 HD
BRANCH  20  22
HETATM   22  C12 UNL     1      19.973   2.079  50.453  1.00  0.00     0.066 A 
HETATM   23  C13 UNL     1      20.862   1.186  49.886  1.00  0.00     0.169 A 
HETATM   24  N6  UNL     1      20.938   1.484  48.561  1.00  0.00    -0.183 NA
HETATM   25  N7  UNL     1      20.150   2.506  48.286  1.00  0.00    -0.283 N 
HETATM   26  C14 UNL     1      19.895   3.182  47.023  1.00  0.00     0.179 C 
HETATM   27  C15 UNL     1      19.538   2.896  49.440  1.00  0.00     0.142 A 
ENDBRANCH  20  22
ENDBRANCH  19  20
ENDBRANCH  14  19
BRANCH   1  28
HETATM   28  C2  UNL     1      29.397   0.313  53.340  1.00  0.00     0.064 C 
HETATM   29  C1  UNL     1      29.660  -0.951  53.679  1.00  0.00     0.017 C 
ENDBRANCH   1  28
TORSDOF 4
ENDMDL
MODEL 4
REMARK VINA RESULT:      -7.4      2.247      3.358
REMARK  4 active torsions:
REMARK  status: ('A' for Active; 'I' for Inactive)
REMARK    1  A    between atoms: C2_2  and  C3_3 
REMARK       I    between atoms: C3_3  and  N1_5 
REMARK    2  A    between atoms: N4_16  and  C11_17 
REMARK    3  A    between atoms: C11_17  and  N5_18 
REMARK    4  A    between atoms: N5_18  and  C12_19 
ROOT
HETATM    1  C3  UNL     1      25.395  -0.321  54.145  1.00  0.00     0.242 C 
HETATM    2  O1  UNL     1      25.281  -0.871  55.271  1.00  0.00    -0.268 OA
HETATM    3  N1  UNL     1      24.349   0.107  53.281  1.00  0.00    -0.343 N 
HETATM    4  C4  UNL     1      24.521   0.750  51.969  1.00  0.00     0.183 C 
HETATM    5  C5  UNL     1      23.177   1.378  51.696  1.00  0.00     0.065 C 
HETATM    6  N2  UNL     1      22.857   2.567  51.244  1.00  0.00    -0.139 NA
HETATM    7  O2  UNL     1      23.786   3.492  50.926  1.00  0.00    -0.223 OA
HETATM    8  C6  UNL     1      23.885   4.786  51.346  1.00  0.00     0.499 C 
HETATM    9  N3  UNL     1      22.759   5.392  51.570  1.00  0.00    -0.392 NA
HETATM   10  C7  UNL     1      21.511   4.729  51.380  1.00  0.00     0.071 C 
HETATM   11  C8  UNL     1      20.396   4.117  50.953  1.00  0.00    -0.003 C 
HETATM   12  C9  UNL     1      19.351   3.653  51.941  1.00  0.00     0.114 C 
HETATM   13  C10 UNL     1      19.311   2.152  51.799  1.00  0.00     0.140 C 
HETATM   14  N4  UNL     1      18.280   1.518  51.528  1.00  0.00    -0.251 NA
HETATM   15  O3  UNL     1      20.595   1.748  52.031  1.00  0.00    -0.337 OA
HETATM   16  C16 UNL     1      20.910   0.365  52.049  1.00  0.00     0.189 C 
HETATM   17  C17 UNL     1      22.410   0.184  52.112  1.00  0.00     0.080 C 
HETATM   18  C18 UNL     1      22.919  -0.008  53.527  1.00  0.00     0.139 C 
ENDROOT
BRANCH  14  19
HETATM   19  C11 UNL     1      17.974   0.150  51.343  1.00  0.00     0.273 C 
BRANCH  19  20
HETATM   20  N5  UNL     1      16.815  -0.236  52.180  1.00  0.00    -0.369 N 
HETATM   21  H13 UNL     1      15.991   0.365  52.424  1.00  0.00     0.161 HD
BRANCH  20  22
HETATM   22  C12 UNL     1      16.851  -1.567  52.693  1.00  0.00     0.066 A 
HETATM   23  C13 UNL     1      17.870  -2.092  53.465  1.00  0.00     0.169 A 
HETATM   24  N6  UNL     1      17.532  -3.379  53.752  1.00  0.00    -0.183 NA
HETATM   25  N7  UNL     1      16.369  -3.669  53.201  1.00  0.00    -0.283 N 
HETATM   26  C14 UNL     1      15.602  -4.905  53.225  1.00  0.00     0.179 C 
HETATM   27  C15 UNL     1      15.923  -2.565  52.538  1.00  0.00     0.142 A 
ENDBRANCH  20  22
ENDBRANCH  19  20
ENDBRANCH  14  19
BRANCH   1  28
HETATM   28  C2  UNL     1      26.781  -0.130  53.743  1.00  0.00     0.064 C 
HETATM   29  C1  UNL     1      27.287  -1.178  53.091  1.00  0.00     0.017 C 
ENDBRANCH   1  28
TORSDOF 4
ENDMDL
MODEL 5
REMARK VINA RESULT:      -7.3      2.152      5.259
REMARK  4 active torsions:
REMARK  status: ('A' for Active; 'I' for Inactive)
REMARK    1  A    between atoms: C2_2  and  C3_3 
REMARK       I    between atoms: C3_3  and  N1_5 
REMARK    2  A    between atoms: N4_16  and  C11_17 
REMARK    3  A    between atoms: C11_17  and  N5_18 
REMARK    4  A    between atoms: N5_18  and  C12_19 
ROOT
HETATM    1  C3  UNL     1      23.514   4.683  48.963  1.00  0.00     0.242 C 
HETATM    2  O1  UNL     1      22.832   4.448  47.932  1.00  0.00    -0.268 OA
HETATM    3  N1  UNL     1      23.480   3.983  50.202  1.00  0.00    -0.343 N 
HETATM    4  C4  UNL     1      24.296   4.286  51.388  1.00  0.00     0.183 C 
HETATM    5  C5  UNL     1      24.205   3.030  52.219  1.00  0.00     0.065 C 
HETATM    6  N2  UNL     1      25.128   2.350  52.855  1.00  0.00    -0.139 NA
HETATM    7  O2  UNL     1      26.425   2.720  52.857  1.00  0.00    -0.223 OA
HETATM    8  C6  UNL     1      27.527   1.981  52.540  1.00  0.00     0.499 C 
HETATM    9  N3  UNL     1      27.458   0.717  52.828  1.00  0.00    -0.392 NA
HETATM   10  C7  UNL     1      26.297   0.159  53.438  1.00  0.00     0.071 C 
HETATM   11  C8  UNL     1      25.278  -0.232  54.218  1.00  0.00    -0.003 C 
HETATM   12  C9  UNL     1      24.226  -1.179  53.687  1.00  0.00     0.114 C 
HETATM   13  C10 UNL     1      22.938  -0.395  53.710  1.00  0.00     0.140 C 
HETATM   14  N4  UNL     1      21.920  -0.769  54.312  1.00  0.00    -0.251 NA
HETATM   15  O3  UNL     1      23.197   0.717  52.959  1.00  0.00    -0.337 OA
HETATM   16  C16 UNL     1      22.164   1.655  52.704  1.00  0.00     0.189 C 
HETATM   17  C17 UNL     1      22.744   2.885  52.041  1.00  0.00     0.080 C 
HETATM   18  C18 UNL     1      22.639   2.841  50.529  1.00  0.00     0.139 C 
ENDROOT
BRANCH  14  19
HETATM   19  C11 UNL     1      20.621  -0.241  54.489  1.00  0.00     0.273 C 
BRANCH  19  20
HETATM   20  N5  UNL     1      19.601  -1.259  54.148  1.00  0.00    -0.369 N 
HETATM   21  H13 UNL     1      19.477  -2.197  54.601  1.00  0.00     0.161 HD
BRANCH  20  22
HETATM   22  C12 UNL     1      18.711  -0.899  53.093  1.00  0.00     0.066 A 
HETATM   23  C13 UNL     1      17.390  -1.296  52.999  1.00  0.00     0.169 A 
HETATM   24  N6  UNL     1      16.888  -0.747  51.859  1.00  0.00    -0.183 NA
HETATM   25  N7  UNL     1      17.823  -0.041  51.253  1.00  0.00    -0.283 N 
HETATM   26  C14 UNL     1      17.767   0.724  50.016  1.00  0.00     0.179 C 
HETATM   27  C15 UNL     1      18.964  -0.116  51.995  1.00  0.00     0.142 A 
ENDBRANCH  20  22
ENDBRANCH  19  20
ENDBRANCH  14  19
BRANCH   1  28
HETATM   28  C2  UNL     1      24.420   5.811  48.802  1.00  0.00     0.064 C 
HETATM   29  C1  UNL     1      23.992   6.705  47.909  1.00  0.00     0.017 C 
ENDBRANCH   1  28
TORSDOF 4
ENDMDL
MODEL 6
REMARK VINA RESULT:      -7.3      1.936      2.163
REMARK  4 active torsions:
REMARK  status: ('A' for Active; 'I' for Inactive)
REMARK    1  A    between atoms: C2_2  and  C3_3 
REMARK       I    between atoms: C3_3  and  N1_5 
REMARK    2  A    between atoms: N4_16  and  C11_17 
REMARK    3  A    between atoms: C11_17  and  N5_18 
REMARK    4  A    between atoms: N5_18  and  C12_19 
ROOT
HETATM    1  C3  UNL     1      27.384   0.992  53.806  1.00  0.00     0.242 C 
HETATM    2  O1  UNL     1      27.407   1.085  55.061  1.00  0.00    -0.268 OA
HETATM    3  N1  UNL     1      26.404   1.516  52.917  1.00  0.00    -0.343 N 
HETATM    4  C4  UNL     1      26.411   1.388  51.451  1.00  0.00     0.183 C 
HETATM    5  C5  UNL     1      25.449   2.454  50.991  1.00  0.00     0.065 C 
HETATM    6  N2  UNL     1      25.539   3.337  50.026  1.00  0.00    -0.139 NA
HETATM    7  O2  UNL     1      26.620   3.423  49.224  1.00  0.00    -0.223 OA
HETATM    8  C6  UNL     1      27.384   4.514  48.929  1.00  0.00     0.499 C 
HETATM    9  N3  UNL     1      26.754   5.648  48.893  1.00  0.00    -0.392 NA
HETATM   10  C7  UNL     1      25.352   5.725  49.147  1.00  0.00     0.071 C 
HETATM   11  C8  UNL     1      24.012   5.676  49.162  1.00  0.00    -0.003 C 
HETATM   12  C9  UNL     1      23.236   6.265  50.318  1.00  0.00     0.114 C 
HETATM   13  C10 UNL     1      22.523   5.098  50.953  1.00  0.00     0.140 C 
HETATM   14  N4  UNL     1      21.293   5.051  51.107  1.00  0.00    -0.251 NA
HETATM   15  O3  UNL     1      23.516   4.215  51.268  1.00  0.00    -0.337 OA
HETATM   16  C16 UNL     1      23.204   3.016  51.958  1.00  0.00     0.189 C 
HETATM   17  C17 UNL     1      24.422   2.121  52.002  1.00  0.00     0.080 C 
HETATM   18  C18 UNL     1      25.218   2.274  53.284  1.00  0.00     0.139 C 
ENDROOT
BRANCH  14  19
HETATM   19  C11 UNL     1      20.396   4.107  51.656  1.00  0.00     0.273 C 
BRANCH  19  20
HETATM   20  N5  UNL     1      19.673   3.395  50.577  1.00  0.00    -0.369 N 
HETATM   21  H13 UNL     1      20.034   3.186  49.614  1.00  0.00     0.161 HD
BRANCH  20  22
HETATM   22  C12 UNL     1      18.355   2.962  50.910  1.00  0.00     0.066 A 
HETATM   23  C13 UNL     1      17.784   1.772  50.500  1.00  0.00     0.169 A 
HETATM   24  N6  UNL     1      16.529   1.730  51.023  1.00  0.00    -0.183 NA
HETATM   25  N7  UNL     1      16.300   2.823  51.726  1.00  0.00    -0.283 N 
HETATM   26  C14 UNL     1      15.116   3.231  52.466  1.00  0.00     0.179 C 
HETATM   27  C15 UNL     1      17.415   3.605  51.674  1.00  0.00     0.142 A 
ENDBRANCH  20  22
ENDBRANCH  19  20
ENDBRANCH  14  19
BRANCH   1  28
HETATM   28  C2  UNL     1      28.516   0.251  53.269  1.00  0.00     0.064 C 
HETATM   29  C1  UNL     1      29.368  -0.160  54.210  1.00  0.00     0.017 C 
ENDBRANCH   1  28
TORSDOF 4
ENDMDL
MODEL 7
REMARK VINA RESULT:      -7.3      2.286      7.630
REMARK  4 active torsions:
REMARK  status: ('A' for Active; 'I' for Inactive)
REMARK    1  A    between atoms: C2_2  and  C3_3 
REMARK       I    between atoms: C3_3  and  N1_5 
REMARK    2  A    between atoms: N4_16  and  C11_17 
REMARK    3  A    between atoms: C11_17  and  N5_18 
REMARK    4  A    between atoms: N5_18  and  C12_19 
ROOT
HETATM    1  C3  UNL     1      18.273   0.386  51.768  1.00  0.00     0.242 C 
HETATM    2  O1  UNL     1      18.215  -0.868  51.857  1.00  0.00    -0.268 OA
HETATM    3  N1  UNL     1      19.433   1.207  51.844  1.00  0.00    -0.343 N 
HETATM    4  C4  UNL     1      19.462   2.673  51.735  1.00  0.00     0.183 C 
HETATM    5  C5  UNL     1      20.908   2.985  51.440  1.00  0.00     0.065 C 
HETATM    6  N2  UNL     1      21.453   3.797  50.566  1.00  0.00    -0.139 NA
HETATM    7  O2  UNL     1      20.717   4.548  49.721  1.00  0.00    -0.223 OA
HETATM    8  C6  UNL     1      20.809   4.648  48.364  1.00  0.00     0.499 C 
HETATM    9  N3  UNL     1      22.002   4.522  47.870  1.00  0.00    -0.392 NA
HETATM   10  C7  UNL     1      23.131   4.295  48.711  1.00  0.00     0.071 C 
HETATM   11  C8  UNL     1      24.153   4.322  49.579  1.00  0.00    -0.003 C 
HETATM   12  C9  UNL     1      25.036   3.109  49.762  1.00  0.00     0.114 C 
HETATM   13  C10 UNL     1      24.833   2.683  51.194  1.00  0.00     0.140 C 
HETATM   14  N4  UNL     1      25.759   2.569  52.011  1.00  0.00    -0.251 NA
HETATM   15  O3  UNL     1      23.486   2.484  51.308  1.00  0.00    -0.337 OA
HETATM   16  C16 UNL     1      22.943   1.999  52.525  1.00  0.00     0.189 C 
HETATM   17  C17 UNL     1      21.433   2.065  52.472  1.00  0.00     0.080 C 
HETATM   18  C18 UNL     1      20.802   0.755  52.040  1.00  0.00     0.139 C 
ENDROOT
BRANCH  14  19
HETATM   19  C11 UNL     1      25.842   2.198  53.373  1.00  0.00     0.273 C 
BRANCH  19  20
HETATM   20  N5  UNL     1      27.232   2.345  53.863  1.00  0.00    -0.369 N 
HETATM   21  H13 UNL     1      27.663   3.209  54.274  1.00  0.00     0.161 HD
BRANCH  20  22
HETATM   22  C12 UNL     1      28.044   1.177  53.751  1.00  0.00     0.066 A 
HETATM   23  C13 UNL     1      29.403   1.129  53.997  1.00  0.00     0.169 A 
HETATM   24  N6  UNL     1      29.803  -0.154  53.783  1.00  0.00    -0.183 NA
HETATM   25  N7  UNL     1      28.769  -0.890  53.421  1.00  0.00    -0.283 N 
HETATM   26  C14 UNL     1      28.696  -2.305  53.088  1.00  0.00     0.179 C 
HETATM   27  C15 UNL     1      27.665  -0.092  53.393  1.00  0.00     0.142 A 
ENDBRANCH  20  22
ENDBRANCH  19  20
ENDBRANCH  14  19
BRANCH   1  28
HETATM   28  C2  UNL     1      16.970   1.003  51.568  1.00  0.00     0.064 C 
HETATM   29  C1  UNL     1      16.426   0.710  50.385  1.00  0.00     0.017 C 
ENDBRANCH   1  28
TORSDOF 4
ENDMDL
MODEL 8
REMARK VINA RESULT:      -7.1      3.591      7.679
REMARK  4 active torsions:
REMARK  status: ('A' for Active; 'I' for Inactive)
REMARK    1  A    between atoms: C2_2  and  C3_3 
REMARK       I    between atoms: C3_3  and  N1_5 
REMARK    2  A    between atoms: N4_16  and  C11_17 
REMARK    3  A    between atoms: C11_17  and  N5_18 
REMARK    4  A    between atoms: N5_18  and  C12_19 
ROOT
HETATM    1  C3  UNL     1      25.882   9.606  48.865  1.00  0.00     0.242 C 
HETATM    2  O1  UNL     1      26.634  10.248  49.644  1.00  0.00    -0.268 OA
HETATM    3  N1  UNL     1      25.374   8.289  49.043  1.00  0.00    -0.343 N 
HETATM    4  C4  UNL     1      24.494   7.569  48.110  1.00  0.00     0.183 C 
HETATM    5  C5  UNL     1      23.916   6.454  48.946  1.00  0.00     0.065 C 
HETATM    6  N2  UNL     1      22.689   6.006  49.054  1.00  0.00    -0.139 NA
HETATM    7  O2  UNL     1      21.663   6.536  48.357  1.00  0.00    -0.223 OA
HETATM    8  C6  UNL     1      20.463   6.995  48.815  1.00  0.00     0.499 C 
HETATM    9  N3  UNL     1      19.982   6.377  49.849  1.00  0.00    -0.392 NA
HETATM   10  C7  UNL     1      20.679   5.288  50.451  1.00  0.00     0.071 C 
HETATM   11  C8  UNL     1      21.275   4.139  50.803  1.00  0.00    -0.003 C 
HETATM   12  C9  UNL     1      21.978   4.016  52.136  1.00  0.00     0.114 C 
HETATM   13  C10 UNL     1      23.428   3.774  51.798  1.00  0.00     0.140 C 
HETATM   14  N4  UNL     1      24.067   2.790  52.199  1.00  0.00    -0.251 NA
HETATM   15  O3  UNL     1      23.782   4.835  51.013  1.00  0.00    -0.337 OA
HETATM   16  C16 UNL     1      25.122   4.969  50.568  1.00  0.00     0.189 C 
HETATM   17  C17 UNL     1      25.214   6.088  49.555  1.00  0.00     0.080 C 
HETATM   18  C18 UNL     1      25.625   7.409  50.175  1.00  0.00     0.139 C 
ENDROOT
BRANCH  14  19
HETATM   19  C11 UNL     1      25.396   2.335  52.036  1.00  0.00     0.273 C 
BRANCH  19  20
HETATM   20  N5  UNL     1      26.168   2.542  53.283  1.00  0.00    -0.369 N 
HETATM   21  H13 UNL     1      26.203   3.418  53.859  1.00  0.00     0.161 HD
BRANCH  20  22
HETATM   22  C12 UNL     1      26.932   1.420  53.720  1.00  0.00     0.066 A 
HETATM   23  C13 UNL     1      26.523   0.504  54.672  1.00  0.00     0.169 A 
HETATM   24  N6  UNL     1      27.525  -0.408  54.805  1.00  0.00    -0.183 NA
HETATM   25  N7  UNL     1      28.519  -0.102  53.993  1.00  0.00    -0.283 N 
HETATM   26  C14 UNL     1      29.793  -0.770  53.778  1.00  0.00     0.179 C 
HETATM   27  C15 UNL     1      28.179   1.026  53.307  1.00  0.00     0.142 A 
ENDBRANCH  20  22
ENDBRANCH  19  20
ENDBRANCH  14  19
BRANCH   1  28
HETATM   28  C2  UNL     1      25.532  10.354  47.667  1.00  0.00     0.064 C 
HETATM   29  C1  UNL     1      25.873  11.642  47.733  1.00  0.00     0.017 C 
ENDBRANCH   1  28
TORSDOF 4
ENDMDL
MODEL 9
REMARK VINA RESULT:      -7.0      3.032      7.768
REMARK  4 active torsions:
REMARK  status: ('A' for Active; 'I' for Inactive)
REMARK    1  A    between atoms: C2_2  and  C3_3 
REMARK       I    between atoms: C3_3  and  N1_5 
REMARK    2  A    between atoms: N4_16  and  C11_17 
REMARK    3  A    between atoms: C11_17  and  N5_18 
REMARK    4  A    between atoms: N5_18  and  C12_19 
ROOT
HETATM    1  C3  UNL     1      23.185   6.552  47.316  1.00  0.00     0.242 C 
HETATM    2  O1  UNL     1      23.749   7.563  47.810  1.00  0.00    -0.268 OA
HETATM    3  N1  UNL     1      23.026   5.271  47.915  1.00  0.00    -0.343 N 
HETATM    4  C4  UNL     1      22.358   4.110  47.306  1.00  0.00     0.183 C 
HETATM    5  C5  UNL     1      22.079   3.200  48.476  1.00  0.00     0.065 C 
HETATM    6  N2  UNL     1      21.004   2.525  48.805  1.00  0.00    -0.139 NA
HETATM    7  O2  UNL     1      19.879   2.552  48.062  1.00  0.00    -0.223 OA
HETATM    8  C6  UNL     1      18.601   2.827  48.453  1.00  0.00     0.499 C 
HETATM    9  N3  UNL     1      18.290   2.458  49.657  1.00  0.00    -0.392 NA
HETATM   10  C7  UNL     1      19.238   1.807  50.500  1.00  0.00     0.071 C 
HETATM   11  C8  UNL     1      20.104   1.000  51.131  1.00  0.00    -0.003 C 
HETATM   12  C9  UNL     1      20.813   1.464  52.383  1.00  0.00     0.114 C 
HETATM   13  C10 UNL     1      22.278   1.487  52.023  1.00  0.00     0.140 C 
HETATM   14  N4  UNL     1      23.145   0.858  52.649  1.00  0.00    -0.251 NA
HETATM   15  O3  UNL     1      22.354   2.309  50.935  1.00  0.00    -0.337 OA
HETATM   16  C16 UNL     1      23.618   2.619  50.370  1.00  0.00     0.189 C 
HETATM   17  C17 UNL     1      23.426   3.362  49.067  1.00  0.00     0.080 C 
HETATM   18  C18 UNL     1      23.489   4.868  49.234  1.00  0.00     0.139 C 
ENDROOT
BRANCH  14  19
HETATM   19  C11 UNL     1      24.545   0.709  52.528  1.00  0.00     0.273 C 
BRANCH  19  20
HETATM   20  N5  UNL     1      25.004  -0.481  53.280  1.00  0.00    -0.369 N 
HETATM   21  H13 UNL     1      24.441  -1.340  53.497  1.00  0.00     0.161 HD
BRANCH  20  22
HETATM   22  C12 UNL     1      26.351  -0.426  53.746  1.00  0.00     0.066 A 
HETATM   23  C13 UNL     1      26.745   0.050  54.982  1.00  0.00     0.169 A 
HETATM   24  N6  UNL     1      28.099  -0.066  55.043  1.00  0.00    -0.183 NA
HETATM   25  N7  UNL     1      28.555  -0.583  53.917  1.00  0.00    -0.283 N 
HETATM   26  C14 UNL     1      29.917  -0.894  53.511  1.00  0.00     0.179 C 
HETATM   27  C15 UNL     1      27.494  -0.816  53.094  1.00  0.00     0.142 A 
ENDBRANCH  20  22
ENDBRANCH  19  20
ENDBRANCH  14  19
BRANCH   1  28
HETATM   28  C2  UNL     1      22.659   6.789  45.980  1.00  0.00     0.064 C 
HETATM   29  C1  UNL     1      23.079   7.938  45.446  1.00  0.00     0.017 C 
ENDBRANCH   1  28
TORSDOF 4
ENDMDL
