MODEL 1
REMARK VINA RESULT:      -7.6      0.000      0.000
REMARK  9 active torsions:
REMARK  status: ('A' for Active; 'I' for Inactive)
REMARK    1  A    between atoms: C2_2  and  S1_3 
REMARK    2  A    between atoms: S1_3  and  C3_6 
REMARK    3  A    between atoms: C3_6  and  C4_7 
REMARK    4  A    between atoms: C4_7  and  C5_8 
REMARK    5  A    between atoms: C5_8  and  C6_9 
REMARK    6  A    between atoms: C6_9  and  C7_10 
REMARK    7  A    between atoms: C6_9  and  O3_12 
REMARK    8  A    between atoms: O3_12  and  C9_13 
REMARK    9  A    between atoms: C9_13  and  C10_14 
ROOT
HETATM    1  C10 UNL     1      23.270   2.351  50.128  1.00  0.00    -0.052 C 
HETATM    2  C11 UNL     1      23.964   3.424  50.125  1.00  0.00     0.007 C 
HETATM    3  C12 UNL     1      24.816   4.189  49.316  1.00  0.00     0.020 C 
HETATM    4  C13 UNL     1      25.530   5.252  49.152  1.00  0.00     0.118 C 
HETATM    5  N1  UNL     1      24.977   5.432  50.476  1.00  0.00    -0.254 NA
HETATM    6  C14 UNL     1      24.102   6.477  50.531  1.00  0.00     0.233 C 
HETATM    7  N2  UNL     1      23.156   7.561  50.722  1.00  0.00    -0.237 NA
HETATM    8  C15 UNL     1      21.867   7.211  50.699  1.00  0.00     0.216 C 
HETATM    9  N3  UNL     1      21.005   6.089  50.555  1.00  0.00    -0.310 N 
HETATM   10  C16 UNL     1      21.566   5.249  49.706  1.00  0.00     0.011 C 
HETATM   11  C17 UNL     1      22.048   4.496  48.971  1.00  0.00    -0.083 C 
HETATM   12  C18 UNL     1      22.636   3.565  48.096  1.00  0.00     0.104 C 
HETATM   13  C19 UNL     1      22.711   2.151  48.715  1.00  0.00     0.024 C 
HETATM   14  C20 UNL     1      21.226   1.768  48.701  1.00  0.00     0.015 C 
HETATM   15  H23 UNL     1      20.401   6.487  51.144  1.00  0.00     0.177 HD
ENDROOT
BRANCH   1  16
HETATM   16  C9  UNL     1      22.399   1.417  50.800  1.00  0.00     0.202 C 
BRANCH  16  17
HETATM   17  O3  UNL     1      22.680   0.881  51.905  1.00  0.00    -0.382 OA
BRANCH  17  18
HETATM   18  C6  UNL     1      22.973   0.382  53.032  1.00  0.00     0.121 C 
BRANCH  18  19
HETATM   19  C5  UNL     1      24.414  -0.051  53.161  1.00  0.00     0.033 C 
BRANCH  19  20
HETATM   20  C4  UNL     1      25.494   0.603  52.453  1.00  0.00     0.017 C 
BRANCH  20  21
HETATM   21  C3  UNL     1      26.850   0.013  52.403  1.00  0.00     0.141 C 
BRANCH  21  22
HETATM   22  S1  UNL     1      27.648   0.536  53.944  1.00  0.00     0.149 S 
HETATM   23  O1  UNL     1      27.177  -0.323  55.080  1.00  0.00    -0.227 OA
HETATM   24  O2  UNL     1      27.210   1.952  54.241  1.00  0.00    -0.227 OA
BRANCH  22  25
HETATM   25  C2  UNL     1      29.387   0.502  53.749  1.00  0.00     0.127 C 
HETATM   26  C1  UNL     1      29.876  -0.739  53.522  1.00  0.00     0.023 C 
ENDBRANCH  22  25
ENDBRANCH  21  22
ENDBRANCH  20  21
ENDBRANCH  19  20
ENDBRANCH  18  19
BRANCH  18  27
HETATM   27  C7  UNL     1      21.939  -0.583  53.518  1.00  0.00     0.027 C 
HETATM   28  C8  UNL     1      22.146  -1.059  54.916  1.00  0.00     0.007 C 
ENDBRANCH  18  27
ENDBRANCH  17  18
ENDBRANCH  16  17
ENDBRANCH   1  16
TORSDOF 9
ENDMDL
MODEL 2
REMARK VINA RESULT:      -7.5      4.267      8.101
REMARK  9 active torsions:
REMARK  status: ('A' for Active; 'I' for Inactive)
REMARK    1  A    between atoms: C2_2  and  S1_3 
REMARK    2  A    between atoms: S1_3  and  C3_6 
REMARK    3  A    between atoms: C3_6  and  C4_7 
REMARK    4  A    between atoms: C4_7  and  C5_8 
REMARK    5  A    between atoms: C5_8  and  C6_9 
REMARK    6  A    between atoms: C6_9  and  C7_10 
REMARK    7  A    between atoms: C6_9  and  O3_12 
REMARK    8  A    between atoms: O3_12  and  C9_13 
REMARK    9  A    between atoms: C9_13  and  C10_14 
ROOT
HETATM    1  C10 UNL     1      26.906   2.176  52.074  1.00  0.00    -0.052 C 
HETATM    2  C11 UNL     1      27.852   1.635  52.740  1.00  0.00     0.007 C 
HETATM    3  C12 UNL     1      28.373   1.529  54.037  1.00  0.00     0.020 C 
HETATM    4  C13 UNL     1      29.247   1.025  54.844  1.00  0.00     0.118 C 
HETATM    5  N1  UNL     1      29.596   0.431  53.573  1.00  0.00    -0.254 NA
HETATM    6  C14 UNL     1      29.379  -0.916  53.557  1.00  0.00     0.233 C 
HETATM    7  N2  UNL     1      29.196  -2.349  53.413  1.00  0.00    -0.237 NA
HETATM    8  C15 UNL     1      28.074  -2.726  52.794  1.00  0.00     0.216 C 
HETATM    9  N3  UNL     1      26.904  -2.214  52.168  1.00  0.00    -0.310 N 
HETATM   10  C16 UNL     1      26.549  -1.114  52.803  1.00  0.00     0.011 C 
HETATM   11  C17 UNL     1      26.228  -0.140  53.342  1.00  0.00    -0.083 C 
HETATM   12  C18 UNL     1      25.844   1.054  53.976  1.00  0.00     0.104 C 
HETATM   13  C19 UNL     1      25.664   2.215  52.971  1.00  0.00     0.024 C 
HETATM   14  C20 UNL     1      24.386   1.761  52.256  1.00  0.00     0.015 C 
HETATM   15  H23 UNL     1      26.915  -2.935  51.576  1.00  0.00     0.177 HD
ENDROOT
BRANCH   1  16
HETATM   16  C9  UNL     1      26.232   2.430  50.824  1.00  0.00     0.202 C 
BRANCH  16  17
HETATM   17  O3  UNL     1      26.296   3.530  50.214  1.00  0.00    -0.382 OA
BRANCH  17  18
HETATM   18  C6  UNL     1      26.328   4.651  49.624  1.00  0.00     0.121 C 
BRANCH  18  19
HETATM   19  C5  UNL     1      24.990   5.113  49.101  1.00  0.00     0.033 C 
BRANCH  19  20
HETATM   20  C4  UNL     1      23.766   4.372  49.318  1.00  0.00     0.017 C 
BRANCH  20  21
HETATM   21  C3  UNL     1      22.441   4.991  49.096  1.00  0.00     0.141 C 
BRANCH  21  22
HETATM   22  S1  UNL     1      21.872   5.485  50.745  1.00  0.00     0.149 S 
HETATM   23  O1  UNL     1      22.787   4.922  51.792  1.00  0.00    -0.227 OA
HETATM   24  O2  UNL     1      20.505   4.878  50.970  1.00  0.00    -0.227 OA
BRANCH  22  25
HETATM   25  C2  UNL     1      21.747   7.229  50.827  1.00  0.00     0.127 C 
HETATM   26  C1  UNL     1      22.833   7.868  50.337  1.00  0.00     0.023 C 
ENDBRANCH  22  25
ENDBRANCH  21  22
ENDBRANCH  20  21
ENDBRANCH  19  20
ENDBRANCH  18  19
BRANCH  18  27
HETATM   27  C7  UNL     1      27.490   4.776  48.692  1.00  0.00     0.027 C 
HETATM   28  C8  UNL     1      27.857   6.179  48.344  1.00  0.00     0.007 C 
ENDBRANCH  18  27
ENDBRANCH  17  18
ENDBRANCH  16  17
ENDBRANCH   1  16
TORSDOF 9
ENDMDL
MODEL 3
REMARK VINA RESULT:      -7.4      4.283      8.101
REMARK  9 active torsions:
REMARK  status: ('A' for Active; 'I' for Inactive)
REMARK    1  A    between atoms: C2_2  and  S1_3 
REMARK    2  A    between atoms: S1_3  and  C3_6 
REMARK    3  A    between atoms: C3_6  and  C4_7 
REMARK    4  A    between atoms: C4_7  and  C5_8 
REMARK    5  A    between atoms: C5_8  and  C6_9 
REMARK    6  A    between atoms: C6_9  and  C7_10 
REMARK    7  A    between atoms: C6_9  and  O3_12 
REMARK    8  A    between atoms: O3_12  and  C9_13 
REMARK    9  A    between atoms: C9_13  and  C10_14 
ROOT
HETATM    1  C10 UNL     1      26.853   2.127  52.075  1.00  0.00    -0.052 C 
HETATM    2  C11 UNL     1      27.805   1.590  52.736  1.00  0.00     0.007 C 
HETATM    3  C12 UNL     1      28.335   1.489  54.030  1.00  0.00     0.020 C 
HETATM    4  C13 UNL     1      29.215   0.990  54.832  1.00  0.00     0.118 C 
HETATM    5  N1  UNL     1      29.558   0.394  53.560  1.00  0.00    -0.254 NA
HETATM    6  C14 UNL     1      29.346  -0.953  53.549  1.00  0.00     0.233 C 
HETATM    7  N2  UNL     1      29.167  -2.388  53.408  1.00  0.00    -0.237 NA
HETATM    8  C15 UNL     1      28.042  -2.770  52.798  1.00  0.00     0.216 C 
HETATM    9  N3  UNL     1      26.866  -2.263  52.178  1.00  0.00    -0.310 N 
HETATM   10  C16 UNL     1      26.511  -1.162  52.813  1.00  0.00     0.011 C 
HETATM   11  C17 UNL     1      26.191  -0.189  53.352  1.00  0.00    -0.083 C 
HETATM   12  C18 UNL     1      25.807   1.006  53.986  1.00  0.00     0.104 C 
HETATM   13  C19 UNL     1      25.616   2.164  52.980  1.00  0.00     0.024 C 
HETATM   14  C20 UNL     1      24.335   1.705  52.274  1.00  0.00     0.015 C 
HETATM   15  H23 UNL     1      26.875  -2.985  51.587  1.00  0.00     0.177 HD
ENDROOT
BRANCH   1  16
HETATM   16  C9  UNL     1      26.170   2.376  50.828  1.00  0.00     0.202 C 
BRANCH  16  17
HETATM   17  O3  UNL     1      26.201   3.485  50.232  1.00  0.00    -0.382 OA
BRANCH  17  18
HETATM   18  C6  UNL     1      26.190   4.606  49.642  1.00  0.00     0.121 C 
BRANCH  18  19
HETATM   19  C5  UNL     1      24.841   5.005  49.096  1.00  0.00     0.033 C 
BRANCH  19  20
HETATM   20  C4  UNL     1      23.743   4.071  48.962  1.00  0.00     0.017 C 
BRANCH  20  21
HETATM   21  C3  UNL     1      22.614   4.066  49.918  1.00  0.00     0.141 C 
BRANCH  21  22
HETATM   22  S1  UNL     1      21.162   3.624  48.927  1.00  0.00     0.149 S 
HETATM   23  O1  UNL     1      20.910   4.680  47.891  1.00  0.00    -0.227 OA
HETATM   24  O2  UNL     1      19.960   3.600  49.844  1.00  0.00    -0.227 OA
BRANCH  22  25
HETATM   25  C2  UNL     1      21.384   2.035  48.230  1.00  0.00     0.127 C 
HETATM   26  C1  UNL     1      21.449   1.049  49.153  1.00  0.00     0.023 C 
ENDBRANCH  22  25
ENDBRANCH  21  22
ENDBRANCH  20  21
ENDBRANCH  19  20
ENDBRANCH  18  19
BRANCH  18  27
HETATM   27  C7  UNL     1      27.360   4.784  48.728  1.00  0.00     0.027 C 
HETATM   28  C8  UNL     1      27.652   6.201  48.366  1.00  0.00     0.007 C 
ENDBRANCH  18  27
ENDBRANCH  17  18
ENDBRANCH  16  17
ENDBRANCH   1  16
TORSDOF 9
ENDMDL
MODEL 4
REMARK VINA RESULT:      -7.3      1.590      2.331
REMARK  9 active torsions:
REMARK  status: ('A' for Active; 'I' for Inactive)
REMARK    1  A    between atoms: C2_2  and  S1_3 
REMARK    2  A    between atoms: S1_3  and  C3_6 
REMARK    3  A    between atoms: C3_6  and  C4_7 
REMARK    4  A    between atoms: C4_7  and  C5_8 
REMARK    5  A    between atoms: C5_8  and  C6_9 
REMARK    6  A    between atoms: C6_9  and  C7_10 
REMARK    7  A    between atoms: C6_9  and  O3_12 
REMARK    8  A    between atoms: O3_12  and  C9_13 
REMARK    9  A    between atoms: C9_13  and  C10_14 
ROOT
HETATM    1  C10 UNL     1      21.277   0.657  50.452  1.00  0.00    -0.052 C 
HETATM    2  C11 UNL     1      21.855   1.426  49.612  1.00  0.00     0.007 C 
HETATM    3  C12 UNL     1      21.765   1.890  48.292  1.00  0.00     0.020 C 
HETATM    4  C13 UNL     1      22.215   2.651  47.351  1.00  0.00     0.118 C 
HETATM    5  N1  UNL     1      23.096   2.947  48.459  1.00  0.00    -0.254 NA
HETATM    6  C14 UNL     1      22.943   4.224  48.912  1.00  0.00     0.233 C 
HETATM    7  N2  UNL     1      22.878   5.557  49.485  1.00  0.00    -0.237 NA
HETATM    8  C15 UNL     1      22.144   5.671  50.595  1.00  0.00     0.216 C 
HETATM    9  N3  UNL     1      21.348   4.919  51.503  1.00  0.00    -0.310 N 
HETATM   10  C16 UNL     1      20.724   3.979  50.820  1.00  0.00     0.011 C 
HETATM   11  C17 UNL     1      20.177   3.142  50.237  1.00  0.00    -0.083 C 
HETATM   12  C18 UNL     1      19.525   2.108  49.541  1.00  0.00     0.104 C 
HETATM   13  C19 UNL     1      19.768   0.727  50.190  1.00  0.00     0.024 C 
HETATM   14  C20 UNL     1      18.938   0.876  51.470  1.00  0.00     0.015 C 
HETATM   15  H23 UNL     1      21.633   5.472  52.199  1.00  0.00     0.177 HD
ENDROOT
BRANCH   1  16
HETATM   16  C9  UNL     1      21.204   0.047  51.757  1.00  0.00     0.202 C 
BRANCH  16  17
HETATM   17  O3  UNL     1      22.134   0.112  52.604  1.00  0.00    -0.382 OA
BRANCH  17  18
HETATM   18  C6  UNL     1      23.095   0.198  53.426  1.00  0.00     0.121 C 
BRANCH  18  19
HETATM   19  C5  UNL     1      24.423   0.532  52.793  1.00  0.00     0.033 C 
BRANCH  19  20
HETATM   20  C4  UNL     1      25.570  -0.348  52.869  1.00  0.00     0.017 C 
BRANCH  20  21
HETATM   21  C3  UNL     1      26.910   0.093  52.425  1.00  0.00     0.141 C 
BRANCH  21  22
HETATM   22  S1  UNL     1      27.778   0.567  53.944  1.00  0.00     0.149 S 
HETATM   23  O1  UNL     1      27.240  -0.217  55.106  1.00  0.00    -0.227 OA
HETATM   24  O2  UNL     1      27.486   2.025  54.214  1.00  0.00    -0.227 OA
BRANCH  22  25
HETATM   25  C2  UNL     1      29.501   0.354  53.730  1.00  0.00     0.127 C 
HETATM   26  C1  UNL     1      29.864  -0.936  53.545  1.00  0.00     0.023 C 
ENDBRANCH  22  25
ENDBRANCH  21  22
ENDBRANCH  20  21
ENDBRANCH  19  20
ENDBRANCH  18  19
BRANCH  18  27
HETATM   27  C7  UNL     1      23.092  -0.912  54.429  1.00  0.00     0.027 C 
HETATM   28  C8  UNL     1      21.735  -1.406  54.802  1.00  0.00     0.007 C 
ENDBRANCH  18  27
ENDBRANCH  17  18
ENDBRANCH  16  17
ENDBRANCH   1  16
TORSDOF 9
ENDMDL
MODEL 5
REMARK VINA RESULT:      -7.2      2.554      5.042
REMARK  9 active torsions:
REMARK  status: ('A' for Active; 'I' for Inactive)
REMARK    1  A    between atoms: C2_2  and  S1_3 
REMARK    2  A    between atoms: S1_3  and  C3_6 
REMARK    3  A    between atoms: C3_6  and  C4_7 
REMARK    4  A    between atoms: C4_7  and  C5_8 
REMARK    5  A    between atoms: C5_8  and  C6_9 
REMARK    6  A    between atoms: C6_9  and  C7_10 
REMARK    7  A    between atoms: C6_9  and  O3_12 
REMARK    8  A    between atoms: O3_12  and  C9_13 
REMARK    9  A    between atoms: C9_13  and  C10_14 
ROOT
HETATM    1  C10 UNL     1      25.236   2.788  51.494  1.00  0.00    -0.052 C 
HETATM    2  C11 UNL     1      24.007   3.011  51.764  1.00  0.00     0.007 C 
HETATM    3  C12 UNL     1      23.104   4.048  52.034  1.00  0.00     0.020 C 
HETATM    4  C13 UNL     1      21.894   4.431  52.277  1.00  0.00     0.118 C 
HETATM    5  N1  UNL     1      21.759   2.999  52.123  1.00  0.00    -0.254 NA
HETATM    6  C14 UNL     1      21.037   2.666  51.015  1.00  0.00     0.233 C 
HETATM    7  N2  UNL     1      20.285   2.181  49.872  1.00  0.00    -0.237 NA
HETATM    8  C15 UNL     1      21.017   1.792  48.825  1.00  0.00     0.216 C 
HETATM    9  N3  UNL     1      22.360   1.655  48.375  1.00  0.00    -0.310 N 
HETATM   10  C16 UNL     1      23.068   2.640  48.895  1.00  0.00     0.011 C 
HETATM   11  C17 UNL     1      23.706   3.492  49.350  1.00  0.00    -0.083 C 
HETATM   12  C18 UNL     1      24.493   4.510  49.917  1.00  0.00     0.104 C 
HETATM   13  C19 UNL     1      25.744   3.949  50.631  1.00  0.00     0.024 C 
HETATM   14  C20 UNL     1      26.566   3.490  49.422  1.00  0.00     0.015 C 
HETATM   15  H23 UNL     1      22.110   0.904  47.882  1.00  0.00     0.177 HD
ENDROOT
BRANCH   1  16
HETATM   16  C9  UNL     1      26.319   1.875  51.222  1.00  0.00     0.202 C 
BRANCH  16  17
HETATM   17  O3  UNL     1      26.663   0.954  52.009  1.00  0.00    -0.382 OA
BRANCH  17  18
HETATM   18  C6  UNL     1      27.007   0.057  52.835  1.00  0.00     0.121 C 
BRANCH  18  19
HETATM   19  C5  UNL     1      25.901  -0.901  53.204  1.00  0.00     0.033 C 
BRANCH  19  20
HETATM   20  C4  UNL     1      24.711  -0.486  53.916  1.00  0.00     0.017 C 
BRANCH  20  21
HETATM   21  C3  UNL     1      23.409  -0.350  53.227  1.00  0.00     0.141 C 
BRANCH  21  22
HETATM   22  S1  UNL     1      22.185  -0.982  54.406  1.00  0.00     0.149 S 
HETATM   23  O1  UNL     1      22.862  -1.368  55.689  1.00  0.00    -0.227 OA
HETATM   24  O2  UNL     1      21.578  -2.238  53.824  1.00  0.00    -0.227 OA
BRANCH  22  25
HETATM   25  C2  UNL     1      20.925   0.209  54.643  1.00  0.00     0.127 C 
HETATM   26  C1  UNL     1      19.935   0.132  53.726  1.00  0.00     0.023 C 
ENDBRANCH  22  25
ENDBRANCH  21  22
ENDBRANCH  20  21
ENDBRANCH  19  20
ENDBRANCH  18  19
BRANCH  18  27
HETATM   27  C7  UNL     1      27.826   0.598  53.962  1.00  0.00     0.027 C 
HETATM   28  C8  UNL     1      29.073   1.299  53.540  1.00  0.00     0.007 C 
ENDBRANCH  18  27
ENDBRANCH  17  18
ENDBRANCH  16  17
ENDBRANCH   1  16
TORSDOF 9
ENDMDL
MODEL 6
REMARK VINA RESULT:      -6.9      1.745      3.170
REMARK  9 active torsions:
REMARK  status: ('A' for Active; 'I' for Inactive)
REMARK    1  A    between atoms: C2_2  and  S1_3 
REMARK    2  A    between atoms: S1_3  and  C3_6 
REMARK    3  A    between atoms: C3_6  and  C4_7 
REMARK    4  A    between atoms: C4_7  and  C5_8 
REMARK    5  A    between atoms: C5_8  and  C6_9 
REMARK    6  A    between atoms: C6_9  and  C7_10 
REMARK    7  A    between atoms: C6_9  and  O3_12 
REMARK    8  A    between atoms: O3_12  and  C9_13 
REMARK    9  A    between atoms: C9_13  and  C10_14 
ROOT
HETATM    1  C10 UNL     1      23.783   4.074  51.645  1.00  0.00    -0.052 C 
HETATM    2  C11 UNL     1      22.673   4.518  51.194  1.00  0.00     0.007 C 
HETATM    3  C12 UNL     1      22.114   5.599  50.498  1.00  0.00     0.020 C 
HETATM    4  C13 UNL     1      21.082   6.156  49.959  1.00  0.00     0.118 C 
HETATM    5  N1  UNL     1      20.552   4.910  50.466  1.00  0.00    -0.254 NA
HETATM    6  C14 UNL     1      20.160   4.072  49.464  1.00  0.00     0.233 C 
HETATM    7  N2  UNL     1      19.705   3.090  48.496  1.00  0.00    -0.237 NA
HETATM    8  C15 UNL     1      20.570   2.112  48.217  1.00  0.00     0.216 C 
HETATM    9  N3  UNL     1      21.867   1.627  48.542  1.00  0.00    -0.310 N 
HETATM   10  C16 UNL     1      22.645   2.665  48.781  1.00  0.00     0.011 C 
HETATM   11  C17 UNL     1      23.339   3.565  49.003  1.00  0.00    -0.083 C 
HETATM   12  C18 UNL     1      24.184   4.650  49.297  1.00  0.00     0.104 C 
HETATM   13  C19 UNL     1      24.886   4.488  50.664  1.00  0.00     0.024 C 
HETATM   14  C20 UNL     1      25.862   3.352  50.337  1.00  0.00     0.015 C 
HETATM   15  H23 UNL     1      21.564   0.753  48.416  1.00  0.00     0.177 HD
ENDROOT
BRANCH   1  16
HETATM   16  C9  UNL     1      24.542   3.076  52.359  1.00  0.00     0.202 C 
BRANCH  16  17
HETATM   17  O3  UNL     1      24.030   2.036  52.850  1.00  0.00    -0.382 OA
BRANCH  17  18
HETATM   18  C6  UNL     1      23.531   1.000  53.382  1.00  0.00     0.121 C 
BRANCH  18  19
HETATM   19  C5  UNL     1      24.361  -0.248  53.204  1.00  0.00     0.033 C 
BRANCH  19  20
HETATM   20  C4  UNL     1      25.610  -0.259  52.471  1.00  0.00     0.017 C 
BRANCH  20  21
HETATM   21  C3  UNL     1      26.834  -0.861  53.044  1.00  0.00     0.141 C 
BRANCH  21  22
HETATM   22  S1  UNL     1      27.725   0.521  53.807  1.00  0.00     0.149 S 
HETATM   23  O1  UNL     1      26.967   1.021  55.002  1.00  0.00    -0.227 OA
HETATM   24  O2  UNL     1      27.779   1.653  52.806  1.00  0.00    -0.227 OA
BRANCH  22  25
HETATM   25  C2  UNL     1      29.356   0.025  54.203  1.00  0.00     0.127 C 
HETATM   26  C1  UNL     1      29.746  -1.097  53.557  1.00  0.00     0.023 C 
ENDBRANCH  22  25
ENDBRANCH  21  22
ENDBRANCH  20  21
ENDBRANCH  19  20
ENDBRANCH  18  19
BRANCH  18  27
HETATM   27  C7  UNL     1      22.065   0.870  53.121  1.00  0.00     0.027 C 
HETATM   28  C8  UNL     1      21.722   0.202  51.832  1.00  0.00     0.007 C 
ENDBRANCH  18  27
ENDBRANCH  17  18
ENDBRANCH  16  17
ENDBRANCH   1  16
TORSDOF 9
ENDMDL
MODEL 7
REMARK VINA RESULT:      -6.8      3.828      5.686
REMARK  9 active torsions:
REMARK  status: ('A' for Active; 'I' for Inactive)
REMARK    1  A    between atoms: C2_2  and  S1_3 
REMARK    2  A    between atoms: S1_3  and  C3_6 
REMARK    3  A    between atoms: C3_6  and  C4_7 
REMARK    4  A    between atoms: C4_7  and  C5_8 
REMARK    5  A    between atoms: C5_8  and  C6_9 
REMARK    6  A    between atoms: C6_9  and  C7_10 
REMARK    7  A    between atoms: C6_9  and  O3_12 
REMARK    8  A    between atoms: O3_12  and  C9_13 
REMARK    9  A    between atoms: C9_13  and  C10_14 
ROOT
HETATM    1  C10 UNL     1      27.061   6.221  48.635  1.00  0.00    -0.052 C 
HETATM    2  C11 UNL     1      28.290   6.392  48.330  1.00  0.00     0.007 C 
HETATM    3  C12 UNL     1      29.143   6.575  47.233  1.00  0.00     0.020 C 
HETATM    4  C13 UNL     1      30.332   6.789  46.776  1.00  0.00     0.118 C 
HETATM    5  N1  UNL     1      30.531   6.773  48.208  1.00  0.00    -0.254 NA
HETATM    6  C14 UNL     1      30.899   7.995  48.690  1.00  0.00     0.233 C 
HETATM    7  N2  UNL     1      31.296   9.238  49.327  1.00  0.00    -0.237 NA
HETATM    8  C15 UNL     1      30.309   9.930  49.904  1.00  0.00     0.216 C 
HETATM    9  N3  UNL     1      28.910   9.902  50.156  1.00  0.00    -0.310 N 
HETATM   10  C16 UNL     1      28.319   9.328  49.125  1.00  0.00     0.011 C 
HETATM   11  C17 UNL     1      27.786   8.818  48.233  1.00  0.00    -0.083 C 
HETATM   12  C18 UNL     1      27.131   8.180  47.165  1.00  0.00     0.104 C 
HETATM   13  C19 UNL     1      26.216   7.031  47.646  1.00  0.00     0.024 C 
HETATM   14  C20 UNL     1      25.099   7.836  48.321  1.00  0.00     0.015 C 
HETATM   15  H23 UNL     1      29.055  10.338  50.969  1.00  0.00     0.177 HD
ENDROOT
BRANCH   1  16
HETATM   16  C9  UNL     1      26.027   6.000  49.616  1.00  0.00     0.202 C 
BRANCH  16  17
HETATM   17  O3  UNL     1      25.682   4.856  50.013  1.00  0.00    -0.382 OA
BRANCH  17  18
HETATM   18  C6  UNL     1      25.330   3.692  50.371  1.00  0.00     0.121 C 
BRANCH  18  19
HETATM   19  C5  UNL     1      26.473   2.718  50.519  1.00  0.00     0.033 C 
BRANCH  19  20
HETATM   20  C4  UNL     1      27.090   2.422  51.794  1.00  0.00     0.017 C 
BRANCH  20  21
HETATM   21  C3  UNL     1      27.088   1.052  52.352  1.00  0.00     0.141 C 
BRANCH  21  22
HETATM   22  S1  UNL     1      27.708   1.233  54.046  1.00  0.00     0.149 S 
HETATM   23  O1  UNL     1      26.563   1.204  55.015  1.00  0.00    -0.227 OA
HETATM   24  O2  UNL     1      28.361   2.591  54.163  1.00  0.00    -0.227 OA
BRANCH  22  25
HETATM   25  C2  UNL     1      28.899  -0.007  54.373  1.00  0.00     0.127 C 
HETATM   26  C1  UNL     1      29.149  -0.804  53.310  1.00  0.00     0.023 C 
ENDBRANCH  22  25
ENDBRANCH  21  22
ENDBRANCH  20  21
ENDBRANCH  19  20
ENDBRANCH  18  19
BRANCH  18  27
HETATM   27  C7  UNL     1      24.128   3.203  49.629  1.00  0.00     0.027 C 
HETATM   28  C8  UNL     1      23.210   2.345  50.433  1.00  0.00     0.007 C 
ENDBRANCH  18  27
ENDBRANCH  17  18
ENDBRANCH  16  17
ENDBRANCH   1  16
TORSDOF 9
ENDMDL
MODEL 8
REMARK VINA RESULT:      -6.7      2.582      4.758
REMARK  9 active torsions:
REMARK  status: ('A' for Active; 'I' for Inactive)
REMARK    1  A    between atoms: C2_2  and  S1_3 
REMARK    2  A    between atoms: S1_3  and  C3_6 
REMARK    3  A    between atoms: C3_6  and  C4_7 
REMARK    4  A    between atoms: C4_7  and  C5_8 
REMARK    5  A    between atoms: C5_8  and  C6_9 
REMARK    6  A    between atoms: C6_9  and  C7_10 
REMARK    7  A    between atoms: C6_9  and  O3_12 
REMARK    8  A    between atoms: O3_12  and  C9_13 
REMARK    9  A    between atoms: C9_13  and  C10_14 
ROOT
HETATM    1  C10 UNL     1      21.972   3.742  49.412  1.00  0.00    -0.052 C 
HETATM    2  C11 UNL     1      21.137   3.638  50.373  1.00  0.00     0.007 C 
HETATM    3  C12 UNL     1      19.764   3.562  50.643  1.00  0.00     0.020 C 
HETATM    4  C13 UNL     1      18.807   3.425  51.500  1.00  0.00     0.118 C 
HETATM    5  N1  UNL     1      19.995   3.350  52.322  1.00  0.00    -0.254 NA
HETATM    6  C14 UNL     1      20.164   2.113  52.869  1.00  0.00     0.233 C 
HETATM    7  N2  UNL     1      20.457   0.844  53.514  1.00  0.00    -0.237 NA
HETATM    8  C15 UNL     1      21.359   0.079  52.894  1.00  0.00     0.216 C 
HETATM    9  N3  UNL     1      22.213   0.037  51.757  1.00  0.00    -0.310 N 
HETATM   10  C16 UNL     1      21.604   0.657  50.764  1.00  0.00     0.011 C 
HETATM   11  C17 UNL     1      21.088   1.207  49.885  1.00  0.00    -0.083 C 
HETATM   12  C18 UNL     1      20.479   1.892  48.819  1.00  0.00     0.104 C 
HETATM   13  C19 UNL     1      21.407   2.971  48.215  1.00  0.00     0.024 C 
HETATM   14  C20 UNL     1      22.446   2.081  47.523  1.00  0.00     0.015 C 
HETATM   15  H23 UNL     1      22.837  -0.448  52.253  1.00  0.00     0.177 HD
ENDROOT
BRANCH   1  16
HETATM   16  C9  UNL     1      23.327   3.857  48.929  1.00  0.00     0.202 C 
BRANCH  16  17
HETATM   17  O3  UNL     1      24.314   3.324  49.502  1.00  0.00    -0.382 OA
BRANCH  17  18
HETATM   18  C6  UNL     1      25.332   2.817  50.060  1.00  0.00     0.121 C 
BRANCH  18  19
HETATM   19  C5  UNL     1      25.187   2.617  51.549  1.00  0.00     0.033 C 
BRANCH  19  20
HETATM   20  C4  UNL     1      26.270   2.145  52.385  1.00  0.00     0.017 C 
BRANCH  20  21
HETATM   21  C3  UNL     1      26.066   1.861  53.823  1.00  0.00     0.141 C 
BRANCH  21  22
HETATM   22  S1  UNL     1      26.014   0.053  53.942  1.00  0.00     0.149 S 
HETATM   23  O1  UNL     1      24.655  -0.447  53.547  1.00  0.00    -0.227 OA
HETATM   24  O2  UNL     1      26.229  -0.328  55.389  1.00  0.00    -0.227 OA
BRANCH  22  25
HETATM   25  C2  UNL     1      27.293  -0.639  52.969  1.00  0.00     0.127 C 
HETATM   26  C1  UNL     1      27.015  -1.887  52.526  1.00  0.00     0.023 C 
ENDBRANCH  22  25
ENDBRANCH  21  22
ENDBRANCH  20  21
ENDBRANCH  19  20
ENDBRANCH  18  19
BRANCH  18  27
HETATM   27  C7  UNL     1      26.610   3.436  49.591  1.00  0.00     0.027 C 
HETATM   28  C8  UNL     1      26.483   4.851  49.137  1.00  0.00     0.007 C 
ENDBRANCH  18  27
ENDBRANCH  17  18
ENDBRANCH  16  17
ENDBRANCH   1  16
TORSDOF 9
ENDMDL
MODEL 9
REMARK VINA RESULT:      -6.7      7.547     10.685
REMARK  9 active torsions:
REMARK  status: ('A' for Active; 'I' for Inactive)
REMARK    1  A    between atoms: C2_2  and  S1_3 
REMARK    2  A    between atoms: S1_3  and  C3_6 
REMARK    3  A    between atoms: C3_6  and  C4_7 
REMARK    4  A    between atoms: C4_7  and  C5_8 
REMARK    5  A    between atoms: C5_8  and  C6_9 
REMARK    6  A    between atoms: C6_9  and  C7_10 
REMARK    7  A    between atoms: C6_9  and  O3_12 
REMARK    8  A    between atoms: O3_12  and  C9_13 
REMARK    9  A    between atoms: C9_13  and  C10_14 
ROOT
HETATM    1  C10 UNL     1      31.051   6.311  47.502  1.00  0.00    -0.052 C 
HETATM    2  C11 UNL     1      31.768   6.036  46.481  1.00  0.00     0.007 C 
HETATM    3  C12 UNL     1      32.596   6.629  45.517  1.00  0.00     0.020 C 
HETATM    4  C13 UNL     1      33.381   6.501  44.500  1.00  0.00     0.118 C 
HETATM    5  N1  UNL     1      33.003   5.137  44.793  1.00  0.00    -0.254 NA
HETATM    6  C14 UNL     1      34.058   4.393  45.231  1.00  0.00     0.233 C 
HETATM    7  N2  UNL     1      35.096   3.494  45.707  1.00  0.00    -0.237 NA
HETATM    8  C15 UNL     1      35.138   3.313  47.029  1.00  0.00     0.216 C 
HETATM    9  N3  UNL     1      34.496   3.690  48.241  1.00  0.00    -0.310 N 
HETATM   10  C16 UNL     1      34.087   4.938  48.117  1.00  0.00     0.011 C 
HETATM   11  C17 UNL     1      33.713   6.030  48.021  1.00  0.00    -0.083 C 
HETATM   12  C18 UNL     1      33.235   7.347  47.905  1.00  0.00     0.104 C 
HETATM   13  C19 UNL     1      31.735   7.455  48.260  1.00  0.00     0.024 C 
HETATM   14  C20 UNL     1      31.795   7.226  49.775  1.00  0.00     0.015 C 
HETATM   15  H23 UNL     1      34.680   2.846  48.593  1.00  0.00     0.177 HD
ENDROOT
BRANCH   1  16
HETATM   16  C9  UNL     1      30.157   5.904  48.559  1.00  0.00     0.202 C 
BRANCH  16  17
HETATM   17  O3  UNL     1      28.922   5.729  48.391  1.00  0.00    -0.382 OA
BRANCH  17  18
HETATM   18  C6  UNL     1      27.672   5.561  48.265  1.00  0.00     0.121 C 
BRANCH  18  19
HETATM   19  C5  UNL     1      26.876   6.842  48.222  1.00  0.00     0.033 C 
BRANCH  19  20
HETATM   20  C4  UNL     1      27.333   8.025  47.525  1.00  0.00     0.017 C 
BRANCH  20  21
HETATM   21  C3  UNL     1      26.610   9.311  47.634  1.00  0.00     0.141 C 
BRANCH  21  22
HETATM   22  S1  UNL     1      27.281  10.103  49.120  1.00  0.00     0.149 S 
HETATM   23  O1  UNL     1      26.482   9.694  50.322  1.00  0.00    -0.227 OA
HETATM   24  O2  UNL     1      27.125  11.599  48.965  1.00  0.00    -0.227 OA
BRANCH  22  25
HETATM   25  C2  UNL     1      28.980   9.716  49.278  1.00  0.00     0.127 C 
HETATM   26  C1  UNL     1      29.794  10.635  48.711  1.00  0.00     0.023 C 
ENDBRANCH  22  25
ENDBRANCH  21  22
ENDBRANCH  20  21
ENDBRANCH  19  20
ENDBRANCH  18  19
BRANCH  18  27
HETATM   27  C7  UNL     1      27.147   4.477  49.151  1.00  0.00     0.027 C 
HETATM   28  C8  UNL     1      25.703   4.607  49.499  1.00  0.00     0.007 C 
ENDBRANCH  18  27
ENDBRANCH  17  18
ENDBRANCH  16  17
ENDBRANCH   1  16
TORSDOF 9
ENDMDL
