MODEL 1
REMARK VINA RESULT:      -8.1      0.000      0.000
REMARK  1 active torsions:
REMARK  status: ('A' for Active; 'I' for Inactive)
REMARK    1  A    between atoms: O1_1  and  C1_2 
ROOT
HETATM    1  C1  UNL     1      23.775   4.686  52.435  1.00  0.00     0.145 C 
HETATM    2  C2  UNL     1      22.404   5.009  51.980  1.00  0.00     0.030 C 
HETATM    3  C3  UNL     1      21.191   4.782  51.518  1.00  0.00     0.004 C 
HETATM    4  C4  UNL     1      20.208   3.741  51.045  1.00  0.00     0.022 C 
HETATM    5  C5  UNL     1      19.616   2.564  50.703  1.00  0.00     0.111 C 
HETATM    6  N1  UNL     1      19.788   1.120  50.613  1.00  0.00    -0.367 N 
HETATM    7  C6  UNL     1      19.742   0.232  51.761  1.00  0.00     0.138 A 
HETATM    8  N2  UNL     1      18.455  -0.206  51.870  1.00  0.00    -0.224 NA
HETATM    9  C7  UNL     1      18.169  -1.027  52.940  1.00  0.00     0.235 A 
HETATM   10  N3  UNL     1      19.144  -1.372  53.832  1.00  0.00    -0.241 NA
HETATM   11  C8  UNL     1      20.400  -0.922  53.690  1.00  0.00     0.072 A 
HETATM   12  C9  UNL     1      21.414  -1.242  54.560  1.00  0.00     0.033 A 
HETATM   13  C10 UNL     1      22.713  -0.805  54.447  1.00  0.00     0.010 A 
HETATM   14  C11 UNL     1      23.045   0.025  53.378  1.00  0.00    -0.054 A 
HETATM   15  C12 UNL     1      22.015   0.350  52.495  1.00  0.00     0.025 A 
HETATM   16  C13 UNL     1      20.732  -0.110  52.649  1.00  0.00     0.039 A 
HETATM   17  C14 UNL     1      24.396   0.602  53.083  1.00  0.00     0.065 C 
HETATM   18  C15 UNL     1      24.368   2.049  52.814  1.00  0.00    -0.024 C 
HETATM   19  C16 UNL     1      23.792   3.233  52.707  1.00  0.00     0.001 C 
HETATM   20  H7  UNL     1      19.948   0.646  49.707  1.00  0.00     0.161 HD
ENDROOT
BRANCH   1  21
HETATM   21  O1  UNL     1      23.957   5.427  53.626  1.00  0.00    -0.391 OA
HETATM   22  H1  UNL     1      23.723   4.906  54.423  1.00  0.00     0.210 HD
ENDBRANCH   1  21
TORSDOF 1
ENDMDL
MODEL 2
REMARK VINA RESULT:      -8.0      2.181      3.398
REMARK  1 active torsions:
REMARK  status: ('A' for Active; 'I' for Inactive)
REMARK    1  A    between atoms: O1_1  and  C1_2 
ROOT
HETATM    1  C1  UNL     1      23.682   5.226  51.188  1.00  0.00     0.145 C 
HETATM    2  C2  UNL     1      22.367   4.900  51.787  1.00  0.00     0.030 C 
HETATM    3  C3  UNL     1      21.408   4.139  52.275  1.00  0.00     0.004 C 
HETATM    4  C4  UNL     1      20.973   2.733  52.603  1.00  0.00     0.022 C 
HETATM    5  C5  UNL     1      20.933   1.382  52.762  1.00  0.00     0.111 C 
HETATM    6  N1  UNL     1      21.667   0.135  52.587  1.00  0.00    -0.367 N 
HETATM    7  C6  UNL     1      22.740  -0.296  53.464  1.00  0.00     0.138 A 
HETATM    8  N2  UNL     1      22.174  -1.085  54.423  1.00  0.00    -0.224 NA
HETATM    9  C7  UNL     1      23.014  -1.563  55.406  1.00  0.00     0.235 A 
HETATM   10  N3  UNL     1      24.344  -1.250  55.398  1.00  0.00    -0.241 NA
HETATM   11  C8  UNL     1      24.864  -0.473  54.437  1.00  0.00     0.072 A 
HETATM   12  C9  UNL     1      26.194  -0.131  54.385  1.00  0.00     0.033 A 
HETATM   13  C10 UNL     1      26.766   0.659  53.416  1.00  0.00     0.010 A 
HETATM   14  C11 UNL     1      25.951   1.161  52.402  1.00  0.00    -0.054 A 
HETATM   15  C12 UNL     1      24.601   0.815  52.454  1.00  0.00     0.025 A 
HETATM   16  C13 UNL     1      24.075   0.023  53.444  1.00  0.00     0.039 A 
HETATM   17  C14 UNL     1      26.382   2.034  51.263  1.00  0.00     0.065 C 
HETATM   18  C15 UNL     1      25.526   3.218  51.078  1.00  0.00    -0.024 C 
HETATM   19  C16 UNL     1      24.535   4.034  51.384  1.00  0.00     0.001 C 
HETATM   20  H7  UNL     1      21.449  -0.521  51.817  1.00  0.00     0.161 HD
ENDROOT
BRANCH   1  21
HETATM   21  O1  UNL     1      24.167   6.326  51.933  1.00  0.00    -0.391 OA
HETATM   22  H1  UNL     1      23.793   7.176  51.621  1.00  0.00     0.210 HD
ENDBRANCH   1  21
TORSDOF 1
ENDMDL
MODEL 3
REMARK VINA RESULT:      -7.7      3.656      5.151
REMARK  1 active torsions:
REMARK  status: ('A' for Active; 'I' for Inactive)
REMARK    1  A    between atoms: O1_1  and  C1_2 
ROOT
HETATM    1  C1  UNL     1      20.987   2.675  49.175  1.00  0.00     0.145 C 
HETATM    2  C2  UNL     1      22.377   2.935  48.735  1.00  0.00     0.030 C 
HETATM    3  C3  UNL     1      23.677   3.112  48.854  1.00  0.00     0.004 C 
HETATM    4  C4  UNL     1      24.850   3.165  49.801  1.00  0.00     0.022 C 
HETATM    5  C5  UNL     1      25.631   3.133  50.915  1.00  0.00     0.111 C 
HETATM    6  N1  UNL     1      25.648   2.939  52.359  1.00  0.00    -0.367 N 
HETATM    7  C6  UNL     1      25.556   1.637  52.996  1.00  0.00     0.138 A 
HETATM    8  N2  UNL     1      26.835   1.207  53.201  1.00  0.00    -0.224 NA
HETATM    9  C7  UNL     1      26.985  -0.048  53.750  1.00  0.00     0.235 A 
HETATM   10  N3  UNL     1      25.892  -0.805  54.067  1.00  0.00    -0.241 NA
HETATM   11  C8  UNL     1      24.650  -0.346  53.853  1.00  0.00     0.072 A 
HETATM   12  C9  UNL     1      23.520  -1.067  54.156  1.00  0.00     0.033 A 
HETATM   13  C10 UNL     1      22.232  -0.632  53.955  1.00  0.00     0.010 A 
HETATM   14  C11 UNL     1      22.037   0.634  53.404  1.00  0.00    -0.054 A 
HETATM   15  C12 UNL     1      23.183   1.366  53.095  1.00  0.00     0.025 A 
HETATM   16  C13 UNL     1      24.450   0.888  53.313  1.00  0.00     0.039 A 
HETATM   17  C14 UNL     1      20.719   1.284  53.109  1.00  0.00     0.065 C 
HETATM   18  C15 UNL     1      20.636   1.848  51.752  1.00  0.00    -0.024 C 
HETATM   19  C16 UNL     1      21.081   2.103  50.536  1.00  0.00     0.001 C 
HETATM   20  H7  UNL     1      25.735   3.735  53.014  1.00  0.00     0.161 HD
ENDROOT
BRANCH   1  21
HETATM   21  O1  UNL     1      20.478   1.724  48.260  1.00  0.00    -0.391 OA
HETATM   22  H1  UNL     1      19.942   2.142  47.554  1.00  0.00     0.210 HD
ENDBRANCH   1  21
TORSDOF 1
ENDMDL
MODEL 4
REMARK VINA RESULT:      -7.7      3.335      5.694
REMARK  1 active torsions:
REMARK  status: ('A' for Active; 'I' for Inactive)
REMARK    1  A    between atoms: O1_1  and  C1_2 
ROOT
HETATM    1  C1  UNL     1      25.634  -0.828  54.026  1.00  0.00     0.145 C 
HETATM    2  C2  UNL     1      26.609   0.200  53.596  1.00  0.00     0.030 C 
HETATM    3  C3  UNL     1      27.079   1.215  52.899  1.00  0.00     0.004 C 
HETATM    4  C4  UNL     1      26.800   2.216  51.805  1.00  0.00     0.022 C 
HETATM    5  C5  UNL     1      26.208   2.934  50.813  1.00  0.00     0.111 C 
HETATM    6  N1  UNL     1      25.001   3.101  50.013  1.00  0.00    -0.367 N 
HETATM    7  C6  UNL     1      23.790   3.731  50.508  1.00  0.00     0.138 A 
HETATM    8  N2  UNL     1      23.865   5.051  50.169  1.00  0.00    -0.224 NA
HETATM    9  C7  UNL     1      22.833   5.859  50.595  1.00  0.00     0.235 A 
HETATM   10  N3  UNL     1      21.797   5.340  51.319  1.00  0.00    -0.241 NA
HETATM   11  C8  UNL     1      21.757   4.037  51.631  1.00  0.00     0.072 A 
HETATM   12  C9  UNL     1      20.737   3.468  52.355  1.00  0.00     0.033 A 
HETATM   13  C10 UNL     1      20.658   2.138  52.693  1.00  0.00     0.010 A 
HETATM   14  C11 UNL     1      21.681   1.286  52.278  1.00  0.00    -0.054 A 
HETATM   15  C12 UNL     1      22.717   1.862  51.544  1.00  0.00     0.025 A 
HETATM   16  C13 UNL     1      22.753   3.198  51.232  1.00  0.00     0.039 A 
HETATM   17  C14 UNL     1      21.777  -0.186  52.544  1.00  0.00     0.065 C 
HETATM   18  C15 UNL     1      23.089  -0.601  53.067  1.00  0.00    -0.024 C 
HETATM   19  C16 UNL     1      24.319  -0.399  53.502  1.00  0.00     0.001 C 
HETATM   20  H7  UNL     1      24.949   2.778  49.032  1.00  0.00     0.161 HD
ENDROOT
BRANCH   1  21
HETATM   21  O1  UNL     1      25.652  -0.790  55.440  1.00  0.00    -0.391 OA
HETATM   22  H1  UNL     1      24.878  -0.312  55.806  1.00  0.00     0.210 HD
ENDBRANCH   1  21
TORSDOF 1
ENDMDL
MODEL 5
REMARK VINA RESULT:      -7.3      3.327      5.519
REMARK  1 active torsions:
REMARK  status: ('A' for Active; 'I' for Inactive)
REMARK    1  A    between atoms: O1_1  and  C1_2 
ROOT
HETATM    1  C1  UNL     1      19.981  -0.176  53.614  1.00  0.00     0.145 C 
HETATM    2  C2  UNL     1      19.753   1.018  52.769  1.00  0.00     0.030 C 
HETATM    3  C3  UNL     1      20.035   2.161  52.178  1.00  0.00     0.004 C 
HETATM    4  C4  UNL     1      21.076   3.231  51.957  1.00  0.00     0.022 C 
HETATM    5  C5  UNL     1      22.222   3.963  51.987  1.00  0.00     0.111 C 
HETATM    6  N1  UNL     1      23.581   4.037  52.509  1.00  0.00    -0.367 N 
HETATM    7  C6  UNL     1      24.686   3.255  51.986  1.00  0.00     0.138 A 
HETATM    8  N2  UNL     1      25.302   4.023  51.041  1.00  0.00    -0.224 NA
HETATM    9  C7  UNL     1      26.357   3.446  50.367  1.00  0.00     0.235 A 
HETATM   10  N3  UNL     1      26.750   2.169  50.650  1.00  0.00    -0.241 NA
HETATM   11  C8  UNL     1      26.121   1.446  51.588  1.00  0.00     0.072 A 
HETATM   12  C9  UNL     1      26.478   0.158  51.909  1.00  0.00     0.033 A 
HETATM   13  C10 UNL     1      25.862  -0.614  52.864  1.00  0.00     0.010 A 
HETATM   14  C11 UNL     1      24.791  -0.068  53.571  1.00  0.00    -0.054 A 
HETATM   15  C12 UNL     1      24.427   1.239  53.245  1.00  0.00     0.025 A 
HETATM   16  C13 UNL     1      25.073   1.971  52.281  1.00  0.00     0.039 A 
HETATM   17  C14 UNL     1      23.994  -0.744  54.645  1.00  0.00     0.065 C 
HETATM   18  C15 UNL     1      22.539  -0.635  54.449  1.00  0.00    -0.024 C 
HETATM   19  C16 UNL     1      21.445  -0.281  53.800  1.00  0.00     0.001 C 
HETATM   20  H7  UNL     1      23.831   4.670  53.288  1.00  0.00     0.161 HD
ENDROOT
BRANCH   1  21
HETATM   21  O1  UNL     1      19.487  -1.266  52.860  1.00  0.00    -0.391 OA
HETATM   22  H1  UNL     1      19.149  -1.987  53.432  1.00  0.00     0.210 HD
ENDBRANCH   1  21
TORSDOF 1
ENDMDL
MODEL 6
REMARK VINA RESULT:      -7.1      4.189      7.067
REMARK  1 active torsions:
REMARK  status: ('A' for Active; 'I' for Inactive)
REMARK    1  A    between atoms: O1_1  and  C1_2 
ROOT
HETATM    1  C1  UNL     1      22.534   0.124  52.798  1.00  0.00     0.145 C 
HETATM    2  C2  UNL     1      23.830   0.643  53.291  1.00  0.00     0.030 C 
HETATM    3  C3  UNL     1      25.001   1.244  53.232  1.00  0.00     0.004 C 
HETATM    4  C4  UNL     1      25.990   1.972  52.355  1.00  0.00     0.022 C 
HETATM    5  C5  UNL     1      26.606   2.568  51.299  1.00  0.00     0.111 C 
HETATM    6  N1  UNL     1      26.498   2.906  49.885  1.00  0.00    -0.367 N 
HETATM    7  C6  UNL     1      25.680   3.994  49.380  1.00  0.00     0.138 A 
HETATM    8  N2  UNL     1      26.489   5.090  49.296  1.00  0.00    -0.224 NA
HETATM    9  C7  UNL     1      25.897   6.265  48.887  1.00  0.00     0.235 A 
HETATM   10  N3  UNL     1      24.565   6.306  48.584  1.00  0.00    -0.241 NA
HETATM   11  C8  UNL     1      23.803   5.206  48.676  1.00  0.00     0.072 A 
HETATM   12  C9  UNL     1      22.461   5.196  48.381  1.00  0.00     0.033 A 
HETATM   13  C10 UNL     1      21.647   4.091  48.460  1.00  0.00     0.010 A 
HETATM   14  C11 UNL     1      22.207   2.881  48.868  1.00  0.00    -0.054 A 
HETATM   15  C12 UNL     1      23.570   2.891  49.168  1.00  0.00     0.025 A 
HETATM   16  C13 UNL     1      24.342   4.021  49.075  1.00  0.00     0.039 A 
HETATM   17  C14 UNL     1      21.492   1.572  49.016  1.00  0.00     0.065 C 
HETATM   18  C15 UNL     1      21.755   0.904  50.301  1.00  0.00    -0.024 C 
HETATM   19  C16 UNL     1      22.276   0.804  51.510  1.00  0.00     0.001 C 
HETATM   20  H7  UNL     1      27.015   2.381  49.159  1.00  0.00     0.161 HD
ENDROOT
BRANCH   1  21
HETATM   21  O1  UNL     1      21.584   0.508  53.773  1.00  0.00    -0.391 OA
HETATM   22  H1  UNL     1      20.697   0.134  53.590  1.00  0.00     0.210 HD
ENDBRANCH   1  21
TORSDOF 1
ENDMDL
MODEL 7
REMARK VINA RESULT:      -7.1      2.363      2.690
REMARK  1 active torsions:
REMARK  status: ('A' for Active; 'I' for Inactive)
REMARK    1  A    between atoms: O1_1  and  C1_2 
ROOT
HETATM    1  C1  UNL     1      25.502   4.815  49.713  1.00  0.00     0.145 C 
HETATM    2  C2  UNL     1      24.319   5.132  48.879  1.00  0.00     0.030 C 
HETATM    3  C3  UNL     1      23.165   4.927  48.277  1.00  0.00     0.004 C 
HETATM    4  C4  UNL     1      22.048   3.948  48.017  1.00  0.00     0.022 C 
HETATM    5  C5  UNL     1      21.257   2.841  48.011  1.00  0.00     0.111 C 
HETATM    6  N1  UNL     1      21.105   1.477  48.502  1.00  0.00    -0.367 N 
HETATM    7  C6  UNL     1      20.694   1.151  49.855  1.00  0.00     0.138 A 
HETATM    8  N2  UNL     1      19.338   0.999  49.830  1.00  0.00    -0.224 NA
HETATM    9  C7  UNL     1      18.723   0.738  51.036  1.00  0.00     0.235 A 
HETATM   10  N3  UNL     1      19.455   0.640  52.185  1.00  0.00    -0.241 NA
HETATM   11  C8  UNL     1      20.787   0.793  52.168  1.00  0.00     0.072 A 
HETATM   12  C9  UNL     1      21.568   0.702  53.296  1.00  0.00     0.033 A 
HETATM   13  C10 UNL     1      22.934   0.850  53.321  1.00  0.00     0.010 A 
HETATM   14  C11 UNL     1      23.596   1.112  52.122  1.00  0.00    -0.054 A 
HETATM   15  C12 UNL     1      22.805   1.205  50.977  1.00  0.00     0.025 A 
HETATM   16  C13 UNL     1      21.442   1.051  51.002  1.00  0.00     0.039 A 
HETATM   17  C14 UNL     1      25.071   1.303  51.942  1.00  0.00     0.065 C 
HETATM   18  C15 UNL     1      25.414   2.502  51.159  1.00  0.00    -0.024 C 
HETATM   19  C16 UNL     1      25.146   3.613  50.499  1.00  0.00     0.001 C 
HETATM   20  H7  UNL     1      21.280   0.658  47.894  1.00  0.00     0.161 HD
ENDROOT
BRANCH   1  21
HETATM   21  O1  UNL     1      25.676   5.938  50.554  1.00  0.00    -0.391 OA
HETATM   22  H1  UNL     1      25.947   6.735  50.053  1.00  0.00     0.210 HD
ENDBRANCH   1  21
TORSDOF 1
ENDMDL
MODEL 8
REMARK VINA RESULT:      -7.0      5.839      8.445
REMARK  1 active torsions:
REMARK  status: ('A' for Active; 'I' for Inactive)
REMARK    1  A    between atoms: O1_1  and  C1_2 
ROOT
HETATM    1  C1  UNL     1      22.103   2.985  48.941  1.00  0.00     0.145 C 
HETATM    2  C2  UNL     1      21.418   4.293  49.049  1.00  0.00     0.030 C 
HETATM    3  C3  UNL     1      21.268   5.566  49.354  1.00  0.00     0.004 C 
HETATM    4  C4  UNL     1      21.912   6.792  49.952  1.00  0.00     0.022 C 
HETATM    5  C5  UNL     1      22.791   7.654  50.530  1.00  0.00     0.111 C 
HETATM    6  N1  UNL     1      24.134   7.807  51.076  1.00  0.00    -0.367 N 
HETATM    7  C6  UNL     1      25.325   7.929  50.255  1.00  0.00     0.138 A 
HETATM    8  N2  UNL     1      25.545   9.264  50.075  1.00  0.00    -0.224 NA
HETATM    9  C7  UNL     1      26.608   9.612  49.269  1.00  0.00     0.235 A 
HETATM   10  N3  UNL     1      27.388   8.651  48.691  1.00  0.00    -0.241 NA
HETATM   11  C8  UNL     1      27.141   7.349  48.894  1.00  0.00     0.072 A 
HETATM   12  C9  UNL     1      27.898   6.345  48.337  1.00  0.00     0.033 A 
HETATM   13  C10 UNL     1      27.679   5.001  48.522  1.00  0.00     0.010 A 
HETATM   14  C11 UNL     1      26.616   4.606  49.333  1.00  0.00    -0.054 A 
HETATM   15  C12 UNL     1      25.848   5.624  49.899  1.00  0.00     0.025 A 
HETATM   16  C13 UNL     1      26.104   6.954  49.683  1.00  0.00     0.039 A 
HETATM   17  C14 UNL     1      26.218   3.198  49.657  1.00  0.00     0.065 C 
HETATM   18  C15 UNL     1      24.780   2.940  49.471  1.00  0.00    -0.024 C 
HETATM   19  C16 UNL     1      23.546   3.255  49.123  1.00  0.00     0.001 C 
HETATM   20  H7  UNL     1      24.306   7.843  52.095  1.00  0.00     0.161 HD
ENDROOT
BRANCH   1  21
HETATM   21  O1  UNL     1      21.835   2.531  47.628  1.00  0.00    -0.391 OA
HETATM   22  H1  UNL     1      21.311   3.180  47.114  1.00  0.00     0.210 HD
ENDBRANCH   1  21
TORSDOF 1
ENDMDL
MODEL 9
REMARK VINA RESULT:      -6.9      3.150      5.154
REMARK  1 active torsions:
REMARK  status: ('A' for Active; 'I' for Inactive)
REMARK    1  A    between atoms: O1_1  and  C1_2 
ROOT
HETATM    1  C1  UNL     1      17.128   0.467  50.343  1.00  0.00     0.145 C 
HETATM    2  C2  UNL     1      17.668   1.675  49.678  1.00  0.00     0.030 C 
HETATM    3  C3  UNL     1      18.431   2.738  49.521  1.00  0.00     0.004 C 
HETATM    4  C4  UNL     1      19.525   3.590  50.113  1.00  0.00     0.022 C 
HETATM    5  C5  UNL     1      20.493   4.092  50.928  1.00  0.00     0.111 C 
HETATM    6  N1  UNL     1      21.212   3.913  52.183  1.00  0.00    -0.367 N 
HETATM    7  C6  UNL     1      22.263   2.931  52.373  1.00  0.00     0.138 A 
HETATM    8  N2  UNL     1      23.444   3.559  52.105  1.00  0.00    -0.224 NA
HETATM    9  C7  UNL     1      24.585   2.787  52.170  1.00  0.00     0.235 A 
HETATM   10  N3  UNL     1      24.511   1.462  52.491  1.00  0.00    -0.241 NA
HETATM   11  C8  UNL     1      23.330   0.880  52.750  1.00  0.00     0.072 A 
HETATM   12  C9  UNL     1      23.204  -0.449  53.077  1.00  0.00     0.033 A 
HETATM   13  C10 UNL     1      22.015  -1.082  53.352  1.00  0.00     0.010 A 
HETATM   14  C11 UNL     1      20.838  -0.336  53.300  1.00  0.00    -0.054 A 
HETATM   15  C12 UNL     1      20.965   1.012  52.967  1.00  0.00     0.025 A 
HETATM   16  C13 UNL     1      22.176   1.600  52.699  1.00  0.00     0.039 A 
HETATM   17  C14 UNL     1      19.452  -0.839  53.565  1.00  0.00     0.065 C 
HETATM   18  C15 UNL     1      18.483  -0.459  52.524  1.00  0.00    -0.024 C 
HETATM   19  C16 UNL     1      18.111   0.089  51.382  1.00  0.00     0.001 C 
HETATM   20  H7  UNL     1      21.008   4.494  53.014  1.00  0.00     0.161 HD
ENDROOT
BRANCH   1  21
HETATM   21  O1  UNL     1      17.060  -0.517  49.329  1.00  0.00    -0.391 OA
HETATM   22  H1  UNL     1      17.373  -0.178  48.465  1.00  0.00     0.210 HD
ENDBRANCH   1  21
TORSDOF 1
ENDMDL
