MODEL 1
REMARK VINA RESULT:      -7.4      0.000      0.000
REMARK  0 active torsions:
REMARK  status: ('A' for Active; 'I' for Inactive)
ROOT
HETATM    1  C1  UNL     1      23.791   4.248  53.065  1.00  0.00     0.052 C 
HETATM    2  C2  UNL     1      22.634   4.126  52.163  1.00  0.00    -0.022 A 
HETATM    3  C3  UNL     1      21.658   3.178  52.255  1.00  0.00    -0.044 A 
HETATM    4  C4  UNL     1      20.417   2.858  51.793  1.00  0.00     0.008 A 
HETATM    5  C5  UNL     1      20.049   3.884  50.904  1.00  0.00     0.003 A 
HETATM    6  C6  UNL     1      20.890   4.943  50.638  1.00  0.00     0.037 A 
HETATM    7  C7  UNL     1      22.144   5.025  51.260  1.00  0.00     0.075 A 
HETATM    8  O1  UNL     1      23.073   6.058  50.973  1.00  0.00    -0.350 OA
HETATM    9  C8  UNL     1      24.397   5.657  50.605  1.00  0.00     0.182 C 
HETATM   10  C9  UNL     1      24.578   4.693  49.492  1.00  0.00     0.037 C 
HETATM   11  C10 UNL     1      23.404   4.588  48.595  1.00  0.00     0.037 C 
HETATM   12  C11 UNL     1      22.785   3.232  48.594  1.00  0.00    -0.009 C 
HETATM   13  C12 UNL     1      22.831   2.358  49.606  1.00  0.00     0.087 C 
HETATM   14  N1  UNL     1      23.941   2.578  50.516  1.00  0.00    -0.355 N 
HETATM   15  C13 UNL     1      23.640   1.887  51.770  1.00  0.00     0.016 C 
HETATM   16  C14 UNL     1      24.568   0.995  52.170  1.00  0.00     0.025 C 
HETATM   17  C15 UNL     1      26.034   0.990  51.918  1.00  0.00    -0.002 C 
HETATM   18  C16 UNL     1      26.596   1.893  51.125  1.00  0.00    -0.025 C 
HETATM   19  C17 UNL     1      26.337   3.270  50.630  1.00  0.00     0.053 C 
HETATM   20  C18 UNL     1      25.016   3.341  49.944  1.00  0.00     0.099 C 
HETATM   21  C19 UNL     1      22.443   1.997  52.741  1.00  0.00     0.096 C 
ENDROOT
TORSDOF 0
ENDMDL
MODEL 2
REMARK VINA RESULT:      -7.3      1.653      3.627
REMARK  0 active torsions:
REMARK  status: ('A' for Active; 'I' for Inactive)
ROOT
HETATM    1  C1  UNL     1      22.636   4.171  52.537  1.00  0.00     0.052 C 
HETATM    2  C2  UNL     1      22.179   2.775  52.431  1.00  0.00    -0.022 A 
HETATM    3  C3  UNL     1      22.980   1.675  52.504  1.00  0.00    -0.044 A 
HETATM    4  C4  UNL     1      22.943   0.320  52.646  1.00  0.00     0.008 A 
HETATM    5  C5  UNL     1      21.583  -0.031  52.736  1.00  0.00     0.003 A 
HETATM    6  C6  UNL     1      20.587   0.919  52.666  1.00  0.00     0.037 A 
HETATM    7  C7  UNL     1      20.911   2.274  52.509  1.00  0.00     0.075 A 
HETATM    8  O1  UNL     1      19.925   3.283  52.366  1.00  0.00    -0.350 OA
HETATM    9  C8  UNL     1      20.045   4.155  51.237  1.00  0.00     0.182 C 
HETATM   10  C9  UNL     1      20.155   3.569  49.880  1.00  0.00     0.037 C 
HETATM   11  C10 UNL     1      19.687   2.166  49.793  1.00  0.00     0.037 C 
HETATM   12  C11 UNL     1      20.764   1.208  49.414  1.00  0.00    -0.009 C 
HETATM   13  C12 UNL     1      22.071   1.379  49.649  1.00  0.00     0.087 C 
HETATM   14  N1  UNL     1      22.453   2.767  49.835  1.00  0.00    -0.355 N 
HETATM   15  C13 UNL     1      23.753   2.790  50.507  1.00  0.00     0.016 C 
HETATM   16  C14 UNL     1      24.719   3.472  49.862  1.00  0.00     0.025 C 
HETATM   17  C15 UNL     1      24.594   4.636  48.944  1.00  0.00    -0.002 C 
HETATM   18  C16 UNL     1      23.404   5.087  48.569  1.00  0.00    -0.025 C 
HETATM   19  C17 UNL     1      22.001   5.096  49.057  1.00  0.00     0.053 C 
HETATM   20  C18 UNL     1      21.515   3.705  49.283  1.00  0.00     0.099 C 
HETATM   21  C19 UNL     1      24.229   2.178  51.843  1.00  0.00     0.096 C 
ENDROOT
TORSDOF 0
ENDMDL
MODEL 3
REMARK VINA RESULT:      -7.2      1.116      2.074
REMARK  0 active torsions:
REMARK  status: ('A' for Active; 'I' for Inactive)
ROOT
HETATM    1  C1  UNL     1      23.554   4.539  52.647  1.00  0.00     0.052 C 
HETATM    2  C2  UNL     1      22.520   3.536  52.339  1.00  0.00    -0.022 A 
HETATM    3  C3  UNL     1      22.566   2.221  52.697  1.00  0.00    -0.044 A 
HETATM    4  C4  UNL     1      21.798   1.099  52.784  1.00  0.00     0.008 A 
HETATM    5  C5  UNL     1      20.517   1.459  52.326  1.00  0.00     0.003 A 
HETATM    6  C6  UNL     1      20.240   2.737  51.892  1.00  0.00     0.037 A 
HETATM    7  C7  UNL     1      21.240   3.721  51.903  1.00  0.00     0.075 A 
HETATM    8  O1  UNL     1      21.026   5.033  51.407  1.00  0.00    -0.350 OA
HETATM    9  C8  UNL     1      21.957   5.520  50.435  1.00  0.00     0.182 C 
HETATM   10  C9  UNL     1      22.217   4.715  49.217  1.00  0.00     0.037 C 
HETATM   11  C10 UNL     1      21.164   3.715  48.924  1.00  0.00     0.037 C 
HETATM   12  C11 UNL     1      21.657   2.309  48.976  1.00  0.00    -0.009 C 
HETATM   13  C12 UNL     1      22.691   1.877  49.708  1.00  0.00     0.087 C 
HETATM   14  N1  UNL     1      23.634   2.924  50.059  1.00  0.00    -0.355 N 
HETATM   15  C13 UNL     1      24.437   2.449  51.187  1.00  0.00     0.016 C 
HETATM   16  C14 UNL     1      25.769   2.459  50.988  1.00  0.00     0.025 C 
HETATM   17  C15 UNL     1      26.581   3.352  50.119  1.00  0.00    -0.002 C 
HETATM   18  C16 UNL     1      26.003   4.238  49.317  1.00  0.00    -0.025 C 
HETATM   19  C17 UNL     1      24.734   5.001  49.217  1.00  0.00     0.053 C 
HETATM   20  C18 UNL     1      23.565   4.076  49.204  1.00  0.00     0.099 C 
HETATM   21  C19 UNL     1      24.035   1.939  52.590  1.00  0.00     0.096 C 
ENDROOT
TORSDOF 0
ENDMDL
MODEL 4
REMARK VINA RESULT:      -7.0      1.351      4.078
REMARK  0 active torsions:
REMARK  status: ('A' for Active; 'I' for Inactive)
ROOT
HETATM    1  C1  UNL     1      22.421   1.758  49.438  1.00  0.00     0.052 C 
HETATM    2  C2  UNL     1      23.264   2.955  49.596  1.00  0.00    -0.022 A 
HETATM    3  C3  UNL     1      24.542   2.963  50.070  1.00  0.00    -0.044 A 
HETATM    4  C4  UNL     1      25.649   3.750  50.178  1.00  0.00     0.008 A 
HETATM    5  C5  UNL     1      25.315   4.984  49.589  1.00  0.00     0.003 A 
HETATM    6  C6  UNL     1      24.065   5.214  49.057  1.00  0.00     0.037 A 
HETATM    7  C7  UNL     1      23.088   4.208  49.085  1.00  0.00     0.075 A 
HETATM    8  O1  UNL     1      21.767   4.414  48.610  1.00  0.00    -0.350 OA
HETATM    9  C8  UNL     1      20.697   4.088  49.504  1.00  0.00     0.182 C 
HETATM   10  C9  UNL     1      20.685   4.679  50.864  1.00  0.00     0.037 C 
HETATM   11  C10 UNL     1      21.536   5.884  51.000  1.00  0.00     0.037 C 
HETATM   12  C11 UNL     1      22.656   5.705  51.967  1.00  0.00    -0.009 C 
HETATM   13  C12 UNL     1      23.234   4.539  52.277  1.00  0.00     0.087 C 
HETATM   14  N1  UNL     1      22.392   3.385  52.018  1.00  0.00    -0.355 N 
HETATM   15  C13 UNL     1      23.252   2.202  51.965  1.00  0.00     0.016 C 
HETATM   16  C14 UNL     1      22.923   1.214  52.819  1.00  0.00     0.025 C 
HETATM   17  C15 UNL     1      21.588   0.855  53.368  1.00  0.00    -0.002 C 
HETATM   18  C16 UNL     1      20.520   1.602  53.117  1.00  0.00    -0.025 C 
HETATM   19  C17 UNL     1      20.037   2.560  52.091  1.00  0.00     0.053 C 
HETATM   20  C18 UNL     1      20.992   3.695  51.941  1.00  0.00     0.099 C 
HETATM   21  C19 UNL     1      24.482   1.866  51.091  1.00  0.00     0.096 C 
ENDROOT
TORSDOF 0
ENDMDL
MODEL 5
REMARK VINA RESULT:      -6.9      8.456     10.241
REMARK  0 active torsions:
REMARK  status: ('A' for Active; 'I' for Inactive)
ROOT
HETATM    1  C1  UNL     1      31.928   5.881  49.641  1.00  0.00     0.052 C 
HETATM    2  C2  UNL     1      31.429   6.788  48.594  1.00  0.00    -0.022 A 
HETATM    3  C3  UNL     1      30.299   6.595  47.856  1.00  0.00    -0.044 A 
HETATM    4  C4  UNL     1      29.444   7.228  47.006  1.00  0.00     0.008 A 
HETATM    5  C5  UNL     1      29.937   8.537  46.851  1.00  0.00     0.003 A 
HETATM    6  C6  UNL     1      31.084   8.955  47.489  1.00  0.00     0.037 A 
HETATM    7  C7  UNL     1      31.791   8.076  48.323  1.00  0.00     0.075 A 
HETATM    8  O1  UNL     1      33.011   8.435  48.951  1.00  0.00    -0.350 OA
HETATM    9  C8  UNL     1      34.124   7.556  48.759  1.00  0.00     0.182 C 
HETATM   10  C9  UNL     1      34.527   7.191  47.379  1.00  0.00     0.037 C 
HETATM   11  C10 UNL     1      34.017   8.117  46.341  1.00  0.00     0.037 C 
HETATM   12  C11 UNL     1      33.086   7.465  45.377  1.00  0.00    -0.009 C 
HETATM   13  C12 UNL     1      32.324   6.397  45.636  1.00  0.00     0.087 C 
HETATM   14  N1  UNL     1      32.813   5.585  46.736  1.00  0.00    -0.355 N 
HETATM   15  C13 UNL     1      31.709   4.746  47.204  1.00  0.00     0.016 C 
HETATM   16  C14 UNL     1      31.956   3.422  47.205  1.00  0.00     0.025 C 
HETATM   17  C15 UNL     1      33.250   2.709  47.373  1.00  0.00    -0.002 C 
HETATM   18  C16 UNL     1      34.395   3.376  47.447  1.00  0.00    -0.025 C 
HETATM   19  C17 UNL     1      34.886   4.724  47.830  1.00  0.00     0.053 C 
HETATM   20  C18 UNL     1      34.208   5.778  47.022  1.00  0.00     0.099 C 
HETATM   21  C19 UNL     1      30.294   5.102  47.714  1.00  0.00     0.096 C 
ENDROOT
TORSDOF 0
ENDMDL
MODEL 6
REMARK VINA RESULT:      -6.9      1.848      4.573
REMARK  0 active torsions:
REMARK  status: ('A' for Active; 'I' for Inactive)
ROOT
HETATM    1  C1  UNL     1      22.886   3.721  48.463  1.00  0.00     0.052 C 
HETATM    2  C2  UNL     1      23.861   4.814  48.620  1.00  0.00    -0.022 A 
HETATM    3  C3  UNL     1      25.144   4.669  49.058  1.00  0.00    -0.044 A 
HETATM    4  C4  UNL     1      26.334   5.326  49.149  1.00  0.00     0.008 A 
HETATM    5  C5  UNL     1      26.125   6.602  48.595  1.00  0.00     0.003 A 
HETATM    6  C6  UNL     1      24.895   6.981  48.102  1.00  0.00     0.037 A 
HETATM    7  C7  UNL     1      23.812   6.090  48.138  1.00  0.00     0.075 A 
HETATM    8  O1  UNL     1      22.511   6.452  47.705  1.00  0.00    -0.350 OA
HETATM    9  C8  UNL     1      21.435   6.227  48.622  1.00  0.00     0.182 C 
HETATM   10  C9  UNL     1      21.524   6.785  49.993  1.00  0.00     0.037 C 
HETATM   11  C10 UNL     1      22.508   7.885  50.129  1.00  0.00     0.037 C 
HETATM   12  C11 UNL     1      23.626   7.561  51.060  1.00  0.00    -0.009 C 
HETATM   13  C12 UNL     1      24.078   6.331  51.331  1.00  0.00     0.087 C 
HETATM   14  N1  UNL     1      23.106   5.284  51.074  1.00  0.00    -0.355 N 
HETATM   15  C13 UNL     1      23.827   4.014  50.974  1.00  0.00     0.016 C 
HETATM   16  C14 UNL     1      23.411   3.050  51.818  1.00  0.00     0.025 C 
HETATM   17  C15 UNL     1      22.059   2.829  52.397  1.00  0.00    -0.002 C 
HETATM   18  C16 UNL     1      21.076   3.696  52.191  1.00  0.00    -0.025 C 
HETATM   19  C17 UNL     1      20.676   4.725  51.197  1.00  0.00     0.053 C 
HETATM   20  C18 UNL     1      21.747   5.749  51.042  1.00  0.00     0.099 C 
HETATM   21  C19 UNL     1      24.988   3.563  50.059  1.00  0.00     0.096 C 
ENDROOT
TORSDOF 0
ENDMDL
MODEL 7
REMARK VINA RESULT:      -6.8      1.872      4.441
REMARK  0 active torsions:
REMARK  status: ('A' for Active; 'I' for Inactive)
ROOT
HETATM    1  C1  UNL     1      24.564   3.634  49.455  1.00  0.00     0.052 C 
HETATM    2  C2  UNL     1      23.374   2.790  49.655  1.00  0.00    -0.022 A 
HETATM    3  C3  UNL     1      22.572   2.310  48.663  1.00  0.00    -0.044 A 
HETATM    4  C4  UNL     1      21.579   1.410  48.418  1.00  0.00     0.008 A 
HETATM    5  C5  UNL     1      21.306   0.778  49.646  1.00  0.00     0.003 A 
HETATM    6  C6  UNL     1      21.983   1.117  50.797  1.00  0.00     0.037 A 
HETATM    7  C7  UNL     1      22.977   2.107  50.768  1.00  0.00     0.075 A 
HETATM    8  O1  UNL     1      23.659   2.538  51.935  1.00  0.00    -0.350 OA
HETATM    9  C8  UNL     1      23.673   3.946  52.197  1.00  0.00     0.182 C 
HETATM   10  C9  UNL     1      22.388   4.686  52.238  1.00  0.00     0.037 C 
HETATM   11  C10 UNL     1      21.204   3.820  52.443  1.00  0.00     0.037 C 
HETATM   12  C11 UNL     1      20.251   3.845  51.297  1.00  0.00    -0.009 C 
HETATM   13  C12 UNL     1      20.575   4.107  50.025  1.00  0.00     0.087 C 
HETATM   14  N1  UNL     1      21.805   4.864  49.881  1.00  0.00    -0.355 N 
HETATM   15  C13 UNL     1      22.277   4.702  48.505  1.00  0.00     0.016 C 
HETATM   16  C14 UNL     1      22.463   5.849  47.824  1.00  0.00     0.025 C 
HETATM   17  C15 UNL     1      22.829   7.196  48.337  1.00  0.00    -0.002 C 
HETATM   18  C16 UNL     1      22.918   7.433  49.639  1.00  0.00    -0.025 C 
HETATM   19  C17 UNL     1      23.171   6.689  50.900  1.00  0.00     0.053 C 
HETATM   20  C18 UNL     1      22.184   5.585  51.065  1.00  0.00     0.099 C 
HETATM   21  C19 UNL     1      22.616   3.441  47.679  1.00  0.00     0.096 C 
ENDROOT
TORSDOF 0
ENDMDL
MODEL 8
REMARK VINA RESULT:      -6.7      1.429      4.334
REMARK  0 active torsions:
REMARK  status: ('A' for Active; 'I' for Inactive)
ROOT
HETATM    1  C1  UNL     1      22.089   1.491  49.874  1.00  0.00     0.052 C 
HETATM    2  C2  UNL     1      23.163   1.974  50.759  1.00  0.00    -0.022 A 
HETATM    3  C3  UNL     1      23.336   1.609  52.061  1.00  0.00    -0.044 A 
HETATM    4  C4  UNL     1      24.234   1.657  53.085  1.00  0.00     0.008 A 
HETATM    5  C5  UNL     1      25.362   2.337  52.591  1.00  0.00     0.003 A 
HETATM    6  C6  UNL     1      25.406   2.818  51.300  1.00  0.00     0.037 A 
HETATM    7  C7  UNL     1      24.315   2.632  50.438  1.00  0.00     0.075 A 
HETATM    8  O1  UNL     1      24.283   3.162  49.123  1.00  0.00    -0.350 OA
HETATM    9  C8  UNL     1      23.144   3.955  48.770  1.00  0.00     0.182 C 
HETATM   10  C9  UNL     1      22.769   5.105  49.628  1.00  0.00     0.037 C 
HETATM   11  C10 UNL     1      23.864   5.577  50.508  1.00  0.00     0.037 C 
HETATM   12  C11 UNL     1      23.556   5.433  51.959  1.00  0.00    -0.009 C 
HETATM   13  C12 UNL     1      22.726   4.527  52.489  1.00  0.00     0.087 C 
HETATM   14  N1  UNL     1      21.744   4.017  51.550  1.00  0.00    -0.355 N 
HETATM   15  C13 UNL     1      21.214   2.763  52.087  1.00  0.00     0.016 C 
HETATM   16  C14 UNL     1      19.876   2.721  52.235  1.00  0.00     0.025 C 
HETATM   17  C15 UNL     1      18.824   3.434  51.462  1.00  0.00    -0.002 C 
HETATM   18  C16 UNL     1      19.143   4.329  50.536  1.00  0.00    -0.025 C 
HETATM   19  C17 UNL     1      20.276   4.656  49.634  1.00  0.00     0.053 C 
HETATM   20  C18 UNL     1      21.525   4.874  50.418  1.00  0.00     0.099 C 
HETATM   21  C19 UNL     1      21.915   1.452  52.512  1.00  0.00     0.096 C 
ENDROOT
TORSDOF 0
ENDMDL
MODEL 9
REMARK VINA RESULT:      -6.7      1.606      3.694
REMARK  0 active torsions:
REMARK  status: ('A' for Active; 'I' for Inactive)
ROOT
HETATM    1  C1  UNL     1      23.046   2.671  48.808  1.00  0.00     0.052 C 
HETATM    2  C2  UNL     1      22.299   3.114  49.998  1.00  0.00    -0.022 A 
HETATM    3  C3  UNL     1      21.491   4.210  50.059  1.00  0.00    -0.044 A 
HETATM    4  C4  UNL     1      20.542   4.809  50.831  1.00  0.00     0.008 A 
HETATM    5  C5  UNL     1      20.366   3.982  51.956  1.00  0.00     0.003 A 
HETATM    6  C6  UNL     1      21.094   2.823  52.119  1.00  0.00     0.037 A 
HETATM    7  C7  UNL     1      22.033   2.435  51.152  1.00  0.00     0.075 A 
HETATM    8  O1  UNL     1      22.853   1.287  51.302  1.00  0.00    -0.350 OA
HETATM    9  C8  UNL     1      24.265   1.473  51.151  1.00  0.00     0.182 C 
HETATM   10  C9  UNL     1      24.948   2.510  51.961  1.00  0.00     0.037 C 
HETATM   11  C10 UNL     1      24.182   2.939  53.155  1.00  0.00     0.037 C 
HETATM   12  C11 UNL     1      23.792   4.377  53.117  1.00  0.00    -0.009 C 
HETATM   13  C12 UNL     1      23.607   5.102  52.008  1.00  0.00     0.087 C 
HETATM   14  N1  UNL     1      24.293   4.571  50.844  1.00  0.00    -0.355 N 
HETATM   15  C13 UNL     1      23.677   5.154  49.652  1.00  0.00     0.016 C 
HETATM   16  C14 UNL     1      24.522   5.802  48.827  1.00  0.00     0.025 C 
HETATM   17  C15 UNL     1      25.971   5.562  48.591  1.00  0.00    -0.002 C 
HETATM   18  C16 UNL     1      26.643   4.670  49.308  1.00  0.00    -0.025 C 
HETATM   19  C17 UNL     1      26.384   3.434  50.090  1.00  0.00     0.053 C 
HETATM   20  C18 UNL     1      25.384   3.694  51.165  1.00  0.00     0.099 C 
HETATM   21  C19 UNL     1      22.215   5.157  49.149  1.00  0.00     0.096 C 
ENDROOT
TORSDOF 0
ENDMDL
