MODEL 1
REMARK VINA RESULT:      -7.6      0.000      0.000
REMARK  2 active torsions:
REMARK  status: ('A' for Active; 'I' for Inactive)
REMARK    1  A    between atoms: C8_11  and  C9_12 
REMARK    2  A    between atoms: C10_13  and  C11_14 
ROOT
HETATM    1  C1  UNL     1      22.695   2.266  50.142  1.00  0.00     0.161 C 
HETATM    2  N1  UNL     1      22.687   2.659  51.514  1.00  0.00    -0.331 N 
HETATM    3  S1  UNL     1      21.485   3.781  51.912  1.00  0.00     0.065 SA
HETATM    4  N2  UNL     1      19.851   3.248  51.706  1.00  0.00    -0.323 N 
HETATM    5  C2  UNL     1      18.531   2.818  51.544  1.00  0.00     0.097 C 
HETATM    6  C3  UNL     1      18.217   1.562  51.632  1.00  0.00     0.014 C 
HETATM    7  C4  UNL     1      18.787   0.258  51.865  1.00  0.00     0.010 C 
HETATM    8  C5  UNL     1      20.108   0.056  52.100  1.00  0.00     0.021 C 
HETATM    9  C6  UNL     1      21.598  -0.070  52.355  1.00  0.00    -0.024 C 
HETATM   10  C7  UNL     1      22.829   0.395  52.501  1.00  0.00    -0.001 C 
HETATM   11  C8  UNL     1      23.292   1.799  52.418  1.00  0.00     0.137 C 
HETATM   12  H4  UNL     1      19.786   3.311  52.766  1.00  0.00     0.175 HD
ENDROOT
BRANCH  11  13
HETATM   13  C9  UNL     1      24.794   1.729  52.217  1.00  0.00     0.001 C 
HETATM   14  C10 UNL     1      25.622   0.735  52.477  1.00  0.00     0.008 C 
BRANCH  14  15
HETATM   15  C11 UNL     1      27.062   0.921  52.186  1.00  0.00     0.175 A 
HETATM   16  C12 UNL     1      27.517   2.158  52.844  1.00  0.00     0.009 A 
HETATM   17  C13 UNL     1      28.526   2.248  53.702  1.00  0.00     0.002 A 
HETATM   18  C14 UNL     1      29.244   1.009  54.017  1.00  0.00     0.049 A 
HETATM   19  C15 UNL     1      28.868  -0.114  53.453  1.00  0.00     0.139 A 
HETATM   20 CL1  UNL     1      29.642  -1.674  53.743  1.00  0.00    -0.057 Cl
HETATM   21  O1  UNL     1      27.820  -0.228  52.560  1.00  0.00    -0.327 OA
ENDBRANCH  14  15
ENDBRANCH  11  13
TORSDOF 2
ENDMDL
MODEL 2
REMARK VINA RESULT:      -7.5      3.316      4.389
REMARK  2 active torsions:
REMARK  status: ('A' for Active; 'I' for Inactive)
REMARK    1  A    between atoms: C8_11  and  C9_12 
REMARK    2  A    between atoms: C10_13  and  C11_14 
ROOT
HETATM    1  C1  UNL     1      24.050   3.501  52.257  1.00  0.00     0.161 C 
HETATM    2  N1  UNL     1      24.228   2.532  51.225  1.00  0.00    -0.331 N 
HETATM    3  S1  UNL     1      22.892   2.345  50.204  1.00  0.00     0.065 SA
HETATM    4  N2  UNL     1      22.441   3.739  49.281  1.00  0.00    -0.323 N 
HETATM    5  C2  UNL     1      22.078   4.862  48.533  1.00  0.00     0.097 C 
HETATM    6  C3  UNL     1      22.954   5.760  48.199  1.00  0.00     0.014 C 
HETATM    7  C4  UNL     1      24.352   6.089  48.322  1.00  0.00     0.010 C 
HETATM    8  C5  UNL     1      25.243   5.309  48.983  1.00  0.00     0.021 C 
HETATM    9  C6  UNL     1      26.165   4.373  49.742  1.00  0.00    -0.024 C 
HETATM   10  C7  UNL     1      26.452   3.290  50.447  1.00  0.00    -0.001 C 
HETATM   11  C8  UNL     1      25.533   2.213  50.880  1.00  0.00     0.137 C 
HETATM   12  H4  UNL     1      22.741   3.170  48.433  1.00  0.00     0.175 HD
ENDROOT
BRANCH  11  13
HETATM   13  C9  UNL     1      26.251   1.480  51.998  1.00  0.00     0.001 C 
HETATM   14  C10 UNL     1      26.112   0.230  52.397  1.00  0.00     0.008 C 
BRANCH  14  15
HETATM   15  C11 UNL     1      26.942  -0.248  53.525  1.00  0.00     0.175 A 
HETATM   16  C12 UNL     1      27.750  -1.390  53.063  1.00  0.00     0.009 A 
HETATM   17  C13 UNL     1      29.073  -1.476  53.135  1.00  0.00     0.002 A 
HETATM   18  C14 UNL     1      29.784  -0.338  53.724  1.00  0.00     0.049 A 
HETATM   19  C15 UNL     1      29.100   0.699  54.147  1.00  0.00     0.139 A 
HETATM   20 CL1  UNL     1      29.826   2.134  54.875  1.00  0.00    -0.057 Cl
HETATM   21  O1  UNL     1      27.724   0.808  54.080  1.00  0.00    -0.327 OA
ENDBRANCH  14  15
ENDBRANCH  11  13
TORSDOF 2
ENDMDL
MODEL 3
REMARK VINA RESULT:      -7.4      3.717      5.490
REMARK  2 active torsions:
REMARK  status: ('A' for Active; 'I' for Inactive)
REMARK    1  A    between atoms: C8_11  and  C9_12 
REMARK    2  A    between atoms: C10_13  and  C11_14 
ROOT
HETATM    1  C1  UNL     1      24.058   5.181  51.067  1.00  0.00     0.161 C 
HETATM    2  N1  UNL     1      24.136   4.208  50.026  1.00  0.00    -0.331 N 
HETATM    3  S1  UNL     1      23.004   4.419  48.786  1.00  0.00     0.065 SA
HETATM    4  N2  UNL     1      23.135   5.889  47.882  1.00  0.00    -0.323 N 
HETATM    5  C2  UNL     1      23.241   7.073  47.147  1.00  0.00     0.097 C 
HETATM    6  C3  UNL     1      24.379   7.684  47.017  1.00  0.00     0.014 C 
HETATM    7  C4  UNL     1      25.769   7.597  47.391  1.00  0.00     0.010 C 
HETATM    8  C5  UNL     1      26.272   6.590  48.148  1.00  0.00     0.021 C 
HETATM    9  C6  UNL     1      26.743   5.424  48.997  1.00  0.00    -0.024 C 
HETATM   10  C7  UNL     1      26.583   4.300  49.677  1.00  0.00    -0.001 C 
HETATM   11  C8  UNL     1      25.337   3.530  49.888  1.00  0.00     0.137 C 
HETATM   12  H4  UNL     1      23.407   5.263  47.065  1.00  0.00     0.175 HD
ENDROOT
BRANCH  11  13
HETATM   13  C9  UNL     1      25.610   2.615  51.067  1.00  0.00     0.001 C 
HETATM   14  C10 UNL     1      26.766   2.172  51.525  1.00  0.00     0.008 C 
BRANCH  14  15
HETATM   15  C11 UNL     1      26.762   1.278  52.706  1.00  0.00     0.175 A 
HETATM   16  C12 UNL     1      25.890   0.127  52.420  1.00  0.00     0.009 A 
HETATM   17  C13 UNL     1      26.250  -1.149  52.490  1.00  0.00     0.002 A 
HETATM   18  C14 UNL     1      27.633  -1.429  52.884  1.00  0.00     0.049 A 
HETATM   19  C15 UNL     1      28.443  -0.431  53.146  1.00  0.00     0.139 A 
HETATM   20 CL1  UNL     1      30.129  -0.624  53.632  1.00  0.00    -0.057 Cl
HETATM   21  O1  UNL     1      28.087   0.903  53.078  1.00  0.00    -0.327 OA
ENDBRANCH  14  15
ENDBRANCH  11  13
TORSDOF 2
ENDMDL
MODEL 4
REMARK VINA RESULT:      -7.3      4.085      7.900
REMARK  2 active torsions:
REMARK  status: ('A' for Active; 'I' for Inactive)
REMARK    1  A    between atoms: C8_11  and  C9_12 
REMARK    2  A    between atoms: C10_13  and  C11_14 
ROOT
HETATM    1  C1  UNL     1      26.022   0.821  55.101  1.00  0.00     0.161 C 
HETATM    2  N1  UNL     1      26.115   1.251  53.743  1.00  0.00    -0.331 N 
HETATM    3  S1  UNL     1      27.569   2.023  53.354  1.00  0.00     0.065 SA
HETATM    4  N2  UNL     1      29.002   1.063  53.502  1.00  0.00    -0.323 N 
HETATM    5  C2  UNL     1      30.160   0.289  53.616  1.00  0.00     0.097 C 
HETATM    6  C3  UNL     1      30.123  -1.001  53.479  1.00  0.00     0.014 C 
HETATM    7  C4  UNL     1      29.219  -2.094  53.216  1.00  0.00     0.010 C 
HETATM    8  C5  UNL     1      27.889  -1.924  53.007  1.00  0.00     0.021 C 
HETATM    9  C6  UNL     1      26.416  -1.636  52.785  1.00  0.00    -0.024 C 
HETATM   10  C7  UNL     1      25.354  -0.852  52.685  1.00  0.00    -0.001 C 
HETATM   11  C8  UNL     1      25.288   0.620  52.826  1.00  0.00     0.137 C 
HETATM   12  H4  UNL     1      29.067   1.148  52.443  1.00  0.00     0.175 HD
ENDROOT
BRANCH  11  13
HETATM   13  C9  UNL     1      23.826   0.949  53.062  1.00  0.00     0.001 C 
HETATM   14  C10 UNL     1      22.833   0.139  53.379  1.00  0.00     0.008 C 
BRANCH  14  15
HETATM   15  C11 UNL     1      21.481   0.716  53.554  1.00  0.00     0.175 A 
HETATM   16  C12 UNL     1      21.171   1.551  52.382  1.00  0.00     0.009 A 
HETATM   17  C13 UNL     1      20.108   1.415  51.597  1.00  0.00     0.002 A 
HETATM   18  C14 UNL     1      19.168   0.342  51.931  1.00  0.00     0.049 A 
HETATM   19  C15 UNL     1      19.409  -0.425  52.968  1.00  0.00     0.139 A 
HETATM   20 CL1  UNL     1      18.363  -1.752  53.482  1.00  0.00    -0.057 Cl
HETATM   21  O1  UNL     1      20.509  -0.300  53.794  1.00  0.00    -0.327 OA
ENDBRANCH  14  15
ENDBRANCH  11  13
TORSDOF 2
ENDMDL
MODEL 5
REMARK VINA RESULT:      -7.3      4.373      6.666
REMARK  2 active torsions:
REMARK  status: ('A' for Active; 'I' for Inactive)
REMARK    1  A    between atoms: C8_11  and  C9_12 
REMARK    2  A    between atoms: C10_13  and  C11_14 
ROOT
HETATM    1  C1  UNL     1      23.831   3.206  49.339  1.00  0.00     0.161 C 
HETATM    2  N1  UNL     1      24.815   3.111  50.368  1.00  0.00    -0.331 N 
HETATM    3  S1  UNL     1      26.355   3.642  49.913  1.00  0.00     0.065 SA
HETATM    4  N2  UNL     1      26.484   5.313  49.478  1.00  0.00    -0.323 N 
HETATM    5  C2  UNL     1      26.592   6.662  49.131  1.00  0.00     0.097 C 
HETATM    6  C3  UNL     1      25.785   7.551  49.625  1.00  0.00     0.014 C 
HETATM    7  C4  UNL     1      24.664   7.700  50.520  1.00  0.00     0.010 C 
HETATM    8  C5  UNL     1      24.102   6.660  51.186  1.00  0.00     0.021 C 
HETATM    9  C6  UNL     1      23.542   5.437  51.888  1.00  0.00    -0.024 C 
HETATM   10  C7  UNL     1      23.489   4.148  52.182  1.00  0.00    -0.001 C 
HETATM   11  C8  UNL     1      24.355   3.059  51.675  1.00  0.00     0.137 C 
HETATM   12  H4  UNL     1      27.082   5.407  50.354  1.00  0.00     0.175 HD
ENDROOT
BRANCH  11  13
HETATM   13  C9  UNL     1      23.609   1.769  51.962  1.00  0.00     0.001 C 
HETATM   14  C10 UNL     1      23.951   0.769  52.752  1.00  0.00     0.008 C 
BRANCH  14  15
HETATM   15  C11 UNL     1      23.037  -0.391  52.860  1.00  0.00     0.175 A 
HETATM   16  C12 UNL     1      22.832  -0.696  54.287  1.00  0.00     0.009 A 
HETATM   17  C13 UNL     1      21.656  -0.765  54.899  1.00  0.00     0.002 A 
HETATM   18  C14 UNL     1      20.465  -0.515  54.081  1.00  0.00     0.049 A 
HETATM   19  C15 UNL     1      20.606  -0.239  52.807  1.00  0.00     0.139 A 
HETATM   20 CL1  UNL     1      19.260   0.082  51.709  1.00  0.00    -0.057 Cl
HETATM   21  O1  UNL     1      21.821  -0.161  52.153  1.00  0.00    -0.327 OA
ENDBRANCH  14  15
ENDBRANCH  11  13
TORSDOF 2
ENDMDL
MODEL 6
REMARK VINA RESULT:      -7.2      4.020      5.023
REMARK  2 active torsions:
REMARK  status: ('A' for Active; 'I' for Inactive)
REMARK    1  A    between atoms: C8_11  and  C9_12 
REMARK    2  A    between atoms: C10_13  and  C11_14 
ROOT
HETATM    1  C1  UNL     1      22.277   1.365  50.237  1.00  0.00     0.161 C 
HETATM    2  N1  UNL     1      22.495   2.403  51.191  1.00  0.00    -0.331 N 
HETATM    3  S1  UNL     1      21.220   2.631  52.280  1.00  0.00     0.065 SA
HETATM    4  N2  UNL     1      20.859   1.293  53.317  1.00  0.00    -0.323 N 
HETATM    5  C2  UNL     1      20.569   0.216  54.158  1.00  0.00     0.097 C 
HETATM    6  C3  UNL     1      21.484  -0.642  54.494  1.00  0.00     0.014 C 
HETATM    7  C4  UNL     1      22.880  -0.952  54.305  1.00  0.00     0.010 C 
HETATM    8  C5  UNL     1      23.710  -0.200  53.540  1.00  0.00     0.021 C 
HETATM    9  C6  UNL     1      24.562   0.701  52.665  1.00  0.00    -0.024 C 
HETATM   10  C7  UNL     1      24.779   1.740  51.875  1.00  0.00    -0.001 C 
HETATM   11  C8  UNL     1      23.810   2.769  51.431  1.00  0.00     0.137 C 
HETATM   12  H4  UNL     1      21.197   1.922  54.106  1.00  0.00     0.175 HD
ENDROOT
BRANCH  11  13
HETATM   13  C9  UNL     1      24.442   3.440  50.226  1.00  0.00     0.001 C 
HETATM   14  C10 UNL     1      25.498   4.229  50.172  1.00  0.00     0.008 C 
BRANCH  14  15
HETATM   15  C11 UNL     1      25.916   4.761  48.855  1.00  0.00     0.175 A 
HETATM   16  C12 UNL     1      25.438   6.149  48.737  1.00  0.00     0.009 A 
HETATM   17  C13 UNL     1      26.198   7.206  48.478  1.00  0.00     0.002 A 
HETATM   18  C14 UNL     1      27.632   6.966  48.296  1.00  0.00     0.049 A 
HETATM   19  C15 UNL     1      28.098   5.744  48.394  1.00  0.00     0.139 A 
HETATM   20 CL1  UNL     1      29.799   5.313  48.198  1.00  0.00    -0.057 Cl
HETATM   21  O1  UNL     1      27.323   4.631  48.664  1.00  0.00    -0.327 OA
ENDBRANCH  14  15
ENDBRANCH  11  13
TORSDOF 2
ENDMDL
MODEL 7
REMARK VINA RESULT:      -7.1      3.135      4.189
REMARK  2 active torsions:
REMARK  status: ('A' for Active; 'I' for Inactive)
REMARK    1  A    between atoms: C8_11  and  C9_12 
REMARK    2  A    between atoms: C10_13  and  C11_14 
ROOT
HETATM    1  C1  UNL     1      25.930   3.661  49.725  1.00  0.00     0.161 C 
HETATM    2  N1  UNL     1      24.942   4.152  50.629  1.00  0.00    -0.331 N 
HETATM    3  S1  UNL     1      24.538   5.780  50.404  1.00  0.00     0.065 SA
HETATM    4  N2  UNL     1      23.827   6.182  48.878  1.00  0.00    -0.323 N 
HETATM    5  C2  UNL     1      23.249   6.508  47.649  1.00  0.00     0.097 C 
HETATM    6  C3  UNL     1      22.570   5.634  46.971  1.00  0.00     0.014 C 
HETATM    7  C4  UNL     1      22.119   4.264  47.007  1.00  0.00     0.010 C 
HETATM    8  C5  UNL     1      22.398   3.417  48.029  1.00  0.00     0.021 C 
HETATM    9  C6  UNL     1      22.759   2.545  49.217  1.00  0.00    -0.024 C 
HETATM   10  C7  UNL     1      23.326   2.294  50.387  1.00  0.00    -0.001 C 
HETATM   11  C8  UNL     1      24.120   3.214  51.233  1.00  0.00     0.137 C 
HETATM   12  H4  UNL     1      22.948   6.393  49.439  1.00  0.00     0.175 HD
ENDROOT
BRANCH  11  13
HETATM   13  C9  UNL     1      24.884   2.330  52.201  1.00  0.00     0.001 C 
HETATM   14  C10 UNL     1      24.512   1.194  52.761  1.00  0.00     0.008 C 
BRANCH  14  15
HETATM   15  C11 UNL     1      25.454   0.519  53.682  1.00  0.00     0.175 A 
HETATM   16  C12 UNL     1      25.808  -0.793  53.113  1.00  0.00     0.009 A 
HETATM   17  C13 UNL     1      27.041  -1.218  52.865  1.00  0.00     0.002 A 
HETATM   18  C14 UNL     1      28.138  -0.301  53.187  1.00  0.00     0.049 A 
HETATM   19  C15 UNL     1      27.864   0.877  53.694  1.00  0.00     0.139 A 
HETATM   20 CL1  UNL     1      29.086   2.076  54.127  1.00  0.00    -0.057 Cl
HETATM   21  O1  UNL     1      26.588   1.338  53.958  1.00  0.00    -0.327 OA
ENDBRANCH  14  15
ENDBRANCH  11  13
TORSDOF 2
ENDMDL
MODEL 8
REMARK VINA RESULT:      -7.0      4.019      7.830
REMARK  2 active torsions:
REMARK  status: ('A' for Active; 'I' for Inactive)
REMARK    1  A    between atoms: C8_11  and  C9_12 
REMARK    2  A    between atoms: C10_13  and  C11_14 
ROOT
HETATM    1  C1  UNL     1      24.316   3.157  53.505  1.00  0.00     0.161 C 
HETATM    2  N1  UNL     1      24.504   2.344  52.348  1.00  0.00    -0.331 N 
HETATM    3  S1  UNL     1      25.947   2.638  51.515  1.00  0.00     0.065 SA
HETATM    4  N2  UNL     1      27.407   2.320  52.389  1.00  0.00    -0.323 N 
HETATM    5  C2  UNL     1      28.587   2.061  53.092  1.00  0.00     0.097 C 
HETATM    6  C3  UNL     1      28.624   1.176  54.041  1.00  0.00     0.014 C 
HETATM    7  C4  UNL     1      27.800   0.225  54.746  1.00  0.00     0.010 C 
HETATM    8  C5  UNL     1      26.487   0.031  54.468  1.00  0.00     0.021 C 
HETATM    9  C6  UNL     1      25.026  -0.116  54.085  1.00  0.00    -0.024 C 
HETATM   10  C7  UNL     1      23.940   0.169  53.385  1.00  0.00    -0.001 C 
HETATM   11  C8  UNL     1      23.791   1.157  52.292  1.00  0.00     0.137 C 
HETATM   12  H4  UNL     1      27.558   1.535  51.687  1.00  0.00     0.175 HD
ENDROOT
BRANCH  11  13
HETATM   13  C9  UNL     1      22.299   1.398  52.152  1.00  0.00     0.001 C 
HETATM   14  C10 UNL     1      21.297   0.577  52.405  1.00  0.00     0.008 C 
BRANCH  14  15
HETATM   15  C11 UNL     1      19.915   1.060  52.183  1.00  0.00     0.175 A 
HETATM   16  C12 UNL     1      19.763   1.411  50.761  1.00  0.00     0.009 A 
HETATM   17  C13 UNL     1      18.840   0.922  49.941  1.00  0.00     0.002 A 
HETATM   18  C14 UNL     1      17.896  -0.047  50.505  1.00  0.00     0.049 A 
HETATM   19  C15 UNL     1      17.999  -0.386  51.768  1.00  0.00     0.139 A 
HETATM   20 CL1  UNL     1      16.931  -1.539  52.573  1.00  0.00    -0.057 Cl
HETATM   21  O1  UNL     1      18.953   0.110  52.636  1.00  0.00    -0.327 OA
ENDBRANCH  14  15
ENDBRANCH  11  13
TORSDOF 2
ENDMDL
MODEL 9
REMARK VINA RESULT:      -6.9      4.842      7.497
REMARK  2 active torsions:
REMARK  status: ('A' for Active; 'I' for Inactive)
REMARK    1  A    between atoms: C8_11  and  C9_12 
REMARK    2  A    between atoms: C10_13  and  C11_14 
ROOT
HETATM    1  C1  UNL     1      25.179   6.695  50.442  1.00  0.00     0.161 C 
HETATM    2  N1  UNL     1      24.712   6.074  49.246  1.00  0.00    -0.331 N 
HETATM    3  S1  UNL     1      24.653   7.101  47.903  1.00  0.00     0.065 SA
HETATM    4  N2  UNL     1      26.170   7.747  47.374  1.00  0.00    -0.323 N 
HETATM    5  C2  UNL     1      27.393   8.267  46.943  1.00  0.00     0.097 C 
HETATM    6  C3  UNL     1      28.505   7.629  47.150  1.00  0.00     0.014 C 
HETATM    7  C4  UNL     1      29.035   6.422  47.734  1.00  0.00     0.010 C 
HETATM    8  C5  UNL     1      28.259   5.483  48.331  1.00  0.00     0.021 C 
HETATM    9  C6  UNL     1      27.312   4.490  48.977  1.00  0.00    -0.024 C 
HETATM   10  C7  UNL     1      26.125   4.046  49.359  1.00  0.00    -0.001 C 
HETATM   11  C8  UNL     1      24.805   4.693  49.177  1.00  0.00     0.137 C 
HETATM   12  H4  UNL     1      26.022   7.155  46.502  1.00  0.00     0.175 HD
ENDROOT
BRANCH  11  13
HETATM   13  C9  UNL     1      23.871   4.011  50.160  1.00  0.00     0.001 C 
HETATM   14  C10 UNL     1      24.167   3.312  51.240  1.00  0.00     0.008 C 
BRANCH  14  15
HETATM   15  C11 UNL     1      23.057   2.745  52.039  1.00  0.00     0.175 A 
HETATM   16  C12 UNL     1      22.031   2.228  51.116  1.00  0.00     0.009 A 
HETATM   17  C13 UNL     1      21.558   0.988  51.106  1.00  0.00     0.002 A 
HETATM   18  C14 UNL     1      22.107   0.059  52.098  1.00  0.00     0.049 A 
HETATM   19  C15 UNL     1      23.024   0.479  52.937  1.00  0.00     0.139 A 
HETATM   20 CL1  UNL     1      23.769  -0.531  54.179  1.00  0.00    -0.057 Cl
HETATM   21  O1  UNL     1      23.529   1.766  52.962  1.00  0.00    -0.327 OA
ENDBRANCH  14  15
ENDBRANCH  11  13
TORSDOF 2
ENDMDL
