MODEL 1
REMARK VINA RESULT:      -7.9      0.000      0.000
REMARK  7 active torsions:
REMARK  status: ('A' for Active; 'I' for Inactive)
REMARK    1  A    between atoms: C2_2  and  C3_3 
REMARK    2  A    between atoms: C3_3  and  C4_4 
REMARK    3  A    between atoms: C4_4  and  O1_5 
REMARK    4  A    between atoms: O1_5  and  C5_6 
REMARK    5  A    between atoms: C8_9  and  N1_10 
REMARK    6  A    between atoms: N1_10  and  C9_11 
REMARK    7  A    between atoms: C18_23  and  O2_24 
ROOT
HETATM    1  C5  UNL     1      24.705  -0.549  54.032  1.00  0.00     0.102 C 
HETATM    2  C6  UNL     1      23.957   0.022  53.107  1.00  0.00     0.053 C 
HETATM    3  C7  UNL     1      22.544  -0.083  53.328  1.00  0.00     0.017 C 
HETATM    4  C8  UNL     1      21.642   0.374  52.492  1.00  0.00     0.138 C 
HETATM    5  N2  UNL     1      20.219   0.143  52.471  1.00  0.00    -0.226 NA
HETATM    6  C15 UNL     1      19.805  -0.657  53.430  1.00  0.00     0.205 C 
HETATM    7  N3  UNL     1      20.700  -1.235  54.379  1.00  0.00    -0.372 N 
HETATM    8  C16 UNL     1      21.956  -0.626  54.572  1.00  0.00     0.145 C 
HETATM    9  C17 UNL     1      22.908  -1.259  55.486  1.00  0.00     0.042 C 
HETATM   10  C18 UNL     1      24.199  -1.209  55.228  1.00  0.00     0.097 C 
HETATM   11  H13 UNL     1      20.441  -2.088  54.923  1.00  0.00     0.161 HD
ENDROOT
BRANCH   4  12
HETATM   12  N1  UNL     1      22.021   1.048  51.270  1.00  0.00    -0.340 N 
HETATM   13  H7  UNL     1      21.970   0.546  50.350  1.00  0.00     0.167 HD
BRANCH  12  14
HETATM   14  C9  UNL     1      22.456   2.398  51.386  1.00  0.00     0.035 A 
HETATM   15  C10 UNL     1      21.708   3.260  52.142  1.00  0.00     0.029 A 
HETATM   16  C11 UNL     1      22.165   4.576  52.235  1.00  0.00     0.004 A 
HETATM   17  C12 UNL     1      23.313   4.970  51.590  1.00  0.00     0.024 A 
HETATM   18  C13 UNL     1      24.021   4.069  50.848  1.00  0.00     0.036 A 
HETATM   19 CL1  UNL     1      25.487   4.620  50.040  1.00  0.00    -0.084 Cl
HETATM   20  C14 UNL     1      23.608   2.757  50.729  1.00  0.00     0.053 A 
ENDBRANCH  12  14
ENDBRANCH   4  12
BRANCH   1  21
HETATM   21  O1  UNL     1      26.072  -0.505  53.871  1.00  0.00    -0.347 OA
BRANCH  21  22
HETATM   22  C4  UNL     1      26.843   0.641  54.185  1.00  0.00     0.193 C 
BRANCH  22  23
HETATM   23  C3  UNL     1      28.084   0.192  54.841  1.00  0.00     0.093 C 
BRANCH  23  24
HETATM   24  C2  UNL     1      29.027  -0.367  54.132  1.00  0.00    -0.174 C 
HETATM   25  C1  UNL     1      29.840  -1.130  53.432  1.00  0.00     0.091 C 
ENDBRANCH  23  24
ENDBRANCH  22  23
ENDBRANCH  21  22
ENDBRANCH   1  21
BRANCH  10  26
HETATM   26  O2  UNL     1      25.037  -1.815  56.152  1.00  0.00    -0.358 OA
HETATM   27  H16 UNL     1      25.863  -2.274  55.744  1.00  0.00     0.217 HD
ENDBRANCH  10  26
TORSDOF 7
ENDMDL
MODEL 2
REMARK VINA RESULT:      -7.8      2.722      5.009
REMARK  7 active torsions:
REMARK  status: ('A' for Active; 'I' for Inactive)
REMARK    1  A    between atoms: C2_2  and  C3_3 
REMARK    2  A    between atoms: C3_3  and  C4_4 
REMARK    3  A    between atoms: C4_4  and  O1_5 
REMARK    4  A    between atoms: O1_5  and  C5_6 
REMARK    5  A    between atoms: C8_9  and  N1_10 
REMARK    6  A    between atoms: N1_10  and  C9_11 
REMARK    7  A    between atoms: C18_23  and  O2_24 
ROOT
HETATM    1  C5  UNL     1      24.506  -0.499  53.762  1.00  0.00     0.102 C 
HETATM    2  C6  UNL     1      24.970   0.198  52.742  1.00  0.00     0.053 C 
HETATM    3  C7  UNL     1      26.249   0.806  52.962  1.00  0.00     0.017 C 
HETATM    4  C8  UNL     1      26.846   1.580  52.087  1.00  0.00     0.138 C 
HETATM    5  N2  UNL     1      28.002   2.426  52.257  1.00  0.00    -0.226 NA
HETATM    6  C15 UNL     1      28.489   2.407  53.479  1.00  0.00     0.205 C 
HETATM    7  N3  UNL     1      27.904   1.624  54.519  1.00  0.00    -0.372 N 
HETATM    8  C16 UNL     1      27.078   0.541  54.159  1.00  0.00     0.145 C 
HETATM    9  C17 UNL     1      26.414  -0.217  55.220  1.00  0.00     0.042 C 
HETATM   10  C18 UNL     1      25.209  -0.710  55.020  1.00  0.00     0.097 C 
HETATM   11  H13 UNL     1      28.079   1.839  55.526  1.00  0.00     0.161 HD
ENDROOT
BRANCH   4  12
HETATM   12  N1  UNL     1      26.247   1.864  50.801  1.00  0.00    -0.340 N 
HETATM   13  H7  UNL     1      26.163   1.109  50.078  1.00  0.00     0.167 HD
BRANCH  12  14
HETATM   14  C9  UNL     1      25.790   3.193  50.582  1.00  0.00     0.035 A 
HETATM   15  C10 UNL     1      24.681   3.621  51.260  1.00  0.00     0.029 A 
HETATM   16  C11 UNL     1      24.262   4.931  51.021  1.00  0.00     0.004 A 
HETATM   17  C12 UNL     1      24.943   5.739  50.141  1.00  0.00     0.024 A 
HETATM   18  C13 UNL     1      26.044   5.261  49.491  1.00  0.00     0.036 A 
HETATM   19 CL1  UNL     1      26.884   6.334  48.374  1.00  0.00    -0.084 Cl
HETATM   20  C14 UNL     1      26.495   3.973  49.696  1.00  0.00     0.053 A 
ENDBRANCH  12  14
ENDBRANCH   4  12
BRANCH   1  21
HETATM   21  O1  UNL     1      23.271  -1.093  53.627  1.00  0.00    -0.347 OA
BRANCH  21  22
HETATM   22  C4  UNL     1      22.093  -0.550  54.195  1.00  0.00     0.193 C 
BRANCH  22  23
HETATM   23  C3  UNL     1      21.084  -0.429  53.127  1.00  0.00     0.093 C 
BRANCH  23  24
HETATM   24  C2  UNL     1      21.422   0.073  51.970  1.00  0.00    -0.174 C 
HETATM   25  C1  UNL     1      21.575   0.730  50.840  1.00  0.00     0.091 C 
ENDBRANCH  23  24
ENDBRANCH  22  23
ENDBRANCH  21  22
ENDBRANCH   1  21
BRANCH  10  26
HETATM   26  O2  UNL     1      24.656  -1.432  56.068  1.00  0.00    -0.358 OA
HETATM   27  H16 UNL     1      23.651  -1.267  56.218  1.00  0.00     0.217 HD
ENDBRANCH  10  26
TORSDOF 7
ENDMDL
MODEL 3
REMARK VINA RESULT:      -7.6      1.299      1.668
REMARK  7 active torsions:
REMARK  status: ('A' for Active; 'I' for Inactive)
REMARK    1  A    between atoms: C2_2  and  C3_3 
REMARK    2  A    between atoms: C3_3  and  C4_4 
REMARK    3  A    between atoms: C4_4  and  O1_5 
REMARK    4  A    between atoms: O1_5  and  C5_6 
REMARK    5  A    between atoms: C8_9  and  N1_10 
REMARK    6  A    between atoms: N1_10  and  C9_11 
REMARK    7  A    between atoms: C18_23  and  O2_24 
ROOT
HETATM    1  C5  UNL     1      23.712  -0.558  53.877  1.00  0.00     0.102 C 
HETATM    2  C6  UNL     1      23.308   0.077  52.793  1.00  0.00     0.053 C 
HETATM    3  C7  UNL     1      21.885   0.179  52.651  1.00  0.00     0.017 C 
HETATM    4  C8  UNL     1      21.295   0.726  51.615  1.00  0.00     0.138 C 
HETATM    5  N2  UNL     1      19.903   0.695  51.237  1.00  0.00    -0.226 NA
HETATM    6  C15 UNL     1      19.152  -0.002  52.063  1.00  0.00     0.205 C 
HETATM    7  N3  UNL     1      19.691  -0.663  53.207  1.00  0.00    -0.372 N 
HETATM    8  C16 UNL     1      20.934  -0.229  53.709  1.00  0.00     0.145 C 
HETATM    9  C17 UNL     1      21.526  -0.954  54.833  1.00  0.00     0.042 C 
HETATM   10  C18 UNL     1      22.834  -1.095  54.908  1.00  0.00     0.097 C 
HETATM   11  H13 UNL     1      19.184  -1.451  53.670  1.00  0.00     0.161 HD
ENDROOT
BRANCH   4  12
HETATM   12  N1  UNL     1      22.060   1.294  50.527  1.00  0.00    -0.340 N 
HETATM   13  H7  UNL     1      22.188   0.759  49.633  1.00  0.00     0.167 HD
BRANCH  12  14
HETATM   14  C9  UNL     1      22.613   2.588  50.734  1.00  0.00     0.035 A 
HETATM   15  C10 UNL     1      21.994   3.427  51.621  1.00  0.00     0.029 A 
HETATM   16  C11 UNL     1      22.565   4.688  51.800  1.00  0.00     0.004 A 
HETATM   17  C12 UNL     1      23.696   5.054  51.109  1.00  0.00     0.024 A 
HETATM   18  C13 UNL     1      24.273   4.177  50.236  1.00  0.00     0.036 A 
HETATM   19 CL1  UNL     1      25.722   4.691  49.374  1.00  0.00    -0.084 Cl
HETATM   20  C14 UNL     1      23.744   2.919  50.027  1.00  0.00     0.053 A 
ENDBRANCH  12  14
ENDBRANCH   4  12
BRANCH   1  21
HETATM   21  O1  UNL     1      25.067  -0.711  54.065  1.00  0.00    -0.347 OA
BRANCH  21  22
HETATM   22  C4  UNL     1      25.922  -1.254  53.076  1.00  0.00     0.193 C 
BRANCH  22  23
HETATM   23  C3  UNL     1      27.063  -0.337  52.903  1.00  0.00     0.093 C 
BRANCH  23  24
HETATM   24  C2  UNL     1      26.907   0.772  52.230  1.00  0.00    -0.174 C 
HETATM   25  C1  UNL     1      26.836   1.996  51.752  1.00  0.00     0.091 C 
ENDBRANCH  23  24
ENDBRANCH  22  23
ENDBRANCH  21  22
ENDBRANCH   1  21
BRANCH  10  26
HETATM   26  O2  UNL     1      23.320  -1.777  56.015  1.00  0.00    -0.358 OA
HETATM   27  H16 UNL     1      22.686  -1.783  56.825  1.00  0.00     0.217 HD
ENDBRANCH  10  26
TORSDOF 7
ENDMDL
MODEL 4
REMARK VINA RESULT:      -7.5      2.967      4.842
REMARK  7 active torsions:
REMARK  status: ('A' for Active; 'I' for Inactive)
REMARK    1  A    between atoms: C2_2  and  C3_3 
REMARK    2  A    between atoms: C3_3  and  C4_4 
REMARK    3  A    between atoms: C4_4  and  O1_5 
REMARK    4  A    between atoms: O1_5  and  C5_6 
REMARK    5  A    between atoms: C8_9  and  N1_10 
REMARK    6  A    between atoms: N1_10  and  C9_11 
REMARK    7  A    between atoms: C18_23  and  O2_24 
ROOT
HETATM    1  C5  UNL     1      26.931   2.275  51.849  1.00  0.00     0.102 C 
HETATM    2  C6  UNL     1      25.747   1.692  51.815  1.00  0.00     0.053 C 
HETATM    3  C7  UNL     1      25.422   0.926  52.982  1.00  0.00     0.017 C 
HETATM    4  C8  UNL     1      24.316   0.231  53.109  1.00  0.00     0.138 C 
HETATM    5  N2  UNL     1      23.966  -0.749  54.108  1.00  0.00    -0.226 NA
HETATM    6  C15 UNL     1      24.920  -0.962  54.989  1.00  0.00     0.205 C 
HETATM    7  N3  UNL     1      26.174  -0.285  54.931  1.00  0.00    -0.372 N 
HETATM    8  C16 UNL     1      26.252   0.921  54.206  1.00  0.00     0.145 C 
HETATM    9  C17 UNL     1      27.553   1.579  54.080  1.00  0.00     0.042 C 
HETATM   10  C18 UNL     1      27.859   2.221  52.970  1.00  0.00     0.097 C 
HETATM   11  H13 UNL     1      27.021  -0.664  55.412  1.00  0.00     0.161 HD
ENDROOT
BRANCH   4  12
HETATM   12  N1  UNL     1      23.318   0.207  52.063  1.00  0.00    -0.340 N 
HETATM   13  H7  UNL     1      23.420  -0.446  51.249  1.00  0.00     0.167 HD
BRANCH  12  14
HETATM   14  C9  UNL     1      22.216   1.097  52.202  1.00  0.00     0.035 A 
HETATM   15  C10 UNL     1      21.011   0.585  52.600  1.00  0.00     0.029 A 
HETATM   16  C11 UNL     1      19.953   1.488  52.726  1.00  0.00     0.004 A 
HETATM   17  C12 UNL     1      20.133   2.824  52.460  1.00  0.00     0.024 A 
HETATM   18  C13 UNL     1      21.357   3.282  52.066  1.00  0.00     0.036 A 
HETATM   19 CL1  UNL     1      21.539   5.004  51.737  1.00  0.00    -0.084 Cl
HETATM   20  C14 UNL     1      22.432   2.426  51.928  1.00  0.00     0.053 A 
ENDBRANCH  12  14
ENDBRANCH   4  12
BRANCH   1  21
HETATM   21  O1  UNL     1      27.318   3.011  50.751  1.00  0.00    -0.347 OA
BRANCH  21  22
HETATM   22  C4  UNL     1      26.499   3.166  49.606  1.00  0.00     0.193 C 
BRANCH  22  23
HETATM   23  C3  UNL     1      26.549   4.582  49.196  1.00  0.00     0.093 C 
BRANCH  23  24
HETATM   24  C2  UNL     1      27.675   5.097  48.782  1.00  0.00    -0.174 C 
HETATM   25  C1  UNL     1      28.774   5.480  48.167  1.00  0.00     0.091 C 
ENDBRANCH  23  24
ENDBRANCH  22  23
ENDBRANCH  21  22
ENDBRANCH   1  21
BRANCH  10  26
HETATM   26  O2  UNL     1      29.103   2.835  52.935  1.00  0.00    -0.358 OA
HETATM   27  H16 UNL     1      29.888   2.200  52.737  1.00  0.00     0.217 HD
ENDBRANCH  10  26
TORSDOF 7
ENDMDL
MODEL 5
REMARK VINA RESULT:      -7.3      3.096      6.143
REMARK  7 active torsions:
REMARK  status: ('A' for Active; 'I' for Inactive)
REMARK    1  A    between atoms: C2_2  and  C3_3 
REMARK    2  A    between atoms: C3_3  and  C4_4 
REMARK    3  A    between atoms: C4_4  and  O1_5 
REMARK    4  A    between atoms: O1_5  and  C5_6 
REMARK    5  A    between atoms: C8_9  and  N1_10 
REMARK    6  A    between atoms: N1_10  and  C9_11 
REMARK    7  A    between atoms: C18_23  and  O2_24 
ROOT
HETATM    1  C5  UNL     1      21.432   0.315  52.209  1.00  0.00     0.102 C 
HETATM    2  C6  UNL     1      22.751   0.310  52.259  1.00  0.00     0.053 C 
HETATM    3  C7  UNL     1      23.307  -0.393  53.378  1.00  0.00     0.017 C 
HETATM    4  C8  UNL     1      24.593  -0.461  53.627  1.00  0.00     0.138 C 
HETATM    5  N2  UNL     1      25.268  -0.928  54.813  1.00  0.00    -0.226 NA
HETATM    6  C15 UNL     1      24.446  -1.318  55.764  1.00  0.00     0.205 C 
HETATM    7  N3  UNL     1      23.028  -1.262  55.614  1.00  0.00    -0.372 N 
HETATM    8  C16 UNL     1      22.494  -1.203  54.312  1.00  0.00     0.145 C 
HETATM    9  C17 UNL     1      21.045  -1.068  54.155  1.00  0.00     0.042 C 
HETATM   10  C18 UNL     1      20.556  -0.360  53.157  1.00  0.00     0.097 C 
HETATM   11  H13 UNL     1      22.392  -1.265  56.443  1.00  0.00     0.161 HD
ENDROOT
BRANCH   4  12
HETATM   12  N1  UNL     1      25.562   0.169  52.758  1.00  0.00    -0.340 N 
HETATM   13  H7  UNL     1      25.246   0.717  51.921  1.00  0.00     0.167 HD
BRANCH  12  14
HETATM   14  C9  UNL     1      26.935   0.006  53.097  1.00  0.00     0.035 A 
HETATM   15  C10 UNL     1      27.523  -1.209  52.868  1.00  0.00     0.029 A 
HETATM   16  C11 UNL     1      28.870  -1.331  53.213  1.00  0.00     0.004 A 
HETATM   17  C12 UNL     1      29.558  -0.272  53.755  1.00  0.00     0.024 A 
HETATM   18  C13 UNL     1      28.922   0.918  53.962  1.00  0.00     0.036 A 
HETATM   19 CL1  UNL     1      29.846   2.248  54.659  1.00  0.00    -0.084 Cl
HETATM   20  C14 UNL     1      27.591   1.086  53.637  1.00  0.00     0.053 A 
ENDBRANCH  12  14
ENDBRANCH   4  12
BRANCH   1  21
HETATM   21  O1  UNL     1      20.830   0.991  51.172  1.00  0.00    -0.347 OA
BRANCH  21  22
HETATM   22  C4  UNL     1      21.531   1.893  50.335  1.00  0.00     0.193 C 
BRANCH  22  23
HETATM   23  C3  UNL     1      21.522   1.349  48.965  1.00  0.00     0.093 C 
BRANCH  23  24
HETATM   24  C2  UNL     1      21.772   2.136  47.954  1.00  0.00    -0.174 C 
HETATM   25  C1  UNL     1      22.238   2.962  47.042  1.00  0.00     0.091 C 
ENDBRANCH  23  24
ENDBRANCH  22  23
ENDBRANCH  21  22
ENDBRANCH   1  21
BRANCH  10  26
HETATM   26  O2  UNL     1      19.173  -0.296  53.066  1.00  0.00    -0.358 OA
HETATM   27  H16 UNL     1      18.747   0.492  53.571  1.00  0.00     0.217 HD
ENDBRANCH  10  26
TORSDOF 7
ENDMDL
MODEL 6
REMARK VINA RESULT:      -7.2      3.102      5.924
REMARK  7 active torsions:
REMARK  status: ('A' for Active; 'I' for Inactive)
REMARK    1  A    between atoms: C2_2  and  C3_3 
REMARK    2  A    between atoms: C3_3  and  C4_4 
REMARK    3  A    between atoms: C4_4  and  O1_5 
REMARK    4  A    between atoms: O1_5  and  C5_6 
REMARK    5  A    between atoms: C8_9  and  N1_10 
REMARK    6  A    between atoms: N1_10  and  C9_11 
REMARK    7  A    between atoms: C18_23  and  O2_24 
ROOT
HETATM    1  C5  UNL     1      22.199   1.541  51.572  1.00  0.00     0.102 C 
HETATM    2  C6  UNL     1      23.338   1.244  52.170  1.00  0.00     0.053 C 
HETATM    3  C7  UNL     1      23.246   0.209  53.157  1.00  0.00     0.017 C 
HETATM    4  C8  UNL     1      24.258  -0.184  53.894  1.00  0.00     0.138 C 
HETATM    5  N2  UNL     1      24.261  -1.035  55.058  1.00  0.00    -0.226 NA
HETATM    6  C15 UNL     1      23.061  -1.441  55.413  1.00  0.00     0.205 C 
HETATM    7  N3  UNL     1      21.885  -1.053  54.703  1.00  0.00    -0.372 N 
HETATM    8  C16 UNL     1      22.023  -0.595  53.378  1.00  0.00     0.145 C 
HETATM    9  C17 UNL     1      20.832  -0.123  52.672  1.00  0.00     0.042 C 
HETATM   10  C18 UNL     1      20.926   0.876  51.818  1.00  0.00     0.097 C 
HETATM   11  H13 UNL     1      20.940  -1.103  55.145  1.00  0.00     0.161 HD
ENDROOT
BRANCH   4  12
HETATM   12  N1  UNL     1      25.572   0.400  53.741  1.00  0.00    -0.340 N 
HETATM   13  H7  UNL     1      25.708   1.434  53.857  1.00  0.00     0.167 HD
BRANCH  12  14
HETATM   14  C9  UNL     1      26.641  -0.487  53.434  1.00  0.00     0.035 A 
HETATM   15  C10 UNL     1      26.351  -1.655  52.781  1.00  0.00     0.029 A 
HETATM   16  C11 UNL     1      27.425  -2.500  52.495  1.00  0.00     0.004 A 
HETATM   17  C12 UNL     1      28.705  -2.160  52.859  1.00  0.00     0.024 A 
HETATM   18  C13 UNL     1      28.939  -0.981  53.508  1.00  0.00     0.036 A 
HETATM   19 CL1  UNL     1      30.598  -0.588  53.954  1.00  0.00    -0.084 Cl
HETATM   20  C14 UNL     1      27.908  -0.114  53.812  1.00  0.00     0.053 A 
ENDBRANCH  12  14
ENDBRANCH   4  12
BRANCH   1  21
HETATM   21  O1  UNL     1      22.210   2.542  50.627  1.00  0.00    -0.347 OA
BRANCH  21  22
HETATM   22  C4  UNL     1      22.600   2.322  49.283  1.00  0.00     0.193 C 
BRANCH  22  23
HETATM   23  C3  UNL     1      23.517   3.407  48.889  1.00  0.00     0.093 C 
BRANCH  23  24
HETATM   24  C2  UNL     1      24.724   3.447  49.387  1.00  0.00    -0.174 C 
HETATM   25  C1  UNL     1      26.010   3.503  49.657  1.00  0.00     0.091 C 
ENDBRANCH  23  24
ENDBRANCH  22  23
ENDBRANCH  21  22
ENDBRANCH   1  21
BRANCH  10  26
HETATM   26  O2  UNL     1      19.756   1.252  51.175  1.00  0.00    -0.358 OA
HETATM   27  H16 UNL     1      19.460   0.618  50.421  1.00  0.00     0.217 HD
ENDBRANCH  10  26
TORSDOF 7
ENDMDL
MODEL 7
REMARK VINA RESULT:      -7.1      2.645      5.381
REMARK  7 active torsions:
REMARK  status: ('A' for Active; 'I' for Inactive)
REMARK    1  A    between atoms: C2_2  and  C3_3 
REMARK    2  A    between atoms: C3_3  and  C4_4 
REMARK    3  A    between atoms: C4_4  and  O1_5 
REMARK    4  A    between atoms: O1_5  and  C5_6 
REMARK    5  A    between atoms: C8_9  and  N1_10 
REMARK    6  A    between atoms: N1_10  and  C9_11 
REMARK    7  A    between atoms: C18_23  and  O2_24 
ROOT
HETATM    1  C5  UNL     1      21.219   0.236  53.122  1.00  0.00     0.102 C 
HETATM    2  C6  UNL     1      21.876   0.937  52.216  1.00  0.00     0.053 C 
HETATM    3  C7  UNL     1      23.304   0.853  52.310  1.00  0.00     0.017 C 
HETATM    4  C8  UNL     1      24.124   1.521  51.534  1.00  0.00     0.138 C 
HETATM    5  N2  UNL     1      25.548   1.707  51.660  1.00  0.00    -0.226 NA
HETATM    6  C15 UNL     1      26.061   1.126  52.723  1.00  0.00     0.205 C 
HETATM    7  N3  UNL     1      25.260   0.396  53.651  1.00  0.00    -0.372 N 
HETATM    8  C16 UNL     1      24.003  -0.077  53.225  1.00  0.00     0.145 C 
HETATM    9  C17 UNL     1      23.145  -0.758  54.196  1.00  0.00     0.042 C 
HETATM   10  C18 UNL     1      21.837  -0.612  54.133  1.00  0.00     0.097 C 
HETATM   11  H13 UNL     1      25.588   0.211  54.626  1.00  0.00     0.161 HD
ENDROOT
BRANCH   4  12
HETATM   12  N1  UNL     1      23.630   2.395  50.493  1.00  0.00    -0.340 N 
HETATM   13  H7  UNL     1      22.965   2.031  49.767  1.00  0.00     0.167 HD
BRANCH  12  14
HETATM   14  C9  UNL     1      24.087   3.742  50.511  1.00  0.00     0.035 A 
HETATM   15  C10 UNL     1      23.519   4.611  51.404  1.00  0.00     0.029 A 
HETATM   16  C11 UNL     1      23.993   5.924  51.394  1.00  0.00     0.004 A 
HETATM   17  C12 UNL     1      24.983   6.309  50.522  1.00  0.00     0.024 A 
HETATM   18  C13 UNL     1      25.515   5.401  49.652  1.00  0.00     0.036 A 
HETATM   19 CL1  UNL     1      26.783   5.941  48.554  1.00  0.00    -0.084 Cl
HETATM   20  C14 UNL     1      25.079   4.092  49.626  1.00  0.00     0.053 A 
ENDBRANCH  12  14
ENDBRANCH   4  12
BRANCH   1  21
HETATM   21  O1  UNL     1      19.844   0.288  53.103  1.00  0.00    -0.347 OA
BRANCH  21  22
HETATM   22  C4  UNL     1      19.093   0.285  51.902  1.00  0.00     0.193 C 
BRANCH  22  23
HETATM   23  C3  UNL     1      17.857  -0.483  52.137  1.00  0.00     0.093 C 
BRANCH  23  24
HETATM   24  C2  UNL     1      17.898  -1.577  52.848  1.00  0.00    -0.174 C 
HETATM   25  C1  UNL     1      17.869  -2.537  53.748  1.00  0.00     0.091 C 
ENDBRANCH  23  24
ENDBRANCH  22  23
ENDBRANCH  21  22
ENDBRANCH   1  21
BRANCH  10  26
HETATM   26  O2  UNL     1      21.092  -1.305  55.076  1.00  0.00    -0.358 OA
HETATM   27  H16 UNL     1      21.338  -1.096  56.053  1.00  0.00     0.217 HD
ENDBRANCH  10  26
TORSDOF 7
ENDMDL
MODEL 8
REMARK VINA RESULT:      -7.0      1.809      2.851
REMARK  7 active torsions:
REMARK  status: ('A' for Active; 'I' for Inactive)
REMARK    1  A    between atoms: C2_2  and  C3_3 
REMARK    2  A    between atoms: C3_3  and  C4_4 
REMARK    3  A    between atoms: C4_4  and  O1_5 
REMARK    4  A    between atoms: O1_5  and  C5_6 
REMARK    5  A    between atoms: C8_9  and  N1_10 
REMARK    6  A    between atoms: N1_10  and  C9_11 
REMARK    7  A    between atoms: C18_23  and  O2_24 
ROOT
HETATM    1  C5  UNL     1      24.204   0.181  53.380  1.00  0.00     0.102 C 
HETATM    2  C6  UNL     1      24.489   1.064  52.442  1.00  0.00     0.053 C 
HETATM    3  C7  UNL     1      23.402   1.378  51.562  1.00  0.00     0.017 C 
HETATM    4  C8  UNL     1      23.508   2.191  50.537  1.00  0.00     0.138 C 
HETATM    5  N2  UNL     1      22.582   2.419  49.455  1.00  0.00    -0.226 NA
HETATM    6  C15 UNL     1      21.498   1.678  49.529  1.00  0.00     0.205 C 
HETATM    7  N3  UNL     1      21.288   0.739  50.584  1.00  0.00    -0.372 N 
HETATM    8  C16 UNL     1      22.019   0.898  51.778  1.00  0.00     0.145 C 
HETATM    9  C17 UNL     1      21.866  -0.105  52.832  1.00  0.00     0.042 C 
HETATM   10  C18 UNL     1      22.897  -0.429  53.586  1.00  0.00     0.097 C 
HETATM   11  H13 UNL     1      20.612  -0.051  50.484  1.00  0.00     0.161 HD
ENDROOT
BRANCH   4  12
HETATM   12  N1  UNL     1      24.755   2.856  50.231  1.00  0.00    -0.340 N 
HETATM   13  H7  UNL     1      25.588   2.302  49.916  1.00  0.00     0.167 HD
BRANCH  12  14
HETATM   14  C9  UNL     1      24.784   4.272  50.377  1.00  0.00     0.035 A 
HETATM   15  C10 UNL     1      23.923   4.852  51.269  1.00  0.00     0.029 A 
HETATM   16  C11 UNL     1      23.980   6.242  51.386  1.00  0.00     0.004 A 
HETATM   17  C12 UNL     1      24.864   6.977  50.633  1.00  0.00     0.024 A 
HETATM   18  C13 UNL     1      25.701   6.347  49.758  1.00  0.00     0.036 A 
HETATM   19 CL1  UNL     1      26.818   7.331  48.815  1.00  0.00    -0.084 Cl
HETATM   20  C14 UNL     1      25.681   4.974  49.608  1.00  0.00     0.053 A 
ENDBRANCH  12  14
ENDBRANCH   4  12
BRANCH   1  21
HETATM   21  O1  UNL     1      25.208  -0.184  54.248  1.00  0.00    -0.347 OA
BRANCH  21  22
HETATM   22  C4  UNL     1      26.544   0.263  54.105  1.00  0.00     0.193 C 
BRANCH  22  23
HETATM   23  C3  UNL     1      27.290  -0.756  53.345  1.00  0.00     0.093 C 
BRANCH  23  24
HETATM   24  C2  UNL     1      28.588  -0.834  53.465  1.00  0.00    -0.174 C 
HETATM   25  C1  UNL     1      29.895  -0.688  53.494  1.00  0.00     0.091 C 
ENDBRANCH  23  24
ENDBRANCH  22  23
ENDBRANCH  21  22
ENDBRANCH   1  21
BRANCH  10  26
HETATM   26  O2  UNL     1      22.665  -1.373  54.575  1.00  0.00    -0.358 OA
HETATM   27  H16 UNL     1      22.907  -1.064  55.527  1.00  0.00     0.217 HD
ENDBRANCH  10  26
TORSDOF 7
ENDMDL
MODEL 9
REMARK VINA RESULT:      -6.7      3.019      5.017
REMARK  7 active torsions:
REMARK  status: ('A' for Active; 'I' for Inactive)
REMARK    1  A    between atoms: C2_2  and  C3_3 
REMARK    2  A    between atoms: C3_3  and  C4_4 
REMARK    3  A    between atoms: C4_4  and  O1_5 
REMARK    4  A    between atoms: O1_5  and  C5_6 
REMARK    5  A    between atoms: C8_9  and  N1_10 
REMARK    6  A    between atoms: N1_10  and  C9_11 
REMARK    7  A    between atoms: C18_23  and  O2_24 
ROOT
HETATM    1  C5  UNL     1      21.004  -0.148  52.636  1.00  0.00     0.102 C 
HETATM    2  C6  UNL     1      22.298   0.058  52.475  1.00  0.00     0.053 C 
HETATM    3  C7  UNL     1      23.129  -0.527  53.485  1.00  0.00     0.017 C 
HETATM    4  C8  UNL     1      24.433  -0.385  53.525  1.00  0.00     0.138 C 
HETATM    5  N2  UNL     1      25.354  -0.718  54.584  1.00  0.00    -0.226 NA
HETATM    6  C15 UNL     1      24.767  -1.217  55.650  1.00  0.00     0.205 C 
HETATM    7  N3  UNL     1      23.353  -1.390  55.729  1.00  0.00    -0.372 N 
HETATM    8  C16 UNL     1      22.616  -1.440  54.530  1.00  0.00     0.145 C 
HETATM    9  C17 UNL     1      21.158  -1.540  54.607  1.00  0.00     0.042 C 
HETATM   10  C18 UNL     1      20.409  -0.937  53.707  1.00  0.00     0.097 C 
HETATM   11  H13 UNL     1      22.865  -1.480  56.649  1.00  0.00     0.161 HD
ENDROOT
BRANCH   4  12
HETATM   12  N1  UNL     1      25.138   0.376  52.517  1.00  0.00    -0.340 N 
HETATM   13  H7  UNL     1      25.929  -0.059  51.982  1.00  0.00     0.167 HD
BRANCH  12  14
HETATM   14  C9  UNL     1      24.706   1.714  52.299  1.00  0.00     0.035 A 
HETATM   15  C10 UNL     1      24.650   2.563  53.372  1.00  0.00     0.029 A 
HETATM   16  C11 UNL     1      24.223   3.868  53.121  1.00  0.00     0.004 A 
HETATM   17  C12 UNL     1      23.878   4.264  51.850  1.00  0.00     0.024 A 
HETATM   18  C13 UNL     1      23.953   3.376  50.816  1.00  0.00     0.036 A 
HETATM   19 CL1  UNL     1      23.503   3.931  49.205  1.00  0.00    -0.084 Cl
HETATM   20  C14 UNL     1      24.371   2.076  51.017  1.00  0.00     0.053 A 
ENDBRANCH  12  14
ENDBRANCH   4  12
BRANCH   1  21
HETATM   21  O1  UNL     1      20.144   0.405  51.714  1.00  0.00    -0.347 OA
BRANCH  21  22
HETATM   22  C4  UNL     1      20.511   0.635  50.366  1.00  0.00     0.193 C 
BRANCH  22  23
HETATM   23  C3  UNL     1      20.206   2.040  50.041  1.00  0.00     0.093 C 
BRANCH  23  24
HETATM   24  C2  UNL     1      20.162   2.931  50.994  1.00  0.00    -0.174 C 
HETATM   25  C1  UNL     1      20.354   3.779  51.982  1.00  0.00     0.091 C 
ENDBRANCH  23  24
ENDBRANCH  22  23
ENDBRANCH  21  22
ENDBRANCH   1  21
BRANCH  10  26
HETATM   26  O2  UNL     1      19.037  -1.095  53.838  1.00  0.00    -0.358 OA
HETATM   27  H16 UNL     1      18.710  -1.210  54.807  1.00  0.00     0.217 HD
ENDBRANCH  10  26
TORSDOF 7
ENDMDL
