MODEL 1
REMARK VINA RESULT:      -8.1      0.000      0.000
REMARK  8 active torsions:
REMARK  status: ('A' for Active; 'I' for Inactive)
REMARK    1  A    between atoms: S1_1  and  O1_2 
REMARK    2  A    between atoms: O1_2  and  C1_3 
REMARK    3  A    between atoms: C6_8  and  C7_9 
REMARK    4  A    between atoms: C7_9  and  C8_10 
REMARK    5  A    between atoms: N1_19  and  C17_20 
REMARK    6  A    between atoms: C17_20  and  C18_21 
REMARK    7  A    between atoms: C18_21  and  C19_22 
REMARK    8  A    between atoms: C19_22  and  N2_23 
ROOT
HETATM    1  C8  UNL     1      23.642   2.217  51.762  1.00  0.00     0.089 C 
HETATM    2  C9  UNL     1      22.958   1.899  50.451  1.00  0.00     0.030 C 
HETATM    3  C10 UNL     1      21.743   1.069  50.546  1.00  0.00     0.043 C 
HETATM    4  C11 UNL     1      21.431   0.457  51.848  1.00  0.00    -0.032 A 
HETATM    5  C12 UNL     1      20.194  -0.075  52.181  1.00  0.00     0.009 A 
HETATM    6  C13 UNL     1      19.998  -0.629  53.444  1.00  0.00     0.001 A 
HETATM    7  C14 UNL     1      20.984  -0.685  54.411  1.00  0.00     0.002 A 
HETATM    8  C15 UNL     1      22.247  -0.164  54.131  1.00  0.00     0.030 A 
HETATM    9  C16 UNL     1      22.379   0.377  52.845  1.00  0.00     0.036 A 
HETATM   10  N1  UNL     1      23.641   0.919  52.482  1.00  0.00    -0.375 N 
ENDROOT
BRANCH   1  11
HETATM   11  C7  UNL     1      22.826   3.250  52.471  1.00  0.00     0.066 C 
BRANCH  11  12
HETATM   12  C6  UNL     1      22.849   4.589  51.847  1.00  0.00    -0.022 A 
HETATM   13  C1  UNL     1      21.595   5.033  51.411  1.00  0.00     0.090 A 
HETATM   14  C2  UNL     1      21.515   6.293  50.805  1.00  0.00     0.038 A 
HETATM   15  C3  UNL     1      22.625   7.121  50.618  1.00  0.00     0.003 A 
HETATM   16  C4  UNL     1      23.816   6.613  51.073  1.00  0.00     0.001 A 
HETATM   17  C5  UNL     1      23.969   5.379  51.680  1.00  0.00     0.010 A 
BRANCH  13  18
HETATM   18  O1  UNL     1      20.503   4.384  51.518  1.00  0.00    -0.282 OA
BRANCH  18  19
HETATM   19  S1  UNL     1      19.094   3.615  51.452  1.00  0.00    -0.017 SA
HETATM   20  H1  UNL     1      18.653   3.369  50.128  1.00  0.00     0.134 HD
ENDBRANCH  18  19
ENDBRANCH  13  18
ENDBRANCH  11  12
ENDBRANCH   1  11
BRANCH  10  21
HETATM   21  C17 UNL     1      24.885   0.298  52.822  1.00  0.00     0.125 C 
BRANCH  21  22
HETATM   22  C18 UNL     1      26.073   0.627  51.974  1.00  0.00     0.050 C 
BRANCH  22  23
HETATM   23  C19 UNL     1      27.328   0.195  52.705  1.00  0.00     0.277 C 
BRANCH  23  24
HETATM   24  N2  UNL     1      27.507   0.961  53.880  1.00  0.00     0.116 N 
HETATM   25  C20 UNL     1      27.899   2.311  53.666  1.00  0.00     0.379 C 
HETATM   26  N3  UNL     1      29.261   2.171  53.173  1.00  0.00    -0.233 NA
HETATM   27  N4  UNL     1      29.758   0.985  53.747  1.00  0.00    -0.233 NA
HETATM   28  H25 UNL     1      29.329   2.177  52.138  1.00  0.00     0.142 HD
HETATM   29  C21 UNL     1      28.697   0.429  54.562  1.00  0.00     0.379 C 
HETATM   30  H26 UNL     1      30.055   0.294  53.009  1.00  0.00     0.142 HD
ENDBRANCH  23  24
ENDBRANCH  22  23
ENDBRANCH  21  22
ENDBRANCH  10  21
TORSDOF 8
ENDMDL
MODEL 2
REMARK VINA RESULT:      -7.8      3.157      5.621
REMARK  8 active torsions:
REMARK  status: ('A' for Active; 'I' for Inactive)
REMARK    1  A    between atoms: S1_1  and  O1_2 
REMARK    2  A    between atoms: O1_2  and  C1_3 
REMARK    3  A    between atoms: C6_8  and  C7_9 
REMARK    4  A    between atoms: C7_9  and  C8_10 
REMARK    5  A    between atoms: N1_19  and  C17_20 
REMARK    6  A    between atoms: C17_20  and  C18_21 
REMARK    7  A    between atoms: C18_21  and  C19_22 
REMARK    8  A    between atoms: C19_22  and  N2_23 
ROOT
HETATM    1  C8  UNL     1      24.139   3.691  52.127  1.00  0.00     0.089 C 
HETATM    2  C9  UNL     1      23.124   4.726  52.558  1.00  0.00     0.030 C 
HETATM    3  C10 UNL     1      21.710   4.327  52.438  1.00  0.00     0.043 C 
HETATM    4  C11 UNL     1      21.409   3.074  51.726  1.00  0.00    -0.032 A 
HETATM    5  C12 UNL     1      20.193   2.411  51.798  1.00  0.00     0.009 A 
HETATM    6  C13 UNL     1      20.008   1.228  51.088  1.00  0.00     0.001 A 
HETATM    7  C14 UNL     1      20.986   0.657  50.294  1.00  0.00     0.002 A 
HETATM    8  C15 UNL     1      22.228   1.281  50.185  1.00  0.00     0.030 A 
HETATM    9  C16 UNL     1      22.349   2.467  50.923  1.00  0.00     0.036 A 
HETATM   10  N1  UNL     1      23.584   3.165  50.854  1.00  0.00    -0.375 N 
ENDROOT
BRANCH   1  11
HETATM   11  C7  UNL     1      24.204   2.637  53.186  1.00  0.00     0.066 C 
BRANCH  11  12
HETATM   12  C6  UNL     1      25.255   1.620  52.980  1.00  0.00    -0.022 A 
HETATM   13  C1  UNL     1      24.797   0.301  53.087  1.00  0.00     0.090 A 
HETATM   14  C2  UNL     1      25.722  -0.735  52.907  1.00  0.00     0.038 A 
HETATM   15  C3  UNL     1      27.073  -0.512  52.628  1.00  0.00     0.003 A 
HETATM   16  C4  UNL     1      27.441   0.808  52.540  1.00  0.00     0.001 A 
HETATM   17  C5  UNL     1      26.584   1.880  52.705  1.00  0.00     0.010 A 
BRANCH  13  18
HETATM   18  O1  UNL     1      23.596  -0.046  53.336  1.00  0.00    -0.282 OA
BRANCH  18  19
HETATM   19  S1  UNL     1      22.132  -0.458  53.853  1.00  0.00    -0.017 SA
HETATM   20  H1  UNL     1      21.941  -1.859  53.933  1.00  0.00     0.134 HD
ENDBRANCH  18  19
ENDBRANCH  13  18
ENDBRANCH  11  12
ENDBRANCH   1  11
BRANCH  10  21
HETATM   21  C17 UNL     1      24.321   3.332  49.639  1.00  0.00     0.125 C 
BRANCH  21  22
HETATM   22  C18 UNL     1      24.178   4.636  48.920  1.00  0.00     0.050 C 
BRANCH  22  23
HETATM   23  C19 UNL     1      25.405   5.481  49.194  1.00  0.00     0.277 C 
BRANCH  23  24
HETATM   24  N2  UNL     1      25.115   6.853  49.009  1.00  0.00     0.116 N 
HETATM   25  C20 UNL     1      26.197   7.738  49.275  1.00  0.00     0.379 C 
HETATM   26  N3  UNL     1      26.338   7.640  50.719  1.00  0.00    -0.233 NA
HETATM   27  N4  UNL     1      25.056   7.331  51.212  1.00  0.00    -0.233 NA
HETATM   28  H25 UNL     1      27.061   6.958  51.019  1.00  0.00     0.142 HD
HETATM   29  C21 UNL     1      24.172   7.239  50.069  1.00  0.00     0.379 C 
HETATM   30  H26 UNL     1      25.058   6.424  51.750  1.00  0.00     0.142 HD
ENDBRANCH  23  24
ENDBRANCH  22  23
ENDBRANCH  21  22
ENDBRANCH  10  21
TORSDOF 8
ENDMDL
MODEL 3
REMARK VINA RESULT:      -7.8      1.596      4.985
REMARK  8 active torsions:
REMARK  status: ('A' for Active; 'I' for Inactive)
REMARK    1  A    between atoms: S1_1  and  O1_2 
REMARK    2  A    between atoms: O1_2  and  C1_3 
REMARK    3  A    between atoms: C6_8  and  C7_9 
REMARK    4  A    between atoms: C7_9  and  C8_10 
REMARK    5  A    between atoms: N1_19  and  C17_20 
REMARK    6  A    between atoms: C17_20  and  C18_21 
REMARK    7  A    between atoms: C18_21  and  C19_22 
REMARK    8  A    between atoms: C19_22  and  N2_23 
ROOT
HETATM    1  C8  UNL     1      24.315   2.414  52.472  1.00  0.00     0.089 C 
HETATM    2  C9  UNL     1      24.007   3.516  53.461  1.00  0.00     0.030 C 
HETATM    3  C10 UNL     1      23.550   4.791  52.878  1.00  0.00     0.043 C 
HETATM    4  C11 UNL     1      23.639   4.948  51.417  1.00  0.00    -0.032 A 
HETATM    5  C12 UNL     1      22.976   5.932  50.699  1.00  0.00     0.009 A 
HETATM    6  C13 UNL     1      23.123   5.995  49.316  1.00  0.00     0.001 A 
HETATM    7  C14 UNL     1      23.909   5.115  48.594  1.00  0.00     0.002 A 
HETATM    8  C15 UNL     1      24.598   4.106  49.265  1.00  0.00     0.030 A 
HETATM    9  C16 UNL     1      24.408   4.099  50.654  1.00  0.00     0.036 A 
HETATM   10  N1  UNL     1      25.087   3.104  51.407  1.00  0.00    -0.375 N 
ENDROOT
BRANCH   1  11
HETATM   11  C7  UNL     1      23.018   1.874  51.961  1.00  0.00     0.066 C 
BRANCH  11  12
HETATM   12  C6  UNL     1      22.411   0.825  52.806  1.00  0.00    -0.022 A 
HETATM   13  C1  UNL     1      21.032   0.976  52.994  1.00  0.00     0.090 A 
HETATM   14  C2  UNL     1      20.366   0.029  53.782  1.00  0.00     0.038 A 
HETATM   15  C3  UNL     1      21.013  -1.053  54.385  1.00  0.00     0.003 A 
HETATM   16  C4  UNL     1      22.364  -1.129  54.151  1.00  0.00     0.001 A 
HETATM   17  C5  UNL     1      23.086  -0.232  53.385  1.00  0.00     0.010 A 
BRANCH  13  18
HETATM   18  O1  UNL     1      20.317   1.911  52.504  1.00  0.00    -0.282 OA
BRANCH  18  19
HETATM   19  S1  UNL     1      19.332   2.941  51.764  1.00  0.00    -0.017 SA
HETATM   20  H1  UNL     1      19.956   4.169  51.429  1.00  0.00     0.134 HD
ENDBRANCH  18  19
ENDBRANCH  13  18
ENDBRANCH  11  12
ENDBRANCH   1  11
BRANCH  10  21
HETATM   21  C17 UNL     1      26.440   2.716  51.151  1.00  0.00     0.125 C 
BRANCH  21  22
HETATM   22  C18 UNL     1      26.845   1.329  51.543  1.00  0.00     0.050 C 
BRANCH  22  23
HETATM   23  C19 UNL     1      27.590   1.393  52.860  1.00  0.00     0.277 C 
BRANCH  23  24
HETATM   24  N2  UNL     1      28.256   0.172  53.114  1.00  0.00     0.116 N 
HETATM   25  C20 UNL     1      27.448  -0.992  52.990  1.00  0.00     0.379 C 
HETATM   26  N3  UNL     1      26.554  -0.880  54.131  1.00  0.00    -0.233 NA
HETATM   27  N4  UNL     1      27.269  -0.168  55.113  1.00  0.00    -0.233 NA
HETATM   28  H25 UNL     1      25.641  -0.443  53.901  1.00  0.00     0.142 HD
HETATM   29  C21 UNL     1      28.568   0.143  54.551  1.00  0.00     0.379 C 
HETATM   30  H26 UNL     1      26.767   0.717  55.391  1.00  0.00     0.142 HD
ENDBRANCH  23  24
ENDBRANCH  22  23
ENDBRANCH  21  22
ENDBRANCH  10  21
TORSDOF 8
ENDMDL
MODEL 4
REMARK VINA RESULT:      -7.7      3.555      6.187
REMARK  8 active torsions:
REMARK  status: ('A' for Active; 'I' for Inactive)
REMARK    1  A    between atoms: S1_1  and  O1_2 
REMARK    2  A    between atoms: O1_2  and  C1_3 
REMARK    3  A    between atoms: C6_8  and  C7_9 
REMARK    4  A    between atoms: C7_9  and  C8_10 
REMARK    5  A    between atoms: N1_19  and  C17_20 
REMARK    6  A    between atoms: C17_20  and  C18_21 
REMARK    7  A    between atoms: C18_21  and  C19_22 
REMARK    8  A    between atoms: C19_22  and  N2_23 
ROOT
HETATM    1  C8  UNL     1      24.854   3.175  51.407  1.00  0.00     0.089 C 
HETATM    2  C9  UNL     1      23.886   3.364  52.553  1.00  0.00     0.030 C 
HETATM    3  C10 UNL     1      22.539   2.799  52.354  1.00  0.00     0.043 C 
HETATM    4  C11 UNL     1      22.194   2.305  51.011  1.00  0.00    -0.032 A 
HETATM    5  C12 UNL     1      21.114   1.478  50.740  1.00  0.00     0.009 A 
HETATM    6  C13 UNL     1      20.874   1.062  49.433  1.00  0.00     0.001 A 
HETATM    7  C14 UNL     1      21.664   1.431  48.360  1.00  0.00     0.002 A 
HETATM    8  C15 UNL     1      22.763   2.262  48.574  1.00  0.00     0.030 A 
HETATM    9  C16 UNL     1      22.949   2.645  49.910  1.00  0.00     0.036 A 
HETATM   10  N1  UNL     1      24.044   3.500  50.206  1.00  0.00    -0.375 N 
ENDROOT
BRANCH   1  11
HETATM   11  C7  UNL     1      25.303   1.748  51.409  1.00  0.00     0.066 C 
BRANCH  11  12
HETATM   12  C6  UNL     1      26.282   1.411  52.463  1.00  0.00    -0.022 A 
HETATM   13  C1  UNL     1      25.819   0.466  53.387  1.00  0.00     0.090 A 
HETATM   14  C2  UNL     1      26.677   0.083  54.424  1.00  0.00     0.038 A 
HETATM   15  C3  UNL     1      27.966   0.598  54.578  1.00  0.00     0.003 A 
HETATM   16  C4  UNL     1      28.344   1.518  53.631  1.00  0.00     0.001 A 
HETATM   17  C5  UNL     1      27.551   1.943  52.581  1.00  0.00     0.010 A 
BRANCH  13  18
HETATM   18  O1  UNL     1      24.669  -0.084  53.367  1.00  0.00    -0.282 OA
BRANCH  18  19
HETATM   19  S1  UNL     1      23.183  -0.675  53.521  1.00  0.00    -0.017 SA
HETATM   20  H1  UNL     1      22.425  -0.603  52.327  1.00  0.00     0.134 HD
ENDBRANCH  18  19
ENDBRANCH  13  18
ENDBRANCH  11  12
ENDBRANCH   1  11
BRANCH  10  21
HETATM   21  C17 UNL     1      24.418   4.607  49.379  1.00  0.00     0.125 C 
BRANCH  21  22
HETATM   22  C18 UNL     1      25.740   5.253  49.650  1.00  0.00     0.050 C 
BRANCH  22  23
HETATM   23  C19 UNL     1      25.500   6.655  50.170  1.00  0.00     0.277 C 
BRANCH  23  24
HETATM   24  N2  UNL     1      25.903   7.615  49.214  1.00  0.00     0.116 N 
HETATM   25  C20 UNL     1      27.272   7.996  49.282  1.00  0.00     0.379 C 
HETATM   26  N3  UNL     1      27.330   8.748  50.525  1.00  0.00    -0.233 NA
HETATM   27  N4  UNL     1      26.049   9.307  50.697  1.00  0.00    -0.233 NA
HETATM   28  H25 UNL     1      27.636   8.181  51.339  1.00  0.00     0.142 HD
HETATM   29  C21 UNL     1      25.244   8.880  49.571  1.00  0.00     0.379 C 
HETATM   30  H26 UNL     1      25.611   8.994  51.603  1.00  0.00     0.142 HD
ENDBRANCH  23  24
ENDBRANCH  22  23
ENDBRANCH  21  22
ENDBRANCH  10  21
TORSDOF 8
ENDMDL
MODEL 5
REMARK VINA RESULT:      -7.6      1.967      4.713
REMARK  8 active torsions:
REMARK  status: ('A' for Active; 'I' for Inactive)
REMARK    1  A    between atoms: S1_1  and  O1_2 
REMARK    2  A    between atoms: O1_2  and  C1_3 
REMARK    3  A    between atoms: C6_8  and  C7_9 
REMARK    4  A    between atoms: C7_9  and  C8_10 
REMARK    5  A    between atoms: N1_19  and  C17_20 
REMARK    6  A    between atoms: C17_20  and  C18_21 
REMARK    7  A    between atoms: C18_21  and  C19_22 
REMARK    8  A    between atoms: C19_22  and  N2_23 
ROOT
HETATM    1  C8  UNL     1      23.524   2.031  52.429  1.00  0.00     0.089 C 
HETATM    2  C9  UNL     1      22.798   3.343  52.628  1.00  0.00     0.030 C 
HETATM    3  C10 UNL     1      23.220   4.449  51.749  1.00  0.00     0.043 C 
HETATM    4  C11 UNL     1      24.425   4.251  50.929  1.00  0.00    -0.032 A 
HETATM    5  C12 UNL     1      24.768   5.046  49.845  1.00  0.00     0.009 A 
HETATM    6  C13 UNL     1      25.930   4.773  49.128  1.00  0.00     0.001 A 
HETATM    7  C14 UNL     1      26.787   3.734  49.437  1.00  0.00     0.002 A 
HETATM    8  C15 UNL     1      26.492   2.902  50.517  1.00  0.00     0.030 A 
HETATM    9  C16 UNL     1      25.311   3.230  51.195  1.00  0.00     0.036 A 
HETATM   10  N1  UNL     1      24.948   2.433  52.314  1.00  0.00    -0.375 N 
ENDROOT
BRANCH   1  11
HETATM   11  C7  UNL     1      23.015   1.407  51.168  1.00  0.00     0.066 C 
BRANCH  11  12
HETATM   12  C6  UNL     1      21.593   1.010  51.207  1.00  0.00    -0.022 A 
HETATM   13  C1  UNL     1      20.846   1.471  50.116  1.00  0.00     0.090 A 
HETATM   14  C2  UNL     1      19.486   1.145  50.064  1.00  0.00     0.038 A 
HETATM   15  C3  UNL     1      18.844   0.386  51.045  1.00  0.00     0.003 A 
HETATM   16  C4  UNL     1      19.647  -0.027  52.081  1.00  0.00     0.001 A 
HETATM   17  C5  UNL     1      20.995   0.257  52.198  1.00  0.00     0.010 A 
BRANCH  13  18
HETATM   18  O1  UNL     1      21.301   2.170  49.152  1.00  0.00    -0.282 OA
BRANCH  18  19
HETATM   19  S1  UNL     1      21.682   3.034  47.852  1.00  0.00    -0.017 SA
HETATM   20  H1  UNL     1      22.378   2.288  46.869  1.00  0.00     0.134 HD
ENDBRANCH  18  19
ENDBRANCH  13  18
ENDBRANCH  11  12
ENDBRANCH   1  11
BRANCH  10  21
HETATM   21  C17 UNL     1      25.893   1.971  53.284  1.00  0.00     0.125 C 
BRANCH  21  22
HETATM   22  C18 UNL     1      26.051   0.492  53.442  1.00  0.00     0.050 C 
BRANCH  22  23
HETATM   23  C19 UNL     1      27.423   0.092  52.939  1.00  0.00     0.277 C 
BRANCH  23  24
HETATM   24  N2  UNL     1      28.197  -0.455  53.988  1.00  0.00     0.116 N 
HETATM   25  C20 UNL     1      28.633   0.481  54.967  1.00  0.00     0.379 C 
HETATM   26  N3  UNL     1      29.612   1.270  54.235  1.00  0.00    -0.233 NA
HETATM   27  N4  UNL     1      30.146   0.410  53.256  1.00  0.00    -0.233 NA
HETATM   28  H25 UNL     1      29.223   2.145  53.835  1.00  0.00     0.142 HD
HETATM   29  C21 UNL     1      29.482  -0.868  53.404  1.00  0.00     0.379 C 
HETATM   30  H26 UNL     1      29.996   0.792  52.284  1.00  0.00     0.142 HD
ENDBRANCH  23  24
ENDBRANCH  22  23
ENDBRANCH  21  22
ENDBRANCH  10  21
TORSDOF 8
ENDMDL
MODEL 6
REMARK VINA RESULT:      -7.4      3.338      6.153
REMARK  8 active torsions:
REMARK  status: ('A' for Active; 'I' for Inactive)
REMARK    1  A    between atoms: S1_1  and  O1_2 
REMARK    2  A    between atoms: O1_2  and  C1_3 
REMARK    3  A    between atoms: C6_8  and  C7_9 
REMARK    4  A    between atoms: C7_9  and  C8_10 
REMARK    5  A    between atoms: N1_19  and  C17_20 
REMARK    6  A    between atoms: C17_20  and  C18_21 
REMARK    7  A    between atoms: C18_21  and  C19_22 
REMARK    8  A    between atoms: C19_22  and  N2_23 
ROOT
HETATM    1  C8  UNL     1      22.924   1.666  52.799  1.00  0.00     0.089 C 
HETATM    2  C9  UNL     1      21.466   1.267  52.854  1.00  0.00     0.030 C 
HETATM    3  C10 UNL     1      20.793   1.119  51.551  1.00  0.00     0.043 C 
HETATM    4  C11 UNL     1      21.515   1.571  50.351  1.00  0.00    -0.032 A 
HETATM    5  C12 UNL     1      21.165   1.221  49.055  1.00  0.00     0.009 A 
HETATM    6  C13 UNL     1      21.916   1.698  47.984  1.00  0.00     0.001 A 
HETATM    7  C14 UNL     1      23.017   2.521  48.134  1.00  0.00     0.002 A 
HETATM    8  C15 UNL     1      23.415   2.904  49.415  1.00  0.00     0.030 A 
HETATM    9  C16 UNL     1      22.617   2.391  50.447  1.00  0.00     0.036 A 
HETATM   10  N1  UNL     1      22.955   2.745  51.780  1.00  0.00    -0.375 N 
ENDROOT
BRANCH   1  11
HETATM   11  C7  UNL     1      23.716   0.471  52.371  1.00  0.00     0.066 C 
BRANCH  11  12
HETATM   12  C6  UNL     1      25.134   0.491  52.781  1.00  0.00    -0.022 A 
HETATM   13  C1  UNL     1      25.383  -0.163  53.995  1.00  0.00     0.090 A 
HETATM   14  C2  UNL     1      26.700  -0.196  54.468  1.00  0.00     0.038 A 
HETATM   15  C3  UNL     1      27.770   0.390  53.788  1.00  0.00     0.003 A 
HETATM   16  C4  UNL     1      27.443   1.010  52.607  1.00  0.00     0.001 A 
HETATM   17  C5  UNL     1      26.166   1.083  52.080  1.00  0.00     0.010 A 
BRANCH  13  18
HETATM   18  O1  UNL     1      24.504  -0.739  54.717  1.00  0.00    -0.282 OA
BRANCH  18  19
HETATM   19  S1  UNL     1      23.267  -1.441  55.462  1.00  0.00    -0.017 SA
HETATM   20  H1  UNL     1      23.595  -2.696  56.031  1.00  0.00     0.134 HD
ENDBRANCH  18  19
ENDBRANCH  13  18
ENDBRANCH  11  12
ENDBRANCH   1  11
BRANCH  10  21
HETATM   21  C17 UNL     1      23.362   4.064  52.160  1.00  0.00     0.125 C 
BRANCH  21  22
HETATM   22  C18 UNL     1      22.624   5.215  51.553  1.00  0.00     0.050 C 
BRANCH  22  23
HETATM   23  C19 UNL     1      23.551   6.411  51.493  1.00  0.00     0.277 C 
BRANCH  23  24
HETATM   24  N2  UNL     1      24.056   6.584  50.184  1.00  0.00     0.116 N 
HETATM   25  C20 UNL     1      25.443   6.312  50.032  1.00  0.00     0.379 C 
HETATM   26  N3  UNL     1      26.062   7.413  50.754  1.00  0.00    -0.233 NA
HETATM   27  N4  UNL     1      25.161   8.491  50.659  1.00  0.00    -0.233 NA
HETATM   28  H25 UNL     1      26.310   7.179  51.734  1.00  0.00     0.142 HD
HETATM   29  C21 UNL     1      24.020   8.026  49.897  1.00  0.00     0.379 C 
HETATM   30  H26 UNL     1      24.856   8.824  51.612  1.00  0.00     0.142 HD
ENDBRANCH  23  24
ENDBRANCH  22  23
ENDBRANCH  21  22
ENDBRANCH  10  21
TORSDOF 8
ENDMDL
MODEL 7
REMARK VINA RESULT:      -7.1      2.648      5.236
REMARK  8 active torsions:
REMARK  status: ('A' for Active; 'I' for Inactive)
REMARK    1  A    between atoms: S1_1  and  O1_2 
REMARK    2  A    between atoms: O1_2  and  C1_3 
REMARK    3  A    between atoms: C6_8  and  C7_9 
REMARK    4  A    between atoms: C7_9  and  C8_10 
REMARK    5  A    between atoms: N1_19  and  C17_20 
REMARK    6  A    between atoms: C17_20  and  C18_21 
REMARK    7  A    between atoms: C18_21  and  C19_22 
REMARK    8  A    between atoms: C19_22  and  N2_23 
ROOT
HETATM    1  C8  UNL     1      24.106   2.763  50.683  1.00  0.00     0.089 C 
HETATM    2  C9  UNL     1      23.549   3.878  51.541  1.00  0.00     0.030 C 
HETATM    3  C10 UNL     1      24.049   5.231  51.238  1.00  0.00     0.043 C 
HETATM    4  C11 UNL     1      25.177   5.351  50.300  1.00  0.00    -0.032 A 
HETATM    5  C12 UNL     1      25.550   6.535  49.680  1.00  0.00     0.009 A 
HETATM    6  C13 UNL     1      26.632   6.544  48.803  1.00  0.00     0.001 A 
HETATM    7  C14 UNL     1      27.378   5.419  48.505  1.00  0.00     0.002 A 
HETATM    8  C15 UNL     1      27.047   4.202  49.099  1.00  0.00     0.030 A 
HETATM    9  C16 UNL     1      25.951   4.261  49.970  1.00  0.00     0.036 A 
HETATM   10  N1  UNL     1      25.560   3.061  50.622  1.00  0.00    -0.375 N 
ENDROOT
BRANCH   1  11
HETATM   11  C7  UNL     1      23.461   2.849  49.336  1.00  0.00     0.066 C 
BRANCH  11  12
HETATM   12  C6  UNL     1      22.025   2.504  49.318  1.00  0.00    -0.022 A 
HETATM   13  C1  UNL     1      21.205   3.513  48.798  1.00  0.00     0.090 A 
HETATM   14  C2  UNL     1      19.826   3.279  48.739  1.00  0.00     0.038 A 
HETATM   15  C3  UNL     1      19.235   2.090  49.175  1.00  0.00     0.003 A 
HETATM   16  C4  UNL     1      20.107   1.152  49.670  1.00  0.00     0.001 A 
HETATM   17  C5  UNL     1      21.478   1.314  49.758  1.00  0.00     0.010 A 
BRANCH  13  18
HETATM   18  O1  UNL     1      21.609   4.643  48.366  1.00  0.00    -0.282 OA
BRANCH  18  19
HETATM   19  S1  UNL     1      22.101   6.132  48.021  1.00  0.00    -0.017 SA
HETATM   20  H1  UNL     1      23.506   6.236  47.868  1.00  0.00     0.134 HD
ENDBRANCH  18  19
ENDBRANCH  13  18
ENDBRANCH  11  12
ENDBRANCH   1  11
BRANCH  10  21
HETATM   21  C17 UNL     1      26.496   2.124  51.164  1.00  0.00     0.125 C 
BRANCH  21  22
HETATM   22  C18 UNL     1      27.053   2.415  52.522  1.00  0.00     0.050 C 
BRANCH  22  23
HETATM   23  C19 UNL     1      27.983   1.287  52.919  1.00  0.00     0.277 C 
BRANCH  23  24
HETATM   24  N2  UNL     1      27.530   0.664  54.104  1.00  0.00     0.116 N 
HETATM   25  C20 UNL     1      28.543   0.033  54.878  1.00  0.00     0.379 C 
HETATM   26  N3  UNL     1      28.914  -1.103  54.050  1.00  0.00    -0.233 NA
HETATM   27  N4  UNL     1      27.761  -1.435  53.312  1.00  0.00    -0.233 NA
HETATM   28  H25 UNL     1      29.740  -0.924  53.447  1.00  0.00     0.142 HD
HETATM   29  C21 UNL     1      26.725  -0.498  53.698  1.00  0.00     0.379 C 
HETATM   30  H26 UNL     1      27.938  -1.382  52.275  1.00  0.00     0.142 HD
ENDBRANCH  23  24
ENDBRANCH  22  23
ENDBRANCH  21  22
ENDBRANCH  10  21
TORSDOF 8
ENDMDL
MODEL 8
REMARK VINA RESULT:      -7.1      3.268      6.506
REMARK  8 active torsions:
REMARK  status: ('A' for Active; 'I' for Inactive)
REMARK    1  A    between atoms: S1_1  and  O1_2 
REMARK    2  A    between atoms: O1_2  and  C1_3 
REMARK    3  A    between atoms: C6_8  and  C7_9 
REMARK    4  A    between atoms: C7_9  and  C8_10 
REMARK    5  A    between atoms: N1_19  and  C17_20 
REMARK    6  A    between atoms: C17_20  and  C18_21 
REMARK    7  A    between atoms: C18_21  and  C19_22 
REMARK    8  A    between atoms: C19_22  and  N2_23 
ROOT
HETATM    1  C8  UNL     1      23.784   3.618  51.837  1.00  0.00     0.089 C 
HETATM    2  C9  UNL     1      22.835   4.710  52.277  1.00  0.00     0.030 C 
HETATM    3  C10 UNL     1      21.420   4.316  52.405  1.00  0.00     0.043 C 
HETATM    4  C11 UNL     1      21.029   2.990  51.900  1.00  0.00    -0.032 A 
HETATM    5  C12 UNL     1      19.838   2.356  52.222  1.00  0.00     0.009 A 
HETATM    6  C13 UNL     1      19.561   1.098  51.694  1.00  0.00     0.001 A 
HETATM    7  C14 UNL     1      20.420   0.423  50.846  1.00  0.00     0.002 A 
HETATM    8  C15 UNL     1      21.632   1.014  50.489  1.00  0.00     0.030 A 
HETATM    9  C16 UNL     1      21.849   2.279  51.053  1.00  0.00     0.036 A 
HETATM   10  N1  UNL     1      23.058   2.948  50.728  1.00  0.00    -0.375 N 
ENDROOT
BRANCH   1  11
HETATM   11  C7  UNL     1      24.003   2.699  52.997  1.00  0.00     0.066 C 
BRANCH  11  12
HETATM   12  C6  UNL     1      24.981   1.620  52.753  1.00  0.00    -0.022 A 
HETATM   13  C1  UNL     1      24.549   0.357  53.176  1.00  0.00     0.090 A 
HETATM   14  C2  UNL     1      25.409  -0.732  52.987  1.00  0.00     0.038 A 
HETATM   15  C3  UNL     1      26.670  -0.615  52.399  1.00  0.00     0.003 A 
HETATM   16  C4  UNL     1      27.018   0.656  52.011  1.00  0.00     0.001 A 
HETATM   17  C5  UNL     1      26.222   1.776  52.167  1.00  0.00     0.010 A 
BRANCH  13  18
HETATM   18  O1  UNL     1      23.426   0.106  53.725  1.00  0.00    -0.282 OA
BRANCH  18  19
HETATM   19  S1  UNL     1      21.974  -0.335  54.251  1.00  0.00    -0.017 SA
HETATM   20  H1  UNL     1      20.913   0.339  53.596  1.00  0.00     0.134 HD
ENDBRANCH  18  19
ENDBRANCH  13  18
ENDBRANCH  11  12
ENDBRANCH   1  11
BRANCH  10  21
HETATM   21  C17 UNL     1      23.617   2.958  49.410  1.00  0.00     0.125 C 
BRANCH  21  22
HETATM   22  C18 UNL     1      23.117   3.997  48.457  1.00  0.00     0.050 C 
BRANCH  22  23
HETATM   23  C19 UNL     1      22.054   3.377  47.575  1.00  0.00     0.277 C 
BRANCH  23  24
HETATM   24  N2  UNL     1      20.992   4.286  47.362  1.00  0.00     0.116 N 
HETATM   25  C20 UNL     1      20.148   4.500  48.487  1.00  0.00     0.379 C 
HETATM   26  N3  UNL     1      19.452   3.228  48.606  1.00  0.00    -0.233 NA
HETATM   27  N4  UNL     1      19.393   2.696  47.304  1.00  0.00    -0.233 NA
HETATM   28  H25 UNL     1      19.889   2.579  49.288  1.00  0.00     0.142 HD
HETATM   29  C21 UNL     1      20.055   3.642  46.428  1.00  0.00     0.379 C 
HETATM   30  H26 UNL     1      19.862   1.754  47.250  1.00  0.00     0.142 HD
ENDBRANCH  23  24
ENDBRANCH  22  23
ENDBRANCH  21  22
ENDBRANCH  10  21
TORSDOF 8
ENDMDL
MODEL 9
REMARK VINA RESULT:      -7.0      3.867      7.629
REMARK  8 active torsions:
REMARK  status: ('A' for Active; 'I' for Inactive)
REMARK    1  A    between atoms: S1_1  and  O1_2 
REMARK    2  A    between atoms: O1_2  and  C1_3 
REMARK    3  A    between atoms: C6_8  and  C7_9 
REMARK    4  A    between atoms: C7_9  and  C8_10 
REMARK    5  A    between atoms: N1_19  and  C17_20 
REMARK    6  A    between atoms: C17_20  and  C18_21 
REMARK    7  A    between atoms: C18_21  and  C19_22 
REMARK    8  A    between atoms: C19_22  and  N2_23 
ROOT
HETATM    1  C8  UNL     1      22.040   2.263  50.950  1.00  0.00     0.089 C 
HETATM    2  C9  UNL     1      22.310   1.959  49.493  1.00  0.00     0.030 C 
HETATM    3  C10 UNL     1      23.272   2.850  48.819  1.00  0.00     0.043 C 
HETATM    4  C11 UNL     1      23.710   4.057  49.540  1.00  0.00    -0.032 A 
HETATM    5  C12 UNL     1      24.820   4.811  49.190  1.00  0.00     0.009 A 
HETATM    6  C13 UNL     1      25.153   5.937  49.940  1.00  0.00     0.001 A 
HETATM    7  C14 UNL     1      24.429   6.360  51.039  1.00  0.00     0.002 A 
HETATM    8  C15 UNL     1      23.304   5.639  51.435  1.00  0.00     0.030 A 
HETATM    9  C16 UNL     1      23.023   4.520  50.640  1.00  0.00     0.036 A 
HETATM   10  N1  UNL     1      21.884   3.740  50.977  1.00  0.00    -0.375 N 
ENDROOT
BRANCH   1  11
HETATM   11  C7  UNL     1      23.224   1.812  51.744  1.00  0.00     0.066 C 
BRANCH  11  12
HETATM   12  C6  UNL     1      22.913   0.856  52.826  1.00  0.00    -0.022 A 
HETATM   13  C1  UNL     1      24.010   0.090  53.240  1.00  0.00     0.090 A 
HETATM   14  C2  UNL     1      23.813  -0.846  54.262  1.00  0.00     0.038 A 
HETATM   15  C3  UNL     1      22.578  -1.049  54.883  1.00  0.00     0.003 A 
HETATM   16  C4  UNL     1      21.555  -0.258  54.421  1.00  0.00     0.001 A 
HETATM   17  C5  UNL     1      21.676   0.684  53.417  1.00  0.00     0.010 A 
BRANCH  13  18
HETATM   18  O1  UNL     1      25.189   0.171  52.762  1.00  0.00    -0.282 OA
BRANCH  18  19
HETATM   19  S1  UNL     1      26.742   0.253  52.359  1.00  0.00    -0.017 SA
HETATM   20  H1  UNL     1      26.951   0.427  50.969  1.00  0.00     0.134 HD
ENDBRANCH  18  19
ENDBRANCH  13  18
ENDBRANCH  11  12
ENDBRANCH   1  11
BRANCH  10  21
HETATM   21  C17 UNL     1      20.636   4.311  51.381  1.00  0.00     0.125 C 
BRANCH  21  22
HETATM   22  C18 UNL     1      19.617   3.390  51.975  1.00  0.00     0.050 C 
BRANCH  22  23
HETATM   23  C19 UNL     1      18.428   3.312  51.041  1.00  0.00     0.277 C 
BRANCH  23  24
HETATM   24  N2  UNL     1      17.771   2.067  51.176  1.00  0.00     0.116 N 
HETATM   25  C20 UNL     1      18.573   0.928  50.886  1.00  0.00     0.379 C 
HETATM   26  N3  UNL     1      18.758   1.030  49.447  1.00  0.00    -0.233 NA
HETATM   27  N4  UNL     1      17.617   1.694  48.957  1.00  0.00    -0.233 NA
HETATM   28  H25 UNL     1      19.645   1.496  49.175  1.00  0.00     0.142 HD
HETATM   29  C21 UNL     1      16.774   1.988  50.098  1.00  0.00     0.379 C 
HETATM   30  H26 UNL     1      17.875   2.582  48.452  1.00  0.00     0.142 HD
ENDBRANCH  23  24
ENDBRANCH  22  23
ENDBRANCH  21  22
ENDBRANCH  10  21
TORSDOF 8
ENDMDL
