MODEL 1
REMARK VINA RESULT:      -8.2      0.000      0.000
REMARK  6 active torsions:
REMARK  status: ('A' for Active; 'I' for Inactive)
REMARK    1  A    between atoms: C2_2  and  C3_3 
REMARK    2  A    between atoms: C3_3  and  C4_4 
REMARK    3  A    between atoms: C4_4  and  C5_5 
REMARK    4  A    between atoms: C5_5  and  C6_6 
REMARK    5  A    between atoms: C11_11  and  O1_12 
REMARK    6  A    between atoms: N3_16  and  C13_17 
ROOT
HETATM    1  C6  UNL     1      21.554   0.590  52.112  1.00  0.00    -0.023 A 
HETATM    2  C7  UNL     1      22.909   0.794  52.328  1.00  0.00     0.025 A 
HETATM    3  C8  UNL     1      23.517   0.175  53.386  1.00  0.00     0.011 A 
HETATM    4  C9  UNL     1      22.785  -0.641  54.224  1.00  0.00     0.072 A 
HETATM    5  C10 UNL     1      21.436  -0.849  54.016  1.00  0.00     0.069 A 
HETATM    6  C11 UNL     1      20.812  -0.230  52.954  1.00  0.00     0.074 A 
HETATM    7  N1  UNL     1      23.164  -1.303  55.257  1.00  0.00    -0.239 NA
HETATM    8  C12 UNL     1      24.427  -1.419  55.877  1.00  0.00     0.256 A 
HETATM    9  N2  UNL     1      25.534  -0.847  55.501  1.00  0.00    -0.161 NA
HETATM   10  N3  UNL     1      25.726   0.010  54.407  1.00  0.00    -0.245 N 
HETATM   11  C18 UNL     1      24.805   0.494  53.420  1.00  0.00     0.132 A 
ENDROOT
BRANCH  10  12
HETATM   12  C13 UNL     1      27.048   0.499  54.216  1.00  0.00     0.057 A 
HETATM   13  C14 UNL     1      26.979   1.735  53.734  1.00  0.00     0.029 A 
HETATM   14  C15 UNL     1      28.337   2.225  53.543  1.00  0.00    -0.000 A 
HETATM   15  C16 UNL     1      29.210   1.279  53.910  1.00  0.00    -0.001 A 
HETATM   16  C17 UNL     1      28.455   0.099  54.370  1.00  0.00     0.157 A 
HETATM   17 CL1  UNL     1      28.890  -1.292  53.328  1.00  0.00    -0.114 Cl
ENDBRANCH  10  12
BRANCH   1  18
HETATM   18  C5  UNL     1      20.753   1.203  50.993  1.00  0.00     0.059 C 
BRANCH  18  19
HETATM   19  C4  UNL     1      21.250   0.636  49.754  1.00  0.00     0.071 C 
BRANCH  19  20
HETATM   20  C3  UNL     1      21.869   1.412  48.879  1.00  0.00    -0.171 C 
BRANCH  20  21
HETATM   21  C2  UNL     1      22.545   2.357  48.236  1.00  0.00     0.062 C 
HETATM   22  C1  UNL     1      23.544   3.099  49.051  1.00  0.00     0.023 C 
ENDBRANCH  20  21
ENDBRANCH  19  20
ENDBRANCH  18  19
ENDBRANCH   1  18
BRANCH   6  23
HETATM   23  O1  UNL     1      19.460  -0.461  52.774  1.00  0.00    -0.360 OA
HETATM   24  H10 UNL     1      18.735  -0.158  53.399  1.00  0.00     0.217 HD
ENDBRANCH   6  23
TORSDOF 6
ENDMDL
MODEL 2
REMARK VINA RESULT:      -8.0      3.820      6.205
REMARK  6 active torsions:
REMARK  status: ('A' for Active; 'I' for Inactive)
REMARK    1  A    between atoms: C2_2  and  C3_3 
REMARK    2  A    between atoms: C3_3  and  C4_4 
REMARK    3  A    between atoms: C4_4  and  C5_5 
REMARK    4  A    between atoms: C5_5  and  C6_6 
REMARK    5  A    between atoms: C11_11  and  O1_12 
REMARK    6  A    between atoms: N3_16  and  C13_17 
ROOT
HETATM    1  C6  UNL     1      24.974   0.195  53.033  1.00  0.00    -0.023 A 
HETATM    2  C7  UNL     1      25.509   1.183  52.221  1.00  0.00     0.025 A 
HETATM    3  C8  UNL     1      24.685   2.153  51.718  1.00  0.00     0.011 A 
HETATM    4  C9  UNL     1      23.339   2.141  52.020  1.00  0.00     0.072 A 
HETATM    5  C10 UNL     1      22.798   1.161  52.828  1.00  0.00     0.069 A 
HETATM    6  C11 UNL     1      23.619   0.178  53.340  1.00  0.00     0.074 A 
HETATM    7  N1  UNL     1      22.411   2.950  51.652  1.00  0.00    -0.239 NA
HETATM    8  C12 UNL     1      22.448   4.099  50.833  1.00  0.00     0.256 A 
HETATM    9  N2  UNL     1      23.495   4.605  50.250  1.00  0.00    -0.161 NA
HETATM   10  N3  UNL     1      24.815   4.132  50.299  1.00  0.00    -0.245 N 
HETATM   11  C18 UNL     1      25.383   2.999  50.971  1.00  0.00     0.132 A 
ENDROOT
BRANCH  10  12
HETATM   12  C13 UNL     1      25.778   4.881  49.568  1.00  0.00     0.057 A 
HETATM   13  C14 UNL     1      26.837   4.110  49.345  1.00  0.00     0.029 A 
HETATM   14  C15 UNL     1      27.816   4.886  48.597  1.00  0.00    -0.000 A 
HETATM   15  C16 UNL     1      27.339   6.117  48.379  1.00  0.00    -0.001 A 
HETATM   16  C17 UNL     1      25.997   6.212  48.983  1.00  0.00     0.157 A 
HETATM   17 CL1  UNL     1      26.024   7.509  50.218  1.00  0.00    -0.114 Cl
ENDBRANCH  10  12
BRANCH   1  18
HETATM   18  C5  UNL     1      25.756  -0.933  53.657  1.00  0.00     0.059 C 
BRANCH  18  19
HETATM   19  C4  UNL     1      26.781  -1.316  52.705  1.00  0.00     0.071 C 
BRANCH  19  20
HETATM   20  C3  UNL     1      28.056  -1.254  53.053  1.00  0.00    -0.171 C 
BRANCH  20  21
HETATM   21  C2  UNL     1      29.270  -0.914  53.470  1.00  0.00     0.062 C 
HETATM   22  C1  UNL     1      29.462   0.527  53.781  1.00  0.00     0.023 C 
ENDBRANCH  20  21
ENDBRANCH  19  20
ENDBRANCH  18  19
ENDBRANCH   1  18
BRANCH   6  23
HETATM   23  O1  UNL     1      23.044  -0.788  54.146  1.00  0.00    -0.360 OA
HETATM   24  H10 UNL     1      22.700  -0.634  55.077  1.00  0.00     0.217 HD
ENDBRANCH   6  23
TORSDOF 6
ENDMDL
MODEL 3
REMARK VINA RESULT:      -7.9      3.076      5.110
REMARK  6 active torsions:
REMARK  status: ('A' for Active; 'I' for Inactive)
REMARK    1  A    between atoms: C2_2  and  C3_3 
REMARK    2  A    between atoms: C3_3  and  C4_4 
REMARK    3  A    between atoms: C4_4  and  C5_5 
REMARK    4  A    between atoms: C5_5  and  C6_6 
REMARK    5  A    between atoms: C11_11  and  O1_12 
REMARK    6  A    between atoms: N3_16  and  C13_17 
ROOT
HETATM    1  C6  UNL     1      21.927   0.298  53.764  1.00  0.00    -0.023 A 
HETATM    2  C7  UNL     1      22.462   1.251  52.910  1.00  0.00     0.025 A 
HETATM    3  C8  UNL     1      23.793   1.194  52.595  1.00  0.00     0.011 A 
HETATM    4  C9  UNL     1      24.587   0.198  53.124  1.00  0.00     0.072 A 
HETATM    5  C10 UNL     1      24.062  -0.754  53.975  1.00  0.00     0.069 A 
HETATM    6  C11 UNL     1      22.723  -0.707  54.300  1.00  0.00     0.074 A 
HETATM    7  N1  UNL     1      25.840  -0.025  52.955  1.00  0.00    -0.239 NA
HETATM    8  C12 UNL     1      26.812   0.655  52.191  1.00  0.00     0.256 A 
HETATM    9  N2  UNL     1      26.623   1.710  51.453  1.00  0.00    -0.161 NA
HETATM   10  N3  UNL     1      25.424   2.409  51.250  1.00  0.00    -0.245 N 
HETATM   11  C18 UNL     1      24.107   2.186  51.771  1.00  0.00     0.132 A 
ENDROOT
BRANCH  10  12
HETATM   12  C13 UNL     1      25.493   3.536  50.385  1.00  0.00     0.057 A 
HETATM   13  C14 UNL     1      26.712   3.597  49.862  1.00  0.00     0.029 A 
HETATM   14  C15 UNL     1      26.771   4.753  48.979  1.00  0.00    -0.000 A 
HETATM   15  C16 UNL     1      25.587   5.378  48.979  1.00  0.00    -0.001 A 
HETATM   16  C17 UNL     1      24.674   4.649  49.879  1.00  0.00     0.157 A 
HETATM   17 CL1  UNL     1      24.153   5.764  51.180  1.00  0.00    -0.114 Cl
ENDBRANCH  10  12
BRANCH   1  18
HETATM   18  C5  UNL     1      20.486   0.234  54.198  1.00  0.00     0.059 C 
BRANCH  18  19
HETATM   19  C4  UNL     1      19.711  -0.170  53.041  1.00  0.00     0.071 C 
BRANCH  19  20
HETATM   20  C3  UNL     1      18.640  -0.931  53.201  1.00  0.00    -0.171 C 
BRANCH  20  21
HETATM   21  C2  UNL     1      17.556  -1.686  53.067  1.00  0.00     0.062 C 
HETATM   22  C1  UNL     1      17.638  -3.041  53.674  1.00  0.00     0.023 C 
ENDBRANCH  20  21
ENDBRANCH  19  20
ENDBRANCH  18  19
ENDBRANCH   1  18
BRANCH   6  23
HETATM   23  O1  UNL     1      22.231  -1.677  55.155  1.00  0.00    -0.360 OA
HETATM   24  H10 UNL     1      21.676  -1.499  55.972  1.00  0.00     0.217 HD
ENDBRANCH   6  23
TORSDOF 6
ENDMDL
MODEL 4
REMARK VINA RESULT:      -7.8      3.815      5.369
REMARK  6 active torsions:
REMARK  status: ('A' for Active; 'I' for Inactive)
REMARK    1  A    between atoms: C2_2  and  C3_3 
REMARK    2  A    between atoms: C3_3  and  C4_4 
REMARK    3  A    between atoms: C4_4  and  C5_5 
REMARK    4  A    between atoms: C5_5  and  C6_6 
REMARK    5  A    between atoms: C11_11  and  O1_12 
REMARK    6  A    between atoms: N3_16  and  C13_17 
ROOT
HETATM    1  C6  UNL     1      25.791   4.312  49.828  1.00  0.00    -0.023 A 
HETATM    2  C7  UNL     1      26.488   3.258  50.400  1.00  0.00     0.025 A 
HETATM    3  C8  UNL     1      25.810   2.340  51.155  1.00  0.00     0.011 A 
HETATM    4  C9  UNL     1      24.448   2.468  51.340  1.00  0.00     0.072 A 
HETATM    5  C10 UNL     1      23.747   3.514  50.775  1.00  0.00     0.069 A 
HETATM    6  C11 UNL     1      24.420   4.446  50.012  1.00  0.00     0.074 A 
HETATM    7  N1  UNL     1      23.640   1.723  52.005  1.00  0.00    -0.239 NA
HETATM    8  C12 UNL     1      23.860   0.550  52.757  1.00  0.00     0.256 A 
HETATM    9  N2  UNL     1      24.997  -0.057  52.938  1.00  0.00    -0.161 NA
HETATM   10  N3  UNL     1      26.254   0.312  52.434  1.00  0.00    -0.245 N 
HETATM   11  C18 UNL     1      26.648   1.418  51.610  1.00  0.00     0.132 A 
ENDROOT
BRANCH  10  12
HETATM   12  C13 UNL     1      27.343  -0.534  52.781  1.00  0.00     0.057 A 
HETATM   13  C14 UNL     1      27.004  -1.792  52.520  1.00  0.00     0.029 A 
HETATM   14  C15 UNL     1      28.125  -2.649  52.878  1.00  0.00    -0.000 A 
HETATM   15  C16 UNL     1      29.128  -1.899  53.354  1.00  0.00    -0.001 A 
HETATM   16  C17 UNL     1      28.707  -0.486  53.330  1.00  0.00     0.157 A 
HETATM   17 CL1  UNL     1      28.751   0.145  55.005  1.00  0.00    -0.114 Cl
ENDBRANCH  10  12
BRANCH   1  18
HETATM   18  C5  UNL     1      26.402   5.394  48.976  1.00  0.00     0.059 C 
BRANCH  18  19
HETATM   19  C4  UNL     1      27.715   4.928  48.573  1.00  0.00     0.071 C 
BRANCH  19  20
HETATM   20  C3  UNL     1      28.637   5.802  48.203  1.00  0.00    -0.171 C 
BRANCH  20  21
HETATM   21  C2  UNL     1      29.736   6.522  48.010  1.00  0.00     0.062 C 
HETATM   22  C1  UNL     1      30.960   5.749  47.672  1.00  0.00     0.023 C 
ENDBRANCH  20  21
ENDBRANCH  19  20
ENDBRANCH  18  19
ENDBRANCH   1  18
BRANCH   6  23
HETATM   23  O1  UNL     1      23.687   5.480  49.460  1.00  0.00    -0.360 OA
HETATM   24  H10 UNL     1      23.624   5.684  48.478  1.00  0.00     0.217 HD
ENDBRANCH   6  23
TORSDOF 6
ENDMDL
MODEL 5
REMARK VINA RESULT:      -7.7      3.557      6.805
REMARK  6 active torsions:
REMARK  status: ('A' for Active; 'I' for Inactive)
REMARK    1  A    between atoms: C2_2  and  C3_3 
REMARK    2  A    between atoms: C3_3  and  C4_4 
REMARK    3  A    between atoms: C4_4  and  C5_5 
REMARK    4  A    between atoms: C5_5  and  C6_6 
REMARK    5  A    between atoms: C11_11  and  O1_12 
REMARK    6  A    between atoms: N3_16  and  C13_17 
ROOT
HETATM    1  C6  UNL     1      23.719  -0.598  54.085  1.00  0.00    -0.023 A 
HETATM    2  C7  UNL     1      23.256   0.016  52.932  1.00  0.00     0.025 A 
HETATM    3  C8  UNL     1      21.914   0.007  52.663  1.00  0.00     0.011 A 
HETATM    4  C9  UNL     1      21.038  -0.607  53.534  1.00  0.00     0.072 A 
HETATM    5  C10 UNL     1      21.491  -1.221  54.684  1.00  0.00     0.069 A 
HETATM    6  C11 UNL     1      22.840  -1.219  54.966  1.00  0.00     0.074 A 
HETATM    7  N1  UNL     1      19.760  -0.724  53.462  1.00  0.00    -0.239 NA
HETATM    8  C12 UNL     1      18.837  -0.277  52.493  1.00  0.00     0.256 A 
HETATM    9  N2  UNL     1      19.109   0.389  51.409  1.00  0.00    -0.161 NA
HETATM   10  N3  UNL     1      20.368   0.811  50.956  1.00  0.00    -0.245 N 
HETATM   11  C18 UNL     1      21.675   0.642  51.522  1.00  0.00     0.132 A 
ENDROOT
BRANCH  10  12
HETATM   12  C13 UNL     1      20.386   1.533  49.731  1.00  0.00     0.057 A 
HETATM   13  C14 UNL     1      21.587   1.403  49.178  1.00  0.00     0.029 A 
HETATM   14  C15 UNL     1      21.593   2.145  47.925  1.00  0.00    -0.000 A 
HETATM   15  C16 UNL     1      20.397   2.716  47.736  1.00  0.00    -0.001 A 
HETATM   16  C17 UNL     1      19.529   2.369  48.876  1.00  0.00     0.157 A 
HETATM   17 CL1  UNL     1      19.026   3.886  49.684  1.00  0.00    -0.114 Cl
ENDBRANCH  10  12
BRANCH   1  18
HETATM   18  C5  UNL     1      25.162  -0.667  54.511  1.00  0.00     0.059 C 
BRANCH  18  19
HETATM   19  C4  UNL     1      25.964  -0.622  53.304  1.00  0.00     0.071 C 
BRANCH  19  20
HETATM   20  C3  UNL     1      27.274  -0.456  53.391  1.00  0.00    -0.171 C 
BRANCH  20  21
HETATM   21  C2  UNL     1      28.551  -0.395  53.751  1.00  0.00     0.062 C 
HETATM   22  C1  UNL     1      29.371  -1.589  53.415  1.00  0.00     0.023 C 
ENDBRANCH  20  21
ENDBRANCH  19  20
ENDBRANCH  18  19
ENDBRANCH   1  18
BRANCH   6  23
HETATM   23  O1  UNL     1      23.259  -1.842  56.127  1.00  0.00    -0.360 OA
HETATM   24  H10 UNL     1      22.699  -2.460  56.686  1.00  0.00     0.217 HD
ENDBRANCH   6  23
TORSDOF 6
ENDMDL
MODEL 6
REMARK VINA RESULT:      -7.4      4.086      7.456
REMARK  6 active torsions:
REMARK  status: ('A' for Active; 'I' for Inactive)
REMARK    1  A    between atoms: C2_2  and  C3_3 
REMARK    2  A    between atoms: C3_3  and  C4_4 
REMARK    3  A    between atoms: C4_4  and  C5_5 
REMARK    4  A    between atoms: C5_5  and  C6_6 
REMARK    5  A    between atoms: C11_11  and  O1_12 
REMARK    6  A    between atoms: N3_16  and  C13_17 
ROOT
HETATM    1  C6  UNL     1      24.870   0.692  53.612  1.00  0.00    -0.023 A 
HETATM    2  C7  UNL     1      23.562   0.251  53.475  1.00  0.00     0.025 A 
HETATM    3  C8  UNL     1      22.614   1.111  52.991  1.00  0.00     0.011 A 
HETATM    4  C9  UNL     1      22.963   2.400  52.644  1.00  0.00     0.072 A 
HETATM    5  C10 UNL     1      24.262   2.848  52.777  1.00  0.00     0.069 A 
HETATM    6  C11 UNL     1      25.226   1.990  53.265  1.00  0.00     0.074 A 
HETATM    7  N1  UNL     1      22.231   3.348  52.178  1.00  0.00    -0.239 NA
HETATM    8  C12 UNL     1      20.855   3.396  51.870  1.00  0.00     0.256 A 
HETATM    9  N2  UNL     1      19.994   2.429  52.000  1.00  0.00    -0.161 NA
HETATM   10  N3  UNL     1      20.231   1.129  52.472  1.00  0.00    -0.245 N 
HETATM   11  C18 UNL     1      21.436   0.503  52.936  1.00  0.00     0.132 A 
ENDROOT
BRANCH  10  12
HETATM   12  C13 UNL     1      19.107   0.259  52.509  1.00  0.00     0.057 A 
HETATM   13  C14 UNL     1      19.398  -0.779  53.285  1.00  0.00     0.029 A 
HETATM   14  C15 UNL     1      18.241  -1.662  53.316  1.00  0.00    -0.000 A 
HETATM   15  C16 UNL     1      17.265  -1.149  52.557  1.00  0.00    -0.001 A 
HETATM   16  C17 UNL     1      17.741   0.122  51.980  1.00  0.00     0.157 A 
HETATM   17 CL1  UNL     1      17.709  -0.021  50.195  1.00  0.00    -0.114 Cl
ENDBRANCH  10  12
BRANCH   1  18
HETATM   18  C5  UNL     1      26.016  -0.138  54.129  1.00  0.00     0.059 C 
BRANCH  18  19
HETATM   19  C4  UNL     1      26.615  -0.795  52.983  1.00  0.00     0.071 C 
BRANCH  19  20
HETATM   20  C3  UNL     1      27.792  -1.388  53.108  1.00  0.00    -0.171 C 
BRANCH  20  21
HETATM   21  C2  UNL     1      29.054  -1.791  53.025  1.00  0.00     0.062 C 
HETATM   22  C1  UNL     1      30.049  -0.937  53.727  1.00  0.00     0.023 C 
ENDBRANCH  20  21
ENDBRANCH  19  20
ENDBRANCH  18  19
ENDBRANCH   1  18
BRANCH   6  23
HETATM   23  O1  UNL     1      26.517   2.471  53.384  1.00  0.00    -0.360 OA
HETATM   24  H10 UNL     1      26.812   3.180  54.031  1.00  0.00     0.217 HD
ENDBRANCH   6  23
TORSDOF 6
ENDMDL
MODEL 7
REMARK VINA RESULT:      -7.4      1.686      2.274
REMARK  6 active torsions:
REMARK  status: ('A' for Active; 'I' for Inactive)
REMARK    1  A    between atoms: C2_2  and  C3_3 
REMARK    2  A    between atoms: C3_3  and  C4_4 
REMARK    3  A    between atoms: C4_4  and  C5_5 
REMARK    4  A    between atoms: C5_5  and  C6_6 
REMARK    5  A    between atoms: C11_11  and  O1_12 
REMARK    6  A    between atoms: N3_16  and  C13_17 
ROOT
HETATM    1  C6  UNL     1      21.039   0.003  52.580  1.00  0.00    -0.023 A 
HETATM    2  C7  UNL     1      22.391   0.308  52.626  1.00  0.00     0.025 A 
HETATM    3  C8  UNL     1      23.150  -0.180  53.655  1.00  0.00     0.011 A 
HETATM    4  C9  UNL     1      22.571  -0.964  54.631  1.00  0.00     0.072 A 
HETATM    5  C10 UNL     1      21.226  -1.272  54.592  1.00  0.00     0.069 A 
HETATM    6  C11 UNL     1      20.450  -0.786  53.561  1.00  0.00     0.074 A 
HETATM    7  N1  UNL     1      23.104  -1.510  55.665  1.00  0.00    -0.239 NA
HETATM    8  C12 UNL     1      24.430  -1.494  56.146  1.00  0.00     0.256 A 
HETATM    9  N2  UNL     1      25.447  -0.889  55.605  1.00  0.00    -0.161 NA
HETATM   10  N3  UNL     1      25.461  -0.119  54.432  1.00  0.00    -0.245 N 
HETATM   11  C18 UNL     1      24.409   0.220  53.519  1.00  0.00     0.132 A 
ENDROOT
BRANCH  10  12
HETATM   12  C13 UNL     1      26.717   0.432  54.057  1.00  0.00     0.057 A 
HETATM   13  C14 UNL     1      26.508   1.597  53.456  1.00  0.00     0.029 A 
HETATM   14  C15 UNL     1      27.800   2.152  53.077  1.00  0.00    -0.000 A 
HETATM   15  C16 UNL     1      28.774   1.314  53.451  1.00  0.00    -0.001 A 
HETATM   16  C17 UNL     1      28.160   0.146  54.109  1.00  0.00     0.157 A 
HETATM   17 CL1  UNL     1      28.602  -1.321  53.182  1.00  0.00    -0.114 Cl
ENDBRANCH  10  12
BRANCH   1  18
HETATM   18  C5  UNL     1      20.082   0.467  51.512  1.00  0.00     0.059 C 
BRANCH  18  19
HETATM   19  C4  UNL     1      19.535   1.735  51.953  1.00  0.00     0.071 C 
BRANCH  19  20
HETATM   20  C3  UNL     1      18.503   2.264  51.314  1.00  0.00    -0.171 C 
BRANCH  20  21
HETATM   21  C2  UNL     1      17.579   3.048  50.773  1.00  0.00     0.062 C 
HETATM   22  C1  UNL     1      16.882   3.964  51.715  1.00  0.00     0.023 C 
ENDBRANCH  20  21
ENDBRANCH  19  20
ENDBRANCH  18  19
ENDBRANCH   1  18
BRANCH   6  23
HETATM   23  O1  UNL     1      19.107  -1.114  53.552  1.00  0.00    -0.360 OA
HETATM   24  H10 UNL     1      18.459  -0.882  52.821  1.00  0.00     0.217 HD
ENDBRANCH   6  23
TORSDOF 6
ENDMDL
MODEL 8
REMARK VINA RESULT:      -7.3      3.715      7.319
REMARK  6 active torsions:
REMARK  status: ('A' for Active; 'I' for Inactive)
REMARK    1  A    between atoms: C2_2  and  C3_3 
REMARK    2  A    between atoms: C3_3  and  C4_4 
REMARK    3  A    between atoms: C4_4  and  C5_5 
REMARK    4  A    between atoms: C5_5  and  C6_6 
REMARK    5  A    between atoms: C11_11  and  O1_12 
REMARK    6  A    between atoms: N3_16  and  C13_17 
ROOT
HETATM    1  C6  UNL     1      26.026   2.258  51.678  1.00  0.00    -0.023 A 
HETATM    2  C7  UNL     1      24.846   1.632  52.047  1.00  0.00     0.025 A 
HETATM    3  C8  UNL     1      23.704   1.886  51.337  1.00  0.00     0.011 A 
HETATM    4  C9  UNL     1      23.735   2.756  50.266  1.00  0.00     0.072 A 
HETATM    5  C10 UNL     1      24.906   3.383  49.891  1.00  0.00     0.069 A 
HETATM    6  C11 UNL     1      26.063   3.136  50.600  1.00  0.00     0.074 A 
HETATM    7  N1  UNL     1      22.785   3.123  49.482  1.00  0.00    -0.239 NA
HETATM    8  C12 UNL     1      21.419   2.773  49.448  1.00  0.00     0.256 A 
HETATM    9  N2  UNL     1      20.805   1.954  50.252  1.00  0.00    -0.161 NA
HETATM   10  N3  UNL     1      21.353   1.237  51.327  1.00  0.00    -0.245 N 
HETATM   11  C18 UNL     1      22.690   1.195  51.843  1.00  0.00     0.132 A 
ENDROOT
BRANCH  10  12
HETATM   12  C13 UNL     1      20.456   0.402  52.047  1.00  0.00     0.057 A 
HETATM   13  C14 UNL     1      19.270   0.436  51.450  1.00  0.00     0.029 A 
HETATM   14  C15 UNL     1      18.360  -0.423  52.195  1.00  0.00    -0.000 A 
HETATM   15  C16 UNL     1      19.006  -0.965  53.235  1.00  0.00    -0.001 A 
HETATM   16  C17 UNL     1      20.399  -0.481  53.223  1.00  0.00     0.157 A 
HETATM   17 CL1  UNL     1      20.704   0.397  54.754  1.00  0.00    -0.114 Cl
ENDBRANCH  10  12
BRANCH   1  18
HETATM   18  C5  UNL     1      27.355   2.076  52.363  1.00  0.00     0.059 C 
BRANCH  18  19
HETATM   19  C4  UNL     1      27.135   1.190  53.489  1.00  0.00     0.071 C 
BRANCH  19  20
HETATM   20  C3  UNL     1      27.786   0.039  53.557  1.00  0.00    -0.171 C 
BRANCH  20  21
HETATM   21  C2  UNL     1      28.645  -0.970  53.472  1.00  0.00     0.062 C 
HETATM   22  C1  UNL     1      30.083  -0.595  53.514  1.00  0.00     0.023 C 
ENDBRANCH  20  21
ENDBRANCH  19  20
ENDBRANCH  18  19
ENDBRANCH   1  18
BRANCH   6  23
HETATM   23  O1  UNL     1      27.218   3.780  50.198  1.00  0.00    -0.360 OA
HETATM   24  H10 UNL     1      27.884   3.416  49.540  1.00  0.00     0.217 HD
ENDBRANCH   6  23
TORSDOF 6
ENDMDL
MODEL 9
REMARK VINA RESULT:      -7.2      7.594      9.782
REMARK  6 active torsions:
REMARK  status: ('A' for Active; 'I' for Inactive)
REMARK    1  A    between atoms: C2_2  and  C3_3 
REMARK    2  A    between atoms: C3_3  and  C4_4 
REMARK    3  A    between atoms: C4_4  and  C5_5 
REMARK    4  A    between atoms: C5_5  and  C6_6 
REMARK    5  A    between atoms: C11_11  and  O1_12 
REMARK    6  A    between atoms: N3_16  and  C13_17 
ROOT
HETATM    1  C6  UNL     1      27.101   5.473  48.752  1.00  0.00    -0.023 A 
HETATM    2  C7  UNL     1      28.365   4.977  48.472  1.00  0.00     0.025 A 
HETATM    3  C8  UNL     1      29.347   5.840  48.067  1.00  0.00     0.011 A 
HETATM    4  C9  UNL     1      29.075   7.187  47.941  1.00  0.00     0.072 A 
HETATM    5  C10 UNL     1      27.819   7.689  48.218  1.00  0.00     0.069 A 
HETATM    6  C11 UNL     1      26.822   6.829  48.627  1.00  0.00     0.074 A 
HETATM    7  N1  UNL     1      29.848   8.147  47.579  1.00  0.00    -0.239 NA
HETATM    8  C12 UNL     1      31.206   8.155  47.194  1.00  0.00     0.256 A 
HETATM    9  N2  UNL     1      32.001   7.127  47.127  1.00  0.00    -0.161 NA
HETATM   10  N3  UNL     1      31.697   5.788  47.416  1.00  0.00    -0.245 N 
HETATM   11  C18 UNL     1      30.475   5.175  47.851  1.00  0.00     0.132 A 
ENDROOT
BRANCH  10  12
HETATM   12  C13 UNL     1      32.759   4.856  47.264  1.00  0.00     0.057 A 
HETATM   13  C14 UNL     1      32.245   3.633  47.191  1.00  0.00     0.029 A 
HETATM   14  C15 UNL     1      33.341   2.687  47.035  1.00  0.00    -0.000 A 
HETATM   15  C16 UNL     1      34.505   3.348  47.018  1.00  0.00    -0.001 A 
HETATM   16  C17 UNL     1      34.226   4.789  47.162  1.00  0.00     0.157 A 
HETATM   17 CL1  UNL     1      35.043   5.376  48.643  1.00  0.00    -0.114 Cl
ENDBRANCH  10  12
BRANCH   1  18
HETATM   18  C5  UNL     1      25.926   4.647  49.206  1.00  0.00     0.059 C 
BRANCH  18  19
HETATM   19  C4  UNL     1      26.427   3.315  49.489  1.00  0.00     0.071 C 
BRANCH  19  20
HETATM   20  C3  UNL     1      26.541   2.909  50.744  1.00  0.00    -0.171 C 
BRANCH  20  21
HETATM   21  C2  UNL     1      26.489   2.277  51.910  1.00  0.00     0.062 C 
HETATM   22  C1  UNL     1      26.637   0.799  51.848  1.00  0.00     0.023 C 
ENDBRANCH  20  21
ENDBRANCH  19  20
ENDBRANCH  18  19
ENDBRANCH   1  18
BRANCH   6  23
HETATM   23  O1  UNL     1      25.576   7.366  48.896  1.00  0.00    -0.360 OA
HETATM   24  H10 UNL     1      24.769   7.280  48.304  1.00  0.00     0.217 HD
ENDBRANCH   6  23
TORSDOF 6
ENDMDL
