MODEL 1
REMARK VINA RESULT:      -8.3      0.000      0.000
REMARK  4 active torsions:
REMARK  status: ('A' for Active; 'I' for Inactive)
REMARK    1  A    between atoms: C2_3  and  C3_4 
REMARK    2  A    between atoms: C3_4  and  C4_5 
REMARK    3  A    between atoms: C4_5  and  C5_6 
REMARK    4  A    between atoms: C5_6  and  C6_7 
ROOT
HETATM    1  N1  UNL     1      19.408   6.123  49.268  1.00  0.00    -0.197 NA
HETATM    2  C1  UNL     1      20.299   6.866  49.190  1.00  0.00     0.059 C 
HETATM    3  C2  UNL     1      21.431   7.812  49.104  1.00  0.00     0.124 C 
ENDROOT
BRANCH   3   4
HETATM    4  C3  UNL     1      22.036   7.874  50.514  1.00  0.00     0.014 C 
BRANCH   4   5
HETATM    5  C4  UNL     1      23.170   6.920  50.618  1.00  0.00     0.005 C 
BRANCH   5   6
HETATM    6  C5  UNL     1      23.899   6.749  49.333  1.00  0.00     0.054 C 
BRANCH   6   7
HETATM    7  C6  UNL     1      24.578   5.417  49.141  1.00  0.00     0.230 C 
HETATM    8  O1  UNL     1      25.323   5.180  50.283  1.00  0.00    -0.347 OA
HETATM    9  C7  UNL     1      26.037   4.006  50.308  1.00  0.00     0.302 C 
HETATM   10  N2  UNL     1      25.297   2.903  50.866  1.00  0.00    -0.322 N 
HETATM   11  C8  UNL     1      24.012   2.705  50.668  1.00  0.00     0.072 A 
HETATM   12  C19 UNL     1      25.689   1.874  51.629  1.00  0.00     0.048 A 
HETATM   13  C9  UNL     1      23.433   1.620  51.236  1.00  0.00     0.016 A 
HETATM   14  C20 UNL     1      23.085   3.320  49.880  1.00  0.00     0.046 C 
HETATM   15  C10 UNL     1      22.409   0.999  51.732  1.00  0.00     0.011 C 
HETATM   16  C14 UNL     1      24.575   1.051  51.879  1.00  0.00     0.004 A 
HETATM   17  C11 UNL     1      21.741  -0.168  52.327  1.00  0.00     0.063 C 
HETATM   18  C13 UNL     1      21.471   2.007  52.388  1.00  0.00     0.182 C 
HETATM   19  C12 UNL     1      21.560   0.239  53.770  1.00  0.00     0.126 C 
HETATM   20  N3  UNL     1      20.700   1.433  53.505  1.00  0.00    -0.368 N 
HETATM   21  H16 UNL     1      19.878   1.463  54.163  1.00  0.00     0.161 HD
HETATM   22  O2  UNL     1      20.910   3.176  52.555  1.00  0.00    -0.172 OA
HETATM   23  C15 UNL     1      25.010  -0.002  52.665  1.00  0.00     0.014 A 
HETATM   24  C16 UNL     1      26.270  -0.256  53.144  1.00  0.00     0.001 A 
HETATM   25  C17 UNL     1      27.264   0.625  52.826  1.00  0.00     0.002 A 
HETATM   26  C18 UNL     1      26.986   1.724  52.051  1.00  0.00     0.030 A 
HETATM   27  C21 UNL     1      21.682   3.108  49.636  1.00  0.00     0.100 C 
HETATM   28  N4  UNL     1      23.485   4.428  49.028  1.00  0.00    -0.320 N 
HETATM   29  C22 UNL     1      21.562   3.501  48.146  1.00  0.00    -0.025 A 
HETATM   30  C23 UNL     1      20.579   3.110  47.261  1.00  0.00     0.010 A 
HETATM   31  C27 UNL     1      22.517   4.467  47.972  1.00  0.00     0.043 A 
HETATM   32  C24 UNL     1      20.620   3.833  46.072  1.00  0.00     0.001 A 
HETATM   33  C25 UNL     1      21.560   4.828  45.839  1.00  0.00     0.002 A 
HETATM   34  C26 UNL     1      22.511   5.154  46.780  1.00  0.00     0.030 A 
ENDBRANCH   6   7
ENDBRANCH   5   6
ENDBRANCH   4   5
ENDBRANCH   3   4
TORSDOF 4
ENDMDL
MODEL 2
REMARK VINA RESULT:      -8.3      8.283     10.838
REMARK  4 active torsions:
REMARK  status: ('A' for Active; 'I' for Inactive)
REMARK    1  A    between atoms: C2_3  and  C3_4 
REMARK    2  A    between atoms: C3_4  and  C4_5 
REMARK    3  A    between atoms: C4_5  and  C5_6 
REMARK    4  A    between atoms: C5_6  and  C6_7 
ROOT
HETATM    1  N1  UNL     1      29.635  13.878  46.273  1.00  0.00    -0.197 NA
HETATM    2  C1  UNL     1      29.473  13.352  47.297  1.00  0.00     0.059 C 
HETATM    3  C2  UNL     1      29.278  12.678  48.597  1.00  0.00     0.124 C 
ENDROOT
BRANCH   3   4
HETATM    4  C3  UNL     1      30.668  12.192  49.033  1.00  0.00     0.014 C 
BRANCH   4   5
HETATM    5  C4  UNL     1      31.125  11.103  48.132  1.00  0.00     0.005 C 
BRANCH   5   6
HETATM    6  C5  UNL     1      30.125  10.011  47.995  1.00  0.00     0.054 C 
BRANCH   6   7
HETATM    7  C6  UNL     1      30.165   9.250  46.695  1.00  0.00     0.230 C 
HETATM    8  O1  UNL     1      31.400   9.501  46.123  1.00  0.00    -0.347 OA
HETATM    9  C7  UNL     1      31.639   8.900  44.909  1.00  0.00     0.302 C 
HETATM   10  N2  UNL     1      32.242   7.598  45.029  1.00  0.00    -0.322 N 
HETATM   11  C8  UNL     1      31.934   6.729  45.968  1.00  0.00     0.072 A 
HETATM   12  C19 UNL     1      33.159   6.978  44.276  1.00  0.00     0.048 A 
HETATM   13  C9  UNL     1      32.562   5.529  45.965  1.00  0.00     0.016 A 
HETATM   14  C20 UNL     1      30.985   6.712  46.946  1.00  0.00     0.046 C 
HETATM   15  C10 UNL     1      33.016   4.475  46.568  1.00  0.00     0.011 C 
HETATM   16  C14 UNL     1      33.385   5.695  44.809  1.00  0.00     0.004 A 
HETATM   17  C11 UNL     1      33.671   3.159  46.600  1.00  0.00     0.063 C 
HETATM   18  C13 UNL     1      33.445   4.844  47.984  1.00  0.00     0.182 C 
HETATM   19  C12 UNL     1      35.028   3.465  47.187  1.00  0.00     0.126 C 
HETATM   20  N3  UNL     1      34.534   3.993  48.495  1.00  0.00    -0.368 N 
HETATM   21  H16 UNL     1      35.093   3.603  49.299  1.00  0.00     0.161 HD
HETATM   22  O2  UNL     1      33.412   5.531  49.096  1.00  0.00    -0.172 OA
HETATM   23  C15 UNL     1      34.332   5.078  44.010  1.00  0.00     0.014 A 
HETATM   24  C16 UNL     1      34.968   5.565  42.897  1.00  0.00     0.001 A 
HETATM   25  C17 UNL     1      34.655   6.830  42.483  1.00  0.00     0.002 A 
HETATM   26  C18 UNL     1      33.731   7.569  43.177  1.00  0.00     0.030 A 
HETATM   27  C21 UNL     1      30.621   5.765  47.969  1.00  0.00     0.100 C 
HETATM   28  N4  UNL     1      30.055   7.823  47.067  1.00  0.00    -0.320 N 
HETATM   29  C22 UNL     1      29.090   5.967  48.048  1.00  0.00    -0.025 A 
HETATM   30  C23 UNL     1      28.158   5.070  48.527  1.00  0.00     0.010 A 
HETATM   31  C27 UNL     1      28.905   7.288  47.735  1.00  0.00     0.043 A 
HETATM   32  C24 UNL     1      26.904   5.649  48.693  1.00  0.00     0.001 A 
HETATM   33  C25 UNL     1      26.655   6.983  48.398  1.00  0.00     0.002 A 
HETATM   34  C26 UNL     1      27.646   7.811  47.920  1.00  0.00     0.030 A 
ENDBRANCH   6   7
ENDBRANCH   5   6
ENDBRANCH   4   5
ENDBRANCH   3   4
TORSDOF 4
ENDMDL
MODEL 3
REMARK VINA RESULT:      -8.2      2.131      4.720
REMARK  4 active torsions:
REMARK  status: ('A' for Active; 'I' for Inactive)
REMARK    1  A    between atoms: C2_3  and  C3_4 
REMARK    2  A    between atoms: C3_4  and  C4_5 
REMARK    3  A    between atoms: C4_5  and  C5_6 
REMARK    4  A    between atoms: C5_6  and  C6_7 
ROOT
HETATM    1  N1  UNL     1      20.908   4.352  43.502  1.00  0.00    -0.197 NA
HETATM    2  C1  UNL     1      20.538   4.471  44.598  1.00  0.00     0.059 C 
HETATM    3  C2  UNL     1      20.068   4.609  45.992  1.00  0.00     0.124 C 
ENDROOT
BRANCH   3   4
HETATM    4  C3  UNL     1      20.490   3.318  46.709  1.00  0.00     0.014 C 
BRANCH   4   5
HETATM    5  C4  UNL     1      21.932   3.058  46.469  1.00  0.00     0.005 C 
BRANCH   5   6
HETATM    6  C5  UNL     1      22.536   2.167  47.495  1.00  0.00     0.054 C 
BRANCH   6   7
HETATM    7  C6  UNL     1      21.942   2.269  48.877  1.00  0.00     0.230 C 
HETATM    8  O1  UNL     1      21.691   0.977  49.301  1.00  0.00    -0.347 OA
HETATM    9  C7  UNL     1      21.132   0.846  50.550  1.00  0.00     0.302 C 
HETATM   10  N2  UNL     1      22.110   0.732  51.601  1.00  0.00    -0.322 N 
HETATM   11  C8  UNL     1      23.245   1.397  51.626  1.00  0.00     0.072 A 
HETATM   12  C19 UNL     1      22.110   0.014  52.732  1.00  0.00     0.048 A 
HETATM   13  C9  UNL     1      24.076   1.214  52.679  1.00  0.00     0.016 A 
HETATM   14  C20 UNL     1      23.765   2.380  50.837  1.00  0.00     0.046 C 
HETATM   15  C10 UNL     1      25.257   1.198  53.214  1.00  0.00     0.011 C 
HETATM   16  C14 UNL     1      23.300   0.283  53.435  1.00  0.00     0.004 A 
HETATM   17  C11 UNL     1      26.188   1.031  54.340  1.00  0.00     0.063 C 
HETATM   18  C13 UNL     1      26.287   0.798  52.162  1.00  0.00     0.182 C 
HETATM   19  C12 UNL     1      26.853  -0.292  54.042  1.00  0.00     0.126 C 
HETATM   20  N3  UNL     1      27.457   0.110  52.736  1.00  0.00    -0.368 N 
HETATM   21  H16 UNL     1      28.459  -0.210  52.665  1.00  0.00     0.161 HD
HETATM   22  O2  UNL     1      26.775   0.697  50.954  1.00  0.00    -0.172 OA
HETATM   23  C15 UNL     1      23.270  -0.468  54.597  1.00  0.00     0.014 A 
HETATM   24  C16 UNL     1      22.298  -1.328  55.041  1.00  0.00     0.001 A 
HETATM   25  C17 UNL     1      21.189  -1.499  54.261  1.00  0.00     0.002 A 
HETATM   26  C18 UNL     1      21.075  -0.820  53.074  1.00  0.00     0.030 A 
HETATM   27  C21 UNL     1      24.993   3.133  50.857  1.00  0.00     0.100 C 
HETATM   28  N4  UNL     1      22.993   2.888  49.714  1.00  0.00    -0.320 N 
HETATM   29  C22 UNL     1      24.525   4.506  50.324  1.00  0.00    -0.025 A 
HETATM   30  C23 UNL     1      25.141   5.725  50.515  1.00  0.00     0.010 A 
HETATM   31  C27 UNL     1      23.499   4.206  49.467  1.00  0.00     0.043 A 
HETATM   32  C24 UNL     1      24.609   6.720  49.700  1.00  0.00     0.001 A 
HETATM   33  C25 UNL     1      23.573   6.476  48.808  1.00  0.00     0.002 A 
HETATM   34  C26 UNL     1      23.012   5.226  48.683  1.00  0.00     0.030 A 
ENDBRANCH   6   7
ENDBRANCH   5   6
ENDBRANCH   4   5
ENDBRANCH   3   4
TORSDOF 4
ENDMDL
MODEL 4
REMARK VINA RESULT:      -7.8      1.723      2.078
REMARK  4 active torsions:
REMARK  status: ('A' for Active; 'I' for Inactive)
REMARK    1  A    between atoms: C2_3  and  C3_4 
REMARK    2  A    between atoms: C3_4  and  C4_5 
REMARK    3  A    between atoms: C4_5  and  C5_6 
REMARK    4  A    between atoms: C5_6  and  C6_7 
ROOT
HETATM    1  N1  UNL     1      19.203  10.726  48.998  1.00  0.00    -0.197 NA
HETATM    2  C1  UNL     1      20.017   9.899  48.942  1.00  0.00     0.059 C 
HETATM    3  C2  UNL     1      21.052   8.845  48.882  1.00  0.00     0.124 C 
ENDROOT
BRANCH   3   4
HETATM    4  C3  UNL     1      20.871   8.004  50.155  1.00  0.00     0.014 C 
BRANCH   4   5
HETATM    5  C4  UNL     1      22.173   7.415  50.558  1.00  0.00     0.005 C 
BRANCH   5   6
HETATM    6  C5  UNL     1      22.029   6.081  51.199  1.00  0.00     0.054 C 
BRANCH   6   7
HETATM    7  C6  UNL     1      22.913   4.993  50.645  1.00  0.00     0.230 C 
HETATM    8  O1  UNL     1      23.928   4.795  51.564  1.00  0.00    -0.347 OA
HETATM    9  C7  UNL     1      24.860   3.838  51.240  1.00  0.00     0.302 C 
HETATM   10  N2  UNL     1      24.515   2.524  51.718  1.00  0.00    -0.322 N 
HETATM   11  C8  UNL     1      23.289   2.046  51.733  1.00  0.00     0.072 A 
HETATM   12  C19 UNL     1      25.276   1.530  52.195  1.00  0.00     0.048 A 
HETATM   13  C9  UNL     1      23.095   0.787  52.193  1.00  0.00     0.016 A 
HETATM   14  C20 UNL     1      22.101   2.515  51.259  1.00  0.00     0.046 C 
HETATM   15  C10 UNL     1      22.363  -0.126  52.752  1.00  0.00     0.011 C 
HETATM   16  C14 UNL     1      24.446   0.434  52.496  1.00  0.00     0.004 A 
HETATM   17  C11 UNL     1      22.108  -1.489  53.240  1.00  0.00     0.063 C 
HETATM   18  C13 UNL     1      21.406   0.527  53.744  1.00  0.00     0.182 C 
HETATM   19  C12 UNL     1      22.175  -1.334  54.741  1.00  0.00     0.126 C 
HETATM   20  N3  UNL     1      21.045  -0.362  54.863  1.00  0.00    -0.368 N 
HETATM   21  H16 UNL     1      20.404  -0.621  55.659  1.00  0.00     0.161 HD
HETATM   22  O2  UNL     1      20.663   1.490  54.223  1.00  0.00    -0.172 OA
HETATM   23  C15 UNL     1      25.258  -0.576  52.982  1.00  0.00     0.014 A 
HETATM   24  C16 UNL     1      26.618  -0.575  53.161  1.00  0.00     0.001 A 
HETATM   25  C17 UNL     1      27.307   0.556  52.827  1.00  0.00     0.002 A 
HETATM   26  C18 UNL     1      26.637   1.646  52.330  1.00  0.00     0.030 A 
HETATM   27  C21 UNL     1      20.756   2.001  51.248  1.00  0.00     0.100 C 
HETATM   28  N4  UNL     1      22.056   3.791  50.561  1.00  0.00    -0.320 N 
HETATM   29  C22 UNL     1      20.223   2.547  49.904  1.00  0.00    -0.025 A 
HETATM   30  C23 UNL     1      19.172   2.049  49.163  1.00  0.00     0.010 A 
HETATM   31  C27 UNL     1      20.889   3.732  49.731  1.00  0.00     0.043 A 
HETATM   32  C24 UNL     1      18.791   2.911  48.139  1.00  0.00     0.001 A 
HETATM   33  C25 UNL     1      19.423   4.128  47.918  1.00  0.00     0.002 A 
HETATM   34  C26 UNL     1      20.471   4.548  48.706  1.00  0.00     0.030 A 
ENDBRANCH   6   7
ENDBRANCH   5   6
ENDBRANCH   4   5
ENDBRANCH   3   4
TORSDOF 4
ENDMDL
MODEL 5
REMARK VINA RESULT:      -7.3      4.399      7.931
REMARK  4 active torsions:
REMARK  status: ('A' for Active; 'I' for Inactive)
REMARK    1  A    between atoms: C2_3  and  C3_4 
REMARK    2  A    between atoms: C3_4  and  C4_5 
REMARK    3  A    between atoms: C4_5  and  C5_6 
REMARK    4  A    between atoms: C5_6  and  C6_7 
ROOT
HETATM    1  N1  UNL     1      21.402   4.451  51.894  1.00  0.00    -0.197 NA
HETATM    2  C1  UNL     1      21.231   5.380  51.217  1.00  0.00     0.059 C 
HETATM    3  C2  UNL     1      21.019   6.568  50.364  1.00  0.00     0.124 C 
ENDROOT
BRANCH   3   4
HETATM    4  C3  UNL     1      22.138   7.554  50.731  1.00  0.00     0.014 C 
BRANCH   4   5
HETATM    5  C4  UNL     1      22.832   8.008  49.499  1.00  0.00     0.005 C 
BRANCH   5   6
HETATM    6  C5  UNL     1      22.274   7.395  48.264  1.00  0.00     0.054 C 
BRANCH   6   7
HETATM    7  C6  UNL     1      23.279   7.061  47.191  1.00  0.00     0.230 C 
HETATM    8  O1  UNL     1      23.603   8.249  46.562  1.00  0.00    -0.347 OA
HETATM    9  C7  UNL     1      24.509   8.163  45.532  1.00  0.00     0.302 C 
HETATM   10  N2  UNL     1      25.875   8.312  45.964  1.00  0.00    -0.322 N 
HETATM   11  C8  UNL     1      26.348   7.825  47.091  1.00  0.00     0.072 A 
HETATM   12  C19 UNL     1      26.927   8.899  45.377  1.00  0.00     0.048 A 
HETATM   13  C9  UNL     1      27.657   8.020  47.377  1.00  0.00     0.016 A 
HETATM   14  C20 UNL     1      25.815   7.020  48.053  1.00  0.00     0.046 C 
HETATM   15  C10 UNL     1      28.635   8.157  48.217  1.00  0.00     0.011 C 
HETATM   16  C14 UNL     1      28.051   8.740  46.208  1.00  0.00     0.004 A 
HETATM   17  C11 UNL     1      30.051   8.343  48.567  1.00  0.00     0.063 C 
HETATM   18  C13 UNL     1      28.121   8.815  49.494  1.00  0.00     0.182 C 
HETATM   19  C12 UNL     1      30.102   9.774  49.045  1.00  0.00     0.126 C 
HETATM   20  N3  UNL     1      29.153   9.606  50.188  1.00  0.00    -0.368 N 
HETATM   21  H16 UNL     1      29.516  10.079  51.057  1.00  0.00     0.161 HD
HETATM   22  O2  UNL     1      27.230   9.114  50.402  1.00  0.00    -0.172 OA
HETATM   23  C15 UNL     1      29.120   9.352  45.576  1.00  0.00     0.014 A 
HETATM   24  C16 UNL     1      29.148  10.005  44.370  1.00  0.00     0.001 A 
HETATM   25  C17 UNL     1      27.983  10.088  43.661  1.00  0.00     0.002 A 
HETATM   26  C18 UNL     1      26.834   9.527  44.160  1.00  0.00     0.030 A 
HETATM   27  C21 UNL     1      26.320   6.462  49.281  1.00  0.00     0.100 C 
HETATM   28  N4  UNL     1      24.456   6.523  47.906  1.00  0.00    -0.320 N 
HETATM   29  C22 UNL     1      25.594   5.098  49.325  1.00  0.00    -0.025 A 
HETATM   30  C23 UNL     1      25.983   3.972  50.020  1.00  0.00     0.010 A 
HETATM   31  C27 UNL     1      24.398   5.329  48.697  1.00  0.00     0.043 A 
HETATM   32  C24 UNL     1      24.989   2.999  50.051  1.00  0.00     0.001 A 
HETATM   33  C25 UNL     1      23.755   3.177  49.439  1.00  0.00     0.002 A 
HETATM   34  C26 UNL     1      23.449   4.335  48.761  1.00  0.00     0.030 A 
ENDBRANCH   6   7
ENDBRANCH   5   6
ENDBRANCH   4   5
ENDBRANCH   3   4
TORSDOF 4
ENDMDL
MODEL 6
REMARK VINA RESULT:      -6.9      4.517      7.983
REMARK  4 active torsions:
REMARK  status: ('A' for Active; 'I' for Inactive)
REMARK    1  A    between atoms: C2_3  and  C3_4 
REMARK    2  A    between atoms: C3_4  and  C4_5 
REMARK    3  A    between atoms: C4_5  and  C5_6 
REMARK    4  A    between atoms: C5_6  and  C6_7 
ROOT
HETATM    1  N1  UNL     1      18.668  11.715  48.684  1.00  0.00    -0.197 NA
HETATM    2  C1  UNL     1      19.658  11.182  48.392  1.00  0.00     0.059 C 
HETATM    3  C2  UNL     1      20.920  10.501  48.033  1.00  0.00     0.124 C 
ENDROOT
BRANCH   3   4
HETATM    4  C3  UNL     1      21.280   9.618  49.238  1.00  0.00     0.014 C 
BRANCH   4   5
HETATM    5  C4  UNL     1      22.513   8.845  48.943  1.00  0.00     0.005 C 
BRANCH   5   6
HETATM    6  C5  UNL     1      22.234   7.549  48.270  1.00  0.00     0.054 C 
BRANCH   6   7
HETATM    7  C6  UNL     1      23.217   7.146  47.200  1.00  0.00     0.230 C 
HETATM    8  O1  UNL     1      23.585   8.304  46.538  1.00  0.00    -0.347 OA
HETATM    9  C7  UNL     1      24.479   8.154  45.505  1.00  0.00     0.302 C 
HETATM   10  N2  UNL     1      25.853   8.258  45.924  1.00  0.00    -0.322 N 
HETATM   11  C8  UNL     1      26.314   7.781  47.061  1.00  0.00     0.072 A 
HETATM   12  C19 UNL     1      26.923   8.786  45.316  1.00  0.00     0.048 A 
HETATM   13  C9  UNL     1      27.632   7.929  47.334  1.00  0.00     0.016 A 
HETATM   14  C20 UNL     1      25.755   7.024  48.046  1.00  0.00     0.046 C 
HETATM   15  C10 UNL     1      28.621   8.047  48.164  1.00  0.00     0.011 C 
HETATM   16  C14 UNL     1      28.047   8.602  46.144  1.00  0.00     0.004 A 
HETATM   17  C11 UNL     1      30.046   8.184  48.499  1.00  0.00     0.063 C 
HETATM   18  C13 UNL     1      28.143   8.758  49.426  1.00  0.00     0.182 C 
HETATM   19  C12 UNL     1      30.158   9.624  48.940  1.00  0.00     0.126 C 
HETATM   20  N3  UNL     1      29.212   9.524  50.093  1.00  0.00    -0.368 N 
HETATM   21  H16 UNL     1      29.600  10.003  50.947  1.00  0.00     0.161 HD
HETATM   22  O2  UNL     1      27.272   9.117  50.332  1.00  0.00    -0.172 OA
HETATM   23  C15 UNL     1      29.135   9.154  45.490  1.00  0.00     0.014 A 
HETATM   24  C16 UNL     1      29.180   9.774  44.267  1.00  0.00     0.001 A 
HETATM   25  C17 UNL     1      28.015   9.887  43.563  1.00  0.00     0.002 A 
HETATM   26  C18 UNL     1      26.847   9.387  44.084  1.00  0.00     0.030 A 
HETATM   27  C21 UNL     1      26.246   6.477  49.285  1.00  0.00     0.100 C 
HETATM   28  N4  UNL     1      24.377   6.579  47.921  1.00  0.00    -0.320 N 
HETATM   29  C22 UNL     1      25.465   5.145  49.369  1.00  0.00    -0.025 A 
HETATM   30  C23 UNL     1      25.814   4.022  50.090  1.00  0.00     0.010 A 
HETATM   31  C27 UNL     1      24.276   5.409  48.743  1.00  0.00     0.043 A 
HETATM   32  C24 UNL     1      24.781   3.092  50.152  1.00  0.00     0.001 A 
HETATM   33  C25 UNL     1      23.551   3.305  49.543  1.00  0.00     0.002 A 
HETATM   34  C26 UNL     1      23.287   4.457  48.838  1.00  0.00     0.030 A 
ENDBRANCH   6   7
ENDBRANCH   5   6
ENDBRANCH   4   5
ENDBRANCH   3   4
TORSDOF 4
ENDMDL
MODEL 7
REMARK VINA RESULT:      -6.8      2.240      4.797
REMARK  4 active torsions:
REMARK  status: ('A' for Active; 'I' for Inactive)
REMARK    1  A    between atoms: C2_3  and  C3_4 
REMARK    2  A    between atoms: C3_4  and  C4_5 
REMARK    3  A    between atoms: C4_5  and  C5_6 
REMARK    4  A    between atoms: C5_6  and  C6_7 
ROOT
HETATM    1  N1  UNL     1      20.883   6.924  41.655  1.00  0.00    -0.197 NA
HETATM    2  C1  UNL     1      20.795   5.935  42.259  1.00  0.00     0.059 C 
HETATM    3  C2  UNL     1      20.689   4.683  43.037  1.00  0.00     0.124 C 
ENDROOT
BRANCH   3   4
HETATM    4  C3  UNL     1      21.156   5.029  44.459  1.00  0.00     0.014 C 
BRANCH   4   5
HETATM    5  C4  UNL     1      21.298   3.786  45.258  1.00  0.00     0.005 C 
BRANCH   5   6
HETATM    6  C5  UNL     1      22.141   3.972  46.470  1.00  0.00     0.054 C 
BRANCH   6   7
HETATM    7  C6  UNL     1      21.433   3.793  47.789  1.00  0.00     0.230 C 
HETATM    8  O1  UNL     1      21.440   2.438  48.067  1.00  0.00    -0.347 OA
HETATM    9  C7  UNL     1      20.828   2.056  49.236  1.00  0.00     0.302 C 
HETATM   10  N2  UNL     1      21.723   2.035  50.365  1.00  0.00    -0.322 N 
HETATM   11  C8  UNL     1      22.677   2.918  50.563  1.00  0.00     0.072 A 
HETATM   12  C19 UNL     1      21.792   1.213  51.420  1.00  0.00     0.048 A 
HETATM   13  C9  UNL     1      23.444   2.799  51.673  1.00  0.00     0.016 A 
HETATM   14  C20 UNL     1      23.028   4.069  49.923  1.00  0.00     0.046 C 
HETATM   15  C10 UNL     1      24.554   2.974  52.320  1.00  0.00     0.011 C 
HETATM   16  C14 UNL     1      22.835   1.648  52.260  1.00  0.00     0.004 A 
HETATM   17  C11 UNL     1      25.408   2.884  53.514  1.00  0.00     0.063 C 
HETATM   18  C13 UNL     1      25.725   2.919  51.344  1.00  0.00     0.182 C 
HETATM   19  C12 UNL     1      26.369   1.773  53.165  1.00  0.00     0.126 C 
HETATM   20  N3  UNL     1      26.969   2.435  51.967  1.00  0.00    -0.368 N 
HETATM   21  H16 UNL     1      28.019   2.343  51.968  1.00  0.00     0.161 HD
HETATM   22  O2  UNL     1      26.316   3.057  50.187  1.00  0.00    -0.172 OA
HETATM   23  C15 UNL     1      22.880   0.784  53.340  1.00  0.00     0.014 A 
HETATM   24  C16 UNL     1      22.090  -0.306  53.605  1.00  0.00     0.001 A 
HETATM   25  C17 UNL     1      21.111  -0.619  52.706  1.00  0.00     0.002 A 
HETATM   26  C18 UNL     1      20.942   0.147  51.580  1.00  0.00     0.030 A 
HETATM   27  C21 UNL     1      24.055   5.057  50.134  1.00  0.00     0.100 C 
HETATM   28  N4  UNL     1      22.253   4.523  48.779  1.00  0.00    -0.320 N 
HETATM   29  C22 UNL     1      23.339   6.351  49.683  1.00  0.00    -0.025 A 
HETATM   30  C23 UNL     1      23.655   7.644  50.045  1.00  0.00     0.010 A 
HETATM   31  C27 UNL     1      22.474   5.937  48.705  1.00  0.00     0.043 A 
HETATM   32  C24 UNL     1      22.982   8.588  49.275  1.00  0.00     0.001 A 
HETATM   33  C25 UNL     1      22.098   8.231  48.266  1.00  0.00     0.002 A 
HETATM   34  C26 UNL     1      21.837   6.912  47.971  1.00  0.00     0.030 A 
ENDBRANCH   6   7
ENDBRANCH   5   6
ENDBRANCH   4   5
ENDBRANCH   3   4
TORSDOF 4
ENDMDL
MODEL 8
REMARK VINA RESULT:      -6.7      2.369      7.165
REMARK  4 active torsions:
REMARK  status: ('A' for Active; 'I' for Inactive)
REMARK    1  A    between atoms: C2_3  and  C3_4 
REMARK    2  A    between atoms: C3_4  and  C4_5 
REMARK    3  A    between atoms: C4_5  and  C5_6 
REMARK    4  A    between atoms: C5_6  and  C6_7 
ROOT
HETATM    1  N1  UNL     1      16.636  -1.003  52.502  1.00  0.00    -0.197 NA
HETATM    2  C1  UNL     1      17.550  -0.523  51.969  1.00  0.00     0.059 C 
HETATM    3  C2  UNL     1      18.712   0.097  51.298  1.00  0.00     0.124 C 
ENDROOT
BRANCH   3   4
HETATM    4  C3  UNL     1      19.174   1.235  52.221  1.00  0.00     0.014 C 
BRANCH   4   5
HETATM    5  C4  UNL     1      18.977   2.542  51.544  1.00  0.00     0.005 C 
BRANCH   5   6
HETATM    6  C5  UNL     1      20.237   3.323  51.420  1.00  0.00     0.054 C 
BRANCH   6   7
HETATM    7  C6  UNL     1      20.934   3.226  50.086  1.00  0.00     0.230 C 
HETATM    8  O1  UNL     1      20.443   4.255  49.303  1.00  0.00    -0.347 OA
HETATM    9  C7  UNL     1      20.949   4.341  48.028  1.00  0.00     0.302 C 
HETATM   10  N2  UNL     1      22.123   5.170  47.937  1.00  0.00    -0.322 N 
HETATM   11  C8  UNL     1      23.064   5.215  48.855  1.00  0.00     0.072 A 
HETATM   12  C19 UNL     1      22.540   6.006  46.977  1.00  0.00     0.048 A 
HETATM   13  C9  UNL     1      24.129   6.026  48.645  1.00  0.00     0.016 A 
HETATM   14  C20 UNL     1      23.286   4.504  49.996  1.00  0.00     0.046 C 
HETATM   15  C10 UNL     1      25.102   6.768  49.073  1.00  0.00     0.011 C 
HETATM   16  C14 UNL     1      23.777   6.554  47.366  1.00  0.00     0.004 A 
HETATM   17  C11 UNL     1      26.277   7.632  48.885  1.00  0.00     0.063 C 
HETATM   18  C13 UNL     1      24.708   7.408  50.400  1.00  0.00     0.182 C 
HETATM   19  C12 UNL     1      25.747   9.007  49.215  1.00  0.00     0.126 C 
HETATM   20  N3  UNL     1      25.363   8.708  50.628  1.00  0.00    -0.368 N 
HETATM   21  H16 UNL     1      25.671   9.478  51.278  1.00  0.00     0.161 HD
HETATM   22  O2  UNL     1      24.077   7.486  51.542  1.00  0.00    -0.172 OA
HETATM   23  C15 UNL     1      24.183   7.409  46.356  1.00  0.00     0.014 A 
HETATM   24  C16 UNL     1      23.551   7.710  45.176  1.00  0.00     0.001 A 
HETATM   25  C17 UNL     1      22.352   7.107  44.921  1.00  0.00     0.002 A 
HETATM   26  C18 UNL     1      21.817   6.230  45.832  1.00  0.00     0.030 A 
HETATM   27  C21 UNL     1      24.318   4.525  51.001  1.00  0.00     0.100 C 
HETATM   28  N4  UNL     1      22.368   3.441  50.373  1.00  0.00    -0.320 N 
HETATM   29  C22 UNL     1      24.401   3.032  51.392  1.00  0.00    -0.025 A 
HETATM   30  C23 UNL     1      25.468   2.386  51.980  1.00  0.00     0.010 A 
HETATM   31  C27 UNL     1      23.127   2.562  51.214  1.00  0.00     0.043 A 
HETATM   32  C24 UNL     1      25.134   1.111  52.428  1.00  0.00     0.001 A 
HETATM   33  C25 UNL     1      23.859   0.583  52.281  1.00  0.00     0.002 A 
HETATM   34  C26 UNL     1      22.848   1.297  51.678  1.00  0.00     0.030 A 
ENDBRANCH   6   7
ENDBRANCH   5   6
ENDBRANCH   4   5
ENDBRANCH   3   4
TORSDOF 4
ENDMDL
MODEL 9
REMARK VINA RESULT:      -6.7      2.638      4.424
REMARK  4 active torsions:
REMARK  status: ('A' for Active; 'I' for Inactive)
REMARK    1  A    between atoms: C2_3  and  C3_4 
REMARK    2  A    between atoms: C3_4  and  C4_5 
REMARK    3  A    between atoms: C4_5  and  C5_6 
REMARK    4  A    between atoms: C5_6  and  C6_7 
ROOT
HETATM    1  N1  UNL     1      17.195  12.193  47.823  1.00  0.00    -0.197 NA
HETATM    2  C1  UNL     1      17.871  11.351  47.392  1.00  0.00     0.059 C 
HETATM    3  C2  UNL     1      18.741  10.286  46.851  1.00  0.00     0.124 C 
ENDROOT
BRANCH   3   4
HETATM    4  C3  UNL     1      20.000  10.282  47.730  1.00  0.00     0.014 C 
BRANCH   4   5
HETATM    5  C4  UNL     1      19.636   9.930  49.127  1.00  0.00     0.005 C 
BRANCH   5   6
HETATM    6  C5  UNL     1      20.509   8.870  49.700  1.00  0.00     0.054 C 
BRANCH   6   7
HETATM    7  C6  UNL     1      21.397   8.154  48.715  1.00  0.00     0.230 C 
HETATM    8  O1  UNL     1      22.700   8.496  49.028  1.00  0.00    -0.347 OA
HETATM    9  C7  UNL     1      23.678   7.949  48.233  1.00  0.00     0.302 C 
HETATM   10  N2  UNL     1      24.162   6.682  48.718  1.00  0.00    -0.322 N 
HETATM   11  C8  UNL     1      23.398   5.768  49.275  1.00  0.00     0.072 A 
HETATM   12  C19 UNL     1      25.388   6.142  48.703  1.00  0.00     0.048 A 
HETATM   13  C9  UNL     1      23.971   4.608  49.677  1.00  0.00     0.016 A 
HETATM   14  C20 UNL     1      22.051   5.664  49.455  1.00  0.00     0.046 C 
HETATM   15  C10 UNL     1      24.023   3.565  50.446  1.00  0.00     0.011 C 
HETATM   16  C14 UNL     1      25.319   4.859  49.279  1.00  0.00     0.004 A 
HETATM   17  C11 UNL     1      24.603   2.291  50.895  1.00  0.00     0.063 C 
HETATM   18  C13 UNL     1      23.457   3.917  51.818  1.00  0.00     0.182 C 
HETATM   19  C12 UNL     1      25.281   2.661  52.192  1.00  0.00     0.126 C 
HETATM   20  N3  UNL     1      24.049   3.117  52.905  1.00  0.00    -0.368 N 
HETATM   21  H16 UNL     1      24.014   2.737  53.888  1.00  0.00     0.161 HD
HETATM   22  O2  UNL     1      22.697   4.565  52.661  1.00  0.00    -0.172 OA
HETATM   23  C15 UNL     1      26.596   4.326  49.247  1.00  0.00     0.014 A 
HETATM   24  C16 UNL     1      27.751   4.885  48.762  1.00  0.00     0.001 A 
HETATM   25  C17 UNL     1      27.678   6.140  48.227  1.00  0.00     0.002 A 
HETATM   26  C18 UNL     1      26.476   6.801  48.188  1.00  0.00     0.030 A 
HETATM   27  C21 UNL     1      21.195   4.665  50.043  1.00  0.00     0.100 C 
HETATM   28  N4  UNL     1      21.174   6.712  48.958  1.00  0.00    -0.320 N 
HETATM   29  C22 UNL     1      19.935   4.772  49.154  1.00  0.00    -0.025 A 
HETATM   30  C23 UNL     1      18.969   3.806  48.963  1.00  0.00     0.010 A 
HETATM   31  C27 UNL     1      19.897   6.088  48.776  1.00  0.00     0.043 A 
HETATM   32  C24 UNL     1      17.847   4.303  48.308  1.00  0.00     0.001 A 
HETATM   33  C25 UNL     1      17.746   5.628  47.906  1.00  0.00     0.002 A 
HETATM   34  C26 UNL     1      18.762   6.528  48.134  1.00  0.00     0.030 A 
ENDBRANCH   6   7
ENDBRANCH   5   6
ENDBRANCH   4   5
ENDBRANCH   3   4
TORSDOF 4
ENDMDL
