MODEL 1
REMARK VINA RESULT:      -9.7      0.000      0.000
REMARK  3 active torsions:
REMARK  status: ('A' for Active; 'I' for Inactive)
REMARK    1  A    between atoms: C2_2  and  C3_3 
REMARK    2  A    between atoms: C8_8  and  N1_9 
REMARK    3  A    between atoms: N1_9  and  C9_10 
ROOT
HETATM    1  C3  UNL     1      26.194   1.779  52.472  1.00  0.00     0.033 C 
HETATM    2  C4  UNL     1      26.313   2.602  51.404  1.00  0.00     0.030 C 
HETATM    3  C5  UNL     1      26.675   3.313  50.203  1.00  0.00     0.015 C 
HETATM    4  C6  UNL     1      25.654   3.513  49.354  1.00  0.00    -0.007 C 
HETATM    5  C7  UNL     1      24.735   4.205  50.027  1.00  0.00     0.070 A 
HETATM    6  C8  UNL     1      24.919   5.554  50.175  1.00  0.00     0.144 A 
HETATM    7  N2  UNL     1      24.008   6.230  50.898  1.00  0.00    -0.223 NA
HETATM    8  C15 UNL     1      23.006   5.466  51.393  1.00  0.00     0.237 A 
HETATM    9  N3  UNL     1      22.939   4.156  51.177  1.00  0.00    -0.220 NA
HETATM   10  C16 UNL     1      23.775   3.375  50.480  1.00  0.00     0.184 A 
HETATM   11  N4  UNL     1      23.333   2.184  50.497  1.00  0.00    -0.158 NA
HETATM   12  N5  UNL     1      22.201   1.689  51.143  1.00  0.00    -0.312 N 
HETATM   13  C17 UNL     1      21.455   0.572  50.631  1.00  0.00     0.142 C 
HETATM   14  C18 UNL     1      20.266   0.210  51.419  1.00  0.00     0.025 C 
HETATM   15  C19 UNL     1      20.334  -0.092  52.867  1.00  0.00    -0.015 C 
HETATM   16  C20 UNL     1      18.895  -0.474  53.279  1.00  0.00     0.010 C 
HETATM   17  C21 UNL     1      21.198  -1.197  53.351  1.00  0.00     0.031 C 
HETATM   18  C22 UNL     1      22.649  -0.966  53.141  1.00  0.00     0.181 C 
HETATM   19  O1  UNL     1      23.079   0.208  53.868  1.00  0.00    -0.304 OA
HETATM   20  C23 UNL     1      24.228   0.789  53.395  1.00  0.00     0.365 C 
HETATM   21  O2  UNL     1      24.935   0.438  52.424  1.00  0.00    -0.238 OA
HETATM   22  N6  UNL     1      25.188   1.804  53.492  1.00  0.00    -0.303 N 
HETATM   23  H12 UNL     1      21.841   2.095  52.009  1.00  0.00     0.182 HD
HETATM   24  H25 UNL     1      25.608   2.619  53.919  1.00  0.00     0.171 HD
ENDROOT
BRANCH   6  25
HETATM   25  N1  UNL     1      26.045   6.103  49.572  1.00  0.00    -0.340 N 
HETATM   26  H6  UNL     1      25.588   7.074  49.667  1.00  0.00     0.167 HD
BRANCH  25  27
HETATM   27  C9  UNL     1      27.149   6.667  48.974  1.00  0.00     0.035 A 
HETATM   28  C10 UNL     1      28.163   6.121  48.179  1.00  0.00     0.029 A 
HETATM   29  C11 UNL     1      29.175   6.909  47.684  1.00  0.00     0.004 A 
HETATM   30  C12 UNL     1      29.111   8.221  48.020  1.00  0.00     0.024 A 
HETATM   31  C13 UNL     1      28.172   8.863  48.785  1.00  0.00     0.036 A 
HETATM   32 CL1  UNL     1      28.320  10.584  49.065  1.00  0.00    -0.084 Cl
HETATM   33  C14 UNL     1      27.169   8.039  49.267  1.00  0.00     0.053 A 
ENDBRANCH  25  27
ENDBRANCH   6  25
BRANCH   1  34
HETATM   34  C2  UNL     1      27.280   0.864  52.357  1.00  0.00     0.003 C 
HETATM   35  C1  UNL     1      28.244   1.061  53.218  1.00  0.00     0.033 C 
ENDBRANCH   1  34
TORSDOF 3
ENDMDL
MODEL 2
REMARK VINA RESULT:      -8.9      2.549      4.137
REMARK  3 active torsions:
REMARK  status: ('A' for Active; 'I' for Inactive)
REMARK    1  A    between atoms: C2_2  and  C3_3 
REMARK    2  A    between atoms: C8_8  and  N1_9 
REMARK    3  A    between atoms: N1_9  and  C9_10 
ROOT
HETATM    1  C3  UNL     1      22.231   3.125  47.645  1.00  0.00     0.033 C 
HETATM    2  C4  UNL     1      23.115   4.055  48.072  1.00  0.00     0.030 C 
HETATM    3  C5  UNL     1      23.906   5.228  48.352  1.00  0.00     0.015 C 
HETATM    4  C6  UNL     1      24.104   5.458  49.659  1.00  0.00    -0.007 C 
HETATM    5  C7  UNL     1      24.715   4.377  50.144  1.00  0.00     0.070 A 
HETATM    6  C8  UNL     1      26.061   4.243  49.930  1.00  0.00     0.144 A 
HETATM    7  N2  UNL     1      26.654   3.124  50.382  1.00  0.00    -0.223 NA
HETATM    8  C15 UNL     1      25.819   2.259  51.004  1.00  0.00     0.237 A 
HETATM    9  N3  UNL     1      24.521   2.507  51.151  1.00  0.00    -0.220 NA
HETATM   10  C16 UNL     1      23.819   3.575  50.749  1.00  0.00     0.184 A 
HETATM   11  N4  UNL     1      22.609   3.429  51.111  1.00  0.00    -0.158 NA
HETATM   12  N5  UNL     1      22.028   2.351  51.777  1.00  0.00    -0.312 N 
HETATM   13  C17 UNL     1      20.907   2.513  52.662  1.00  0.00     0.142 C 
HETATM   14  C18 UNL     1      20.448   1.275  53.311  1.00  0.00     0.025 C 
HETATM   15  C19 UNL     1      20.071   0.067  52.542  1.00  0.00    -0.015 C 
HETATM   16  C20 UNL     1      19.601  -0.964  53.592  1.00  0.00     0.010 C 
HETATM   17  C21 UNL     1      18.983   0.143  51.536  1.00  0.00     0.031 C 
HETATM   18  C22 UNL     1      19.292   1.014  50.375  1.00  0.00     0.181 C 
HETATM   19  O1  UNL     1      20.443   0.506  49.661  1.00  0.00    -0.304 OA
HETATM   20  C23 UNL     1      21.101   1.436  48.897  1.00  0.00     0.365 C 
HETATM   21  O2  UNL     1      20.837   2.650  48.748  1.00  0.00    -0.238 OA
HETATM   22  N6  UNL     1      22.153   1.746  48.025  1.00  0.00    -0.303 N 
HETATM   23  H12 UNL     1      22.369   1.393  51.674  1.00  0.00     0.182 HD
HETATM   24  H25 UNL     1      22.962   1.521  47.462  1.00  0.00     0.171 HD
ENDROOT
BRANCH   6  25
HETATM   25  N1  UNL     1      26.694   5.277  49.248  1.00  0.00    -0.340 N 
HETATM   26  H6  UNL     1      25.930   5.208  48.491  1.00  0.00     0.167 HD
BRANCH  25  27
HETATM   27  C9  UNL     1      27.305   6.298  48.557  1.00  0.00     0.035 A 
HETATM   28  C10 UNL     1      26.851   7.558  48.154  1.00  0.00     0.029 A 
HETATM   29  C11 UNL     1      27.671   8.420  47.466  1.00  0.00     0.004 A 
HETATM   30  C12 UNL     1      28.923   7.960  47.217  1.00  0.00     0.024 A 
HETATM   31  C13 UNL     1      29.475   6.754  47.561  1.00  0.00     0.036 A 
HETATM   32 CL1  UNL     1      31.133   6.407  47.118  1.00  0.00    -0.084 Cl
HETATM   33  C14 UNL     1      28.620   5.911  48.252  1.00  0.00     0.053 A 
ENDBRANCH  25  27
ENDBRANCH   6  25
BRANCH   1  34
HETATM   34  C2  UNL     1      21.373   3.817  46.739  1.00  0.00     0.003 C 
HETATM   35  C1  UNL     1      21.811   3.857  45.508  1.00  0.00     0.033 C 
ENDBRANCH   1  34
TORSDOF 3
ENDMDL
MODEL 3
REMARK VINA RESULT:      -8.8      2.260      3.398
REMARK  3 active torsions:
REMARK  status: ('A' for Active; 'I' for Inactive)
REMARK    1  A    between atoms: C2_2  and  C3_3 
REMARK    2  A    between atoms: C8_8  and  N1_9 
REMARK    3  A    between atoms: N1_9  and  C9_10 
ROOT
HETATM    1  C3  UNL     1      22.604   0.616  52.997  1.00  0.00     0.033 C 
HETATM    2  C4  UNL     1      23.064   1.292  51.919  1.00  0.00     0.030 C 
HETATM    3  C5  UNL     1      23.759   1.801  50.763  1.00  0.00     0.015 C 
HETATM    4  C6  UNL     1      22.959   2.094  49.726  1.00  0.00    -0.007 C 
HETATM    5  C7  UNL     1      22.090   3.004  50.165  1.00  0.00     0.070 A 
HETATM    6  C8  UNL     1      22.506   4.307  50.256  1.00  0.00     0.144 A 
HETATM    7  N2  UNL     1      21.634   5.204  50.747  1.00  0.00    -0.223 NA
HETATM    8  C15 UNL     1      20.432   4.688  51.095  1.00  0.00     0.237 A 
HETATM    9  N3  UNL     1      20.148   3.396  50.957  1.00  0.00    -0.220 NA
HETATM   10  C16 UNL     1      20.924   2.411  50.484  1.00  0.00     0.184 A 
HETATM   11  N4  UNL     1      20.261   1.327  50.496  1.00  0.00    -0.158 NA
HETATM   12  N5  UNL     1      18.961   1.111  50.949  1.00  0.00    -0.312 N 
HETATM   13  C17 UNL     1      18.111   0.100  50.381  1.00  0.00     0.142 C 
HETATM   14  C18 UNL     1      16.756   0.039  50.953  1.00  0.00     0.025 C 
HETATM   15  C19 UNL     1      16.513  -0.122  52.405  1.00  0.00    -0.015 C 
HETATM   16  C20 UNL     1      14.978  -0.196  52.562  1.00  0.00     0.010 C 
HETATM   17  C21 UNL     1      17.048  -1.310  53.115  1.00  0.00     0.031 C 
HETATM   18  C22 UNL     1      18.530  -1.366  53.167  1.00  0.00     0.181 C 
HETATM   19  O1  UNL     1      19.049  -0.221  53.883  1.00  0.00    -0.304 OA
HETATM   20  C23 UNL     1      20.354   0.093  53.597  1.00  0.00     0.365 C 
HETATM   21  O2  UNL     1      21.135  -0.475  52.802  1.00  0.00    -0.238 OA
HETATM   22  N6  UNL     1      21.462   0.924  53.806  1.00  0.00    -0.303 N 
HETATM   23  H12 UNL     1      18.543   1.660  51.703  1.00  0.00     0.182 HD
HETATM   24  H25 UNL     1      21.953   1.688  54.249  1.00  0.00     0.171 HD
ENDROOT
BRANCH   6  25
HETATM   25  N1  UNL     1      23.804   4.580  49.840  1.00  0.00    -0.340 N 
HETATM   26  H6  UNL     1      23.402   5.314  49.161  1.00  0.00     0.167 HD
BRANCH  25  27
HETATM   27  C9  UNL     1      25.081   4.865  49.413  1.00  0.00     0.035 A 
HETATM   28  C10 UNL     1      26.261   4.114  49.425  1.00  0.00     0.029 A 
HETATM   29  C11 UNL     1      27.433   4.628  48.923  1.00  0.00     0.004 A 
HETATM   30  C12 UNL     1      27.352   5.888  48.428  1.00  0.00     0.024 A 
HETATM   31  C13 UNL     1      26.260   6.712  48.362  1.00  0.00     0.036 A 
HETATM   32 CL1  UNL     1      26.426   8.308  47.662  1.00  0.00    -0.084 Cl
HETATM   33  C14 UNL     1      25.098   6.163  48.877  1.00  0.00     0.053 A 
ENDBRANCH  25  27
ENDBRANCH   6  25
BRANCH   1  34
HETATM   34  C2  UNL     1      23.494  -0.487  53.151  1.00  0.00     0.003 C 
HETATM   35  C1  UNL     1      24.571  -0.218  53.840  1.00  0.00     0.033 C 
ENDBRANCH   1  34
TORSDOF 3
ENDMDL
MODEL 4
REMARK VINA RESULT:      -8.4      5.085      7.458
REMARK  3 active torsions:
REMARK  status: ('A' for Active; 'I' for Inactive)
REMARK    1  A    between atoms: C2_2  and  C3_3 
REMARK    2  A    between atoms: C8_8  and  N1_9 
REMARK    3  A    between atoms: N1_9  and  C9_10 
ROOT
HETATM    1  C3  UNL     1      20.612   2.829  48.739  1.00  0.00     0.033 C 
HETATM    2  C4  UNL     1      21.389   2.814  49.846  1.00  0.00     0.030 C 
HETATM    3  C5  UNL     1      22.376   3.000  50.881  1.00  0.00     0.015 C 
HETATM    4  C6  UNL     1      21.860   3.203  52.103  1.00  0.00    -0.007 C 
HETATM    5  C7  UNL     1      21.114   2.133  52.380  1.00  0.00     0.070 A 
HETATM    6  C8  UNL     1      21.746   0.993  52.800  1.00  0.00     0.144 A 
HETATM    7  N2  UNL     1      20.985  -0.091  53.027  1.00  0.00    -0.223 NA
HETATM    8  C15 UNL     1      19.663   0.094  52.805  1.00  0.00     0.237 A 
HETATM    9  N3  UNL     1      19.168   1.258  52.395  1.00  0.00    -0.220 NA
HETATM   10  C16 UNL     1      19.816   2.402  52.138  1.00  0.00     0.184 A 
HETATM   11  N4  UNL     1      18.968   3.285  51.795  1.00  0.00    -0.158 NA
HETATM   12  N5  UNL     1      17.589   3.150  51.649  1.00  0.00    -0.312 N 
HETATM   13  C17 UNL     1      16.684   4.243  51.881  1.00  0.00     0.142 C 
HETATM   14  C18 UNL     1      15.260   3.912  51.721  1.00  0.00     0.025 C 
HETATM   15  C19 UNL     1      14.719   3.312  50.480  1.00  0.00    -0.015 C 
HETATM   16  C20 UNL     1      13.196   3.184  50.711  1.00  0.00     0.010 C 
HETATM   17  C21 UNL     1      14.871   4.025  49.188  1.00  0.00     0.031 C 
HETATM   18  C22 UNL     1      16.278   4.157  48.733  1.00  0.00     0.181 C 
HETATM   19  O1  UNL     1      16.860   2.850  48.524  1.00  0.00    -0.304 OA
HETATM   20  C23 UNL     1      18.231   2.817  48.573  1.00  0.00     0.365 C 
HETATM   21  O2  UNL     1      19.026   3.761  48.779  1.00  0.00    -0.238 OA
HETATM   22  N6  UNL     1      19.418   2.077  48.494  1.00  0.00    -0.303 N 
HETATM   23  H12 UNL     1      17.148   2.270  51.375  1.00  0.00     0.182 HD
HETATM   24  H25 UNL     1      19.952   1.232  48.347  1.00  0.00     0.171 HD
ENDROOT
BRANCH   6  25
HETATM   25  N1  UNL     1      23.128   1.059  52.942  1.00  0.00    -0.340 N 
HETATM   26  H6  UNL     1      23.069   0.227  53.624  1.00  0.00     0.167 HD
BRANCH  25  27
HETATM   27  C9  UNL     1      24.494   1.108  53.098  1.00  0.00     0.035 A 
HETATM   28  C10 UNL     1      25.361   2.155  53.430  1.00  0.00     0.029 A 
HETATM   29  C11 UNL     1      26.715   1.947  53.536  1.00  0.00     0.004 A 
HETATM   30  C12 UNL     1      27.130   0.678  53.297  1.00  0.00     0.024 A 
HETATM   31  C13 UNL     1      26.380  -0.420  52.968  1.00  0.00     0.036 A 
HETATM   32 CL1  UNL     1      27.171  -1.961  52.716  1.00  0.00    -0.084 Cl
HETATM   33  C14 UNL     1      25.020  -0.173  52.870  1.00  0.00     0.053 A 
ENDBRANCH  25  27
ENDBRANCH   6  25
BRANCH   1  34
HETATM   34  C2  UNL     1      21.228   3.773  47.865  1.00  0.00     0.003 C 
HETATM   35  C1  UNL     1      22.037   3.243  46.986  1.00  0.00     0.033 C 
ENDBRANCH   1  34
TORSDOF 3
ENDMDL
MODEL 5
REMARK VINA RESULT:      -8.4      4.408      6.866
REMARK  3 active torsions:
REMARK  status: ('A' for Active; 'I' for Inactive)
REMARK    1  A    between atoms: C2_2  and  C3_3 
REMARK    2  A    between atoms: C8_8  and  N1_9 
REMARK    3  A    between atoms: N1_9  and  C9_10 
ROOT
HETATM    1  C3  UNL     1      26.112   5.201  49.725  1.00  0.00     0.033 C 
HETATM    2  C4  UNL     1      27.217   5.557  49.031  1.00  0.00     0.030 C 
HETATM    3  C5  UNL     1      28.386   5.659  48.194  1.00  0.00     0.015 C 
HETATM    4  C6  UNL     1      28.390   6.729  47.383  1.00  0.00    -0.007 C 
HETATM    5  C7  UNL     1      28.307   7.800  48.173  1.00  0.00     0.070 A 
HETATM    6  C8  UNL     1      29.445   8.231  48.802  1.00  0.00     0.144 A 
HETATM    7  N2  UNL     1      29.336   9.282  49.633  1.00  0.00    -0.223 NA
HETATM    8  C15 UNL     1      28.084   9.786  49.739  1.00  0.00     0.237 A 
HETATM    9  N3  UNL     1      27.054   9.275  49.070  1.00  0.00    -0.220 NA
HETATM   10  C16 UNL     1      27.035   8.241  48.219  1.00  0.00     0.184 A 
HETATM   11  N4  UNL     1      25.852   8.096  47.776  1.00  0.00    -0.158 NA
HETATM   12  N5  UNL     1      24.710   8.823  48.105  1.00  0.00    -0.312 N 
HETATM   13  C17 UNL     1      23.637   9.028  47.170  1.00  0.00     0.142 C 
HETATM   14  C18 UNL     1      22.528   9.854  47.672  1.00  0.00     0.025 C 
HETATM   15  C19 UNL     1      21.801   9.533  48.921  1.00  0.00    -0.015 C 
HETATM   16  C20 UNL     1      20.695  10.605  49.044  1.00  0.00     0.010 C 
HETATM   17  C21 UNL     1      21.112   8.225  49.059  1.00  0.00     0.031 C 
HETATM   18  C22 UNL     1      22.028   7.058  49.072  1.00  0.00     0.181 C 
HETATM   19  O1  UNL     1      22.929   7.141  50.200  1.00  0.00    -0.304 OA
HETATM   20  C23 UNL     1      24.089   6.422  50.065  1.00  0.00     0.365 C 
HETATM   21  O2  UNL     1      24.462   5.720  49.098  1.00  0.00    -0.238 OA
HETATM   22  N6  UNL     1      25.320   6.017  50.597  1.00  0.00    -0.303 N 
HETATM   23  H12 UNL     1      24.575   9.251  49.024  1.00  0.00     0.182 HD
HETATM   24  H25 UNL     1      26.027   5.974  51.318  1.00  0.00     0.171 HD
ENDROOT
BRANCH   6  25
HETATM   25  N1  UNL     1      30.614   7.529  48.532  1.00  0.00    -0.340 N 
HETATM   26  H6  UNL     1      30.177   7.215  47.598  1.00  0.00     0.167 HD
BRANCH  25  27
HETATM   27  C9  UNL     1      31.762   6.826  48.245  1.00  0.00     0.035 A 
HETATM   28  C10 UNL     1      31.975   5.493  47.875  1.00  0.00     0.029 A 
HETATM   29  C11 UNL     1      33.242   5.020  47.630  1.00  0.00     0.004 A 
HETATM   30  C12 UNL     1      34.241   5.927  47.774  1.00  0.00     0.024 A 
HETATM   31  C13 UNL     1      34.153   7.247  48.128  1.00  0.00     0.036 A 
HETATM   32 CL1  UNL     1      35.611   8.209  48.237  1.00  0.00    -0.084 Cl
HETATM   33  C14 UNL     1      32.862   7.689  48.367  1.00  0.00     0.053 A 
ENDBRANCH  25  27
ENDBRANCH   6  25
BRANCH   1  34
HETATM   34  C2  UNL     1      25.889   3.832  49.392  1.00  0.00     0.003 C 
HETATM   35  C1  UNL     1      26.493   2.981  50.178  1.00  0.00     0.033 C 
ENDBRANCH   1  34
TORSDOF 3
ENDMDL
MODEL 6
REMARK VINA RESULT:      -8.3      1.564      1.768
REMARK  3 active torsions:
REMARK  status: ('A' for Active; 'I' for Inactive)
REMARK    1  A    between atoms: C2_2  and  C3_3 
REMARK    2  A    between atoms: C8_8  and  N1_9 
REMARK    3  A    between atoms: N1_9  and  C9_10 
ROOT
HETATM    1  C3  UNL     1      25.162   2.371  52.034  1.00  0.00     0.033 C 
HETATM    2  C4  UNL     1      25.099   3.138  50.921  1.00  0.00     0.030 C 
HETATM    3  C5  UNL     1      25.282   3.817  49.663  1.00  0.00     0.015 C 
HETATM    4  C6  UNL     1      24.190   3.832  48.882  1.00  0.00    -0.007 C 
HETATM    5  C7  UNL     1      23.233   4.438  49.585  1.00  0.00     0.070 A 
HETATM    6  C8  UNL     1      23.246   5.806  49.652  1.00  0.00     0.144 A 
HETATM    7  N2  UNL     1      22.303   6.400  50.405  1.00  0.00    -0.223 NA
HETATM    8  C15 UNL     1      21.447   5.544  51.010  1.00  0.00     0.237 A 
HETATM    9  N3  UNL     1      21.540   4.225  50.865  1.00  0.00    -0.220 NA
HETATM   10  C16 UNL     1      22.425   3.520  50.148  1.00  0.00     0.184 A 
HETATM   11  N4  UNL     1      22.147   2.284  50.257  1.00  0.00    -0.158 NA
HETATM   12  N5  UNL     1      21.138   1.686  51.009  1.00  0.00    -0.312 N 
HETATM   13  C17 UNL     1      20.514   0.453  50.610  1.00  0.00     0.142 C 
HETATM   14  C18 UNL     1      19.439  -0.012  51.500  1.00  0.00     0.025 C 
HETATM   15  C19 UNL     1      19.643  -0.216  52.953  1.00  0.00    -0.015 C 
HETATM   16  C20 UNL     1      18.298  -0.756  53.488  1.00  0.00     0.010 C 
HETATM   17  C21 UNL     1      20.677  -1.170  53.426  1.00  0.00     0.031 C 
HETATM   18  C22 UNL     1      22.066  -0.765  53.098  1.00  0.00     0.181 C 
HETATM   19  O1  UNL     1      22.384   0.495  53.733  1.00  0.00    -0.304 OA
HETATM   20  C23 UNL     1      23.412   1.190  53.148  1.00  0.00     0.365 C 
HETATM   21  O2  UNL     1      24.093   0.878  52.146  1.00  0.00    -0.238 OA
HETATM   22  N6  UNL     1      24.232   2.326  53.123  1.00  0.00    -0.303 N 
HETATM   23  H12 UNL     1      20.785   2.092  51.878  1.00  0.00     0.182 HD
HETATM   24  H25 UNL     1      24.567   3.211  53.476  1.00  0.00     0.171 HD
ENDROOT
BRANCH   6  25
HETATM   25  N1  UNL     1      24.246   6.459  48.941  1.00  0.00    -0.340 N 
HETATM   26  H6  UNL     1      24.627   6.834  49.876  1.00  0.00     0.167 HD
BRANCH  25  27
HETATM   27  C9  UNL     1      25.243   7.116  48.256  1.00  0.00     0.035 A 
HETATM   28  C10 UNL     1      25.208   8.166  47.331  1.00  0.00     0.029 A 
HETATM   29  C11 UNL     1      26.364   8.664  46.781  1.00  0.00     0.004 A 
HETATM   30  C12 UNL     1      27.511   8.070  47.197  1.00  0.00     0.024 A 
HETATM   31  C13 UNL     1      27.666   7.043  48.091  1.00  0.00     0.036 A 
HETATM   32 CL1  UNL     1      29.274   6.459  48.461  1.00  0.00    -0.084 Cl
HETATM   33  C14 UNL     1      26.481   6.566  48.625  1.00  0.00     0.053 A 
ENDBRANCH  25  27
ENDBRANCH   6  25
BRANCH   1  34
HETATM   34  C2  UNL     1      26.351   1.598  51.886  1.00  0.00     0.003 C 
HETATM   35  C1  UNL     1      27.423   2.161  52.375  1.00  0.00     0.033 C 
ENDBRANCH   1  34
TORSDOF 3
ENDMDL
MODEL 7
REMARK VINA RESULT:      -8.2      3.467      8.343
REMARK  3 active torsions:
REMARK  status: ('A' for Active; 'I' for Inactive)
REMARK    1  A    between atoms: C2_2  and  C3_3 
REMARK    2  A    between atoms: C8_8  and  N1_9 
REMARK    3  A    between atoms: N1_9  and  C9_10 
ROOT
HETATM    1  C3  UNL     1      25.857   2.612  50.787  1.00  0.00     0.033 C 
HETATM    2  C4  UNL     1      24.576   2.473  51.200  1.00  0.00     0.030 C 
HETATM    3  C5  UNL     1      23.331   2.295  51.906  1.00  0.00     0.015 C 
HETATM    4  C6  UNL     1      22.398   3.215  51.615  1.00  0.00    -0.007 C 
HETATM    5  C7  UNL     1      22.185   3.134  50.302  1.00  0.00     0.070 A 
HETATM    6  C8  UNL     1      21.384   2.126  49.836  1.00  0.00     0.144 A 
HETATM    7  N2  UNL     1      21.219   2.028  48.505  1.00  0.00    -0.223 NA
HETATM    8  C15 UNL     1      21.883   2.963  47.787  1.00  0.00     0.237 A 
HETATM    9  N3  UNL     1      22.634   3.898  48.362  1.00  0.00    -0.220 NA
HETATM   10  C16 UNL     1      22.875   4.099  49.664  1.00  0.00     0.184 A 
HETATM   11  N4  UNL     1      23.626   5.117  49.789  1.00  0.00    -0.158 NA
HETATM   12  N5  UNL     1      24.179   5.914  48.788  1.00  0.00    -0.312 N 
HETATM   13  C17 UNL     1      24.452   7.311  48.986  1.00  0.00     0.142 C 
HETATM   14  C18 UNL     1      24.997   8.007  47.809  1.00  0.00     0.025 C 
HETATM   15  C19 UNL     1      26.215   7.543  47.106  1.00  0.00    -0.015 C 
HETATM   16  C20 UNL     1      26.465   8.576  45.985  1.00  0.00     0.010 C 
HETATM   17  C21 UNL     1      27.498   7.433  47.845  1.00  0.00     0.031 C 
HETATM   18  C22 UNL     1      27.494   6.400  48.910  1.00  0.00     0.181 C 
HETATM   19  O1  UNL     1      27.263   5.092  48.339  1.00  0.00    -0.304 OA
HETATM   20  C23 UNL     1      26.772   4.159  49.217  1.00  0.00     0.365 C 
HETATM   21  O2  UNL     1      26.498   4.299  50.429  1.00  0.00    -0.238 OA
HETATM   22  N6  UNL     1      26.330   2.851  49.456  1.00  0.00    -0.303 N 
HETATM   23  H12 UNL     1      24.415   5.549  47.863  1.00  0.00     0.182 HD
HETATM   24  H25 UNL     1      26.142   1.894  49.192  1.00  0.00     0.171 HD
ENDROOT
BRANCH   6  25
HETATM   25  N1  UNL     1      20.822   1.282  50.787  1.00  0.00    -0.340 N 
HETATM   26  H6  UNL     1      20.090   0.988  50.053  1.00  0.00     0.167 HD
BRANCH  25  27
HETATM   27  C9  UNL     1      20.248   0.442  51.714  1.00  0.00     0.035 A 
HETATM   28  C10 UNL     1      18.925   0.028  51.909  1.00  0.00     0.029 A 
HETATM   29  C11 UNL     1      18.597  -0.841  52.922  1.00  0.00     0.004 A 
HETATM   30  C12 UNL     1      19.633  -1.252  53.696  1.00  0.00     0.024 A 
HETATM   31  C13 UNL     1      20.958  -0.917  53.599  1.00  0.00     0.036 A 
HETATM   32 CL1  UNL     1      22.104  -1.599  54.734  1.00  0.00    -0.084 Cl
HETATM   33  C14 UNL     1      21.251  -0.040  52.569  1.00  0.00     0.053 A 
ENDBRANCH  25  27
ENDBRANCH   6  25
BRANCH   1  34
HETATM   34  C2  UNL     1      26.643   2.485  51.970  1.00  0.00     0.003 C 
HETATM   35  C1  UNL     1      26.960   1.255  52.276  1.00  0.00     0.033 C 
ENDBRANCH   1  34
TORSDOF 3
ENDMDL
MODEL 8
REMARK VINA RESULT:      -8.1      4.707      7.491
REMARK  3 active torsions:
REMARK  status: ('A' for Active; 'I' for Inactive)
REMARK    1  A    between atoms: C2_2  and  C3_3 
REMARK    2  A    between atoms: C8_8  and  N1_9 
REMARK    3  A    between atoms: N1_9  and  C9_10 
ROOT
HETATM    1  C3  UNL     1      18.895   1.304  51.390  1.00  0.00     0.033 C 
HETATM    2  C4  UNL     1      20.223   1.149  51.182  1.00  0.00     0.030 C 
HETATM    3  C5  UNL     1      21.572   0.698  50.948  1.00  0.00     0.015 C 
HETATM    4  C6  UNL     1      22.210   1.356  49.968  1.00  0.00    -0.007 C 
HETATM    5  C7  UNL     1      22.220   2.641  50.322  1.00  0.00     0.070 A 
HETATM    6  C8  UNL     1      23.146   3.051  51.245  1.00  0.00     0.144 A 
HETATM    7  N2  UNL     1      23.112   4.339  51.629  1.00  0.00    -0.223 NA
HETATM    8  C15 UNL     1      22.144   5.077  51.036  1.00  0.00     0.237 A 
HETATM    9  N3  UNL     1      21.301   4.558  50.148  1.00  0.00    -0.220 NA
HETATM   10  C16 UNL     1      21.234   3.302  49.687  1.00  0.00     0.184 A 
HETATM   11  N4  UNL     1      20.300   3.231  48.828  1.00  0.00    -0.158 NA
HETATM   12  N5  UNL     1      19.424   4.233  48.415  1.00  0.00    -0.312 N 
HETATM   13  C17 UNL     1      18.873   4.269  47.088  1.00  0.00     0.142 C 
HETATM   14  C18 UNL     1      18.000   5.421  46.811  1.00  0.00     0.025 C 
HETATM   15  C19 UNL     1      16.824   5.745  47.651  1.00  0.00    -0.015 C 
HETATM   16  C20 UNL     1      16.166   6.975  46.985  1.00  0.00     0.010 C 
HETATM   17  C21 UNL     1      15.738   4.748  47.818  1.00  0.00     0.031 C 
HETATM   18  C22 UNL     1      16.151   3.521  48.543  1.00  0.00     0.181 C 
HETATM   19  O1  UNL     1      16.580   3.852  49.883  1.00  0.00    -0.304 OA
HETATM   20  C23 UNL     1      17.407   2.926  50.468  1.00  0.00     0.365 C 
HETATM   21  O2  UNL     1      17.834   1.852  49.990  1.00  0.00    -0.238 OA
HETATM   22  N6  UNL     1      18.171   2.526  51.572  1.00  0.00    -0.303 N 
HETATM   23  H12 UNL     1      19.132   4.996  49.029  1.00  0.00     0.182 HD
HETATM   24  H25 UNL     1      18.528   2.625  52.512  1.00  0.00     0.171 HD
ENDROOT
BRANCH   6  25
HETATM   25  N1  UNL     1      24.033   2.089  51.713  1.00  0.00    -0.340 N 
HETATM   26  H6  UNL     1      24.367   2.797  52.454  1.00  0.00     0.167 HD
BRANCH  25  27
HETATM   27  C9  UNL     1      24.920   1.151  52.191  1.00  0.00     0.035 A 
HETATM   28  C10 UNL     1      26.191   0.758  51.755  1.00  0.00     0.029 A 
HETATM   29  C11 UNL     1      26.897  -0.216  52.419  1.00  0.00     0.004 A 
HETATM   30  C12 UNL     1      26.278  -0.750  53.501  1.00  0.00     0.024 A 
HETATM   31  C13 UNL     1      25.046  -0.446  54.018  1.00  0.00     0.036 A 
HETATM   32 CL1  UNL     1      24.477  -1.289  55.444  1.00  0.00    -0.084 Cl
HETATM   33  C14 UNL     1      24.363   0.539  53.325  1.00  0.00     0.053 A 
ENDBRANCH  25  27
ENDBRANCH   6  25
BRANCH   1  34
HETATM   34  C2  UNL     1      18.360  -0.018  51.373  1.00  0.00     0.003 C 
HETATM   35  C1  UNL     1      18.370  -0.618  52.533  1.00  0.00     0.033 C 
ENDBRANCH   1  34
TORSDOF 3
ENDMDL
MODEL 9
REMARK VINA RESULT:      -8.1      4.155      5.869
REMARK  3 active torsions:
REMARK  status: ('A' for Active; 'I' for Inactive)
REMARK    1  A    between atoms: C2_2  and  C3_3 
REMARK    2  A    between atoms: C8_8  and  N1_9 
REMARK    3  A    between atoms: N1_9  and  C9_10 
ROOT
HETATM    1  C3  UNL     1      21.438   0.197  53.271  1.00  0.00     0.033 C 
HETATM    2  C4  UNL     1      22.723   0.399  52.901  1.00  0.00     0.030 C 
HETATM    3  C5  UNL     1      24.119   0.325  52.548  1.00  0.00     0.015 C 
HETATM    4  C6  UNL     1      24.429   0.945  51.398  1.00  0.00    -0.007 C 
HETATM    5  C7  UNL     1      24.070   2.220  51.549  1.00  0.00     0.070 A 
HETATM    6  C8  UNL     1      24.901   3.047  52.257  1.00  0.00     0.144 A 
HETATM    7  N2  UNL     1      24.502   4.317  52.443  1.00  0.00    -0.223 NA
HETATM    8  C15 UNL     1      23.303   4.616  51.890  1.00  0.00     0.237 A 
HETATM    9  N3  UNL     1      22.587   3.717  51.220  1.00  0.00    -0.220 NA
HETATM   10  C16 UNL     1      22.874   2.433  50.969  1.00  0.00     0.184 A 
HETATM   11  N4  UNL     1      21.935   1.933  50.273  1.00  0.00    -0.158 NA
HETATM   12  N5  UNL     1      20.757   2.541  49.843  1.00  0.00    -0.312 N 
HETATM   13  C17 UNL     1      20.105   2.165  48.618  1.00  0.00     0.142 C 
HETATM   14  C18 UNL     1      18.895   2.939  48.299  1.00  0.00     0.025 C 
HETATM   15  C19 UNL     1      17.757   3.058  49.239  1.00  0.00    -0.015 C 
HETATM   16  C20 UNL     1      16.692   3.895  48.496  1.00  0.00     0.010 C 
HETATM   17  C21 UNL     1      17.056   1.838  49.708  1.00  0.00     0.031 C 
HETATM   18  C22 UNL     1      17.894   0.943  50.544  1.00  0.00     0.181 C 
HETATM   19  O1  UNL     1      18.318   1.630  51.744  1.00  0.00    -0.304 OA
HETATM   20  C23 UNL     1      19.442   1.113  52.337  1.00  0.00     0.365 C 
HETATM   21  O2  UNL     1      20.137   0.139  51.971  1.00  0.00    -0.238 OA
HETATM   22  N6  UNL     1      20.388   1.167  53.368  1.00  0.00    -0.303 N 
HETATM   23  H12 UNL     1      20.298   3.286  50.370  1.00  0.00     0.182 HD
HETATM   24  H25 UNL     1      20.780   1.540  54.221  1.00  0.00     0.171 HD
ENDROOT
BRANCH   6  25
HETATM   25  N1  UNL     1      26.082   2.491  52.734  1.00  0.00    -0.340 N 
HETATM   26  H6  UNL     1      26.282   3.419  53.243  1.00  0.00     0.167 HD
BRANCH  25  27
HETATM   27  C9  UNL     1      27.258   1.960  53.214  1.00  0.00     0.035 A 
HETATM   28  C10 UNL     1      28.344   2.541  53.877  1.00  0.00     0.029 A 
HETATM   29  C11 UNL     1      29.421   1.783  54.272  1.00  0.00     0.004 A 
HETATM   30  C12 UNL     1      29.345   0.462  53.973  1.00  0.00     0.024 A 
HETATM   31  C13 UNL     1      28.339  -0.213  53.333  1.00  0.00     0.036 A 
HETATM   32 CL1  UNL     1      28.488  -1.938  53.074  1.00  0.00    -0.084 Cl
HETATM   33  C14 UNL     1      27.271   0.581  52.950  1.00  0.00     0.053 A 
ENDBRANCH  25  27
ENDBRANCH   6  25
BRANCH   1  34
HETATM   34  C2  UNL     1      21.342  -1.202  53.530  1.00  0.00     0.003 C 
HETATM   35  C1  UNL     1      21.617  -1.541  54.762  1.00  0.00     0.033 C 
ENDBRANCH   1  34
TORSDOF 3
ENDMDL
