MODEL 1
REMARK VINA RESULT:      -9.7      0.000      0.000
REMARK  1 active torsions:
REMARK  status: ('A' for Active; 'I' for Inactive)
REMARK    1  A    between atoms: C12_17  and  C13_18 
ROOT
HETATM    1  O1  UNL     1      18.824   3.651  52.254  1.00  0.00    -0.263 OA
HETATM    2  C1  UNL     1      19.803   2.932  51.946  1.00  0.00     0.282 C 
HETATM    3  C2  UNL     1      20.625   1.797  52.383  1.00  0.00     0.278 C 
HETATM    4  O2  UNL     1      20.403   1.134  53.554  1.00  0.00    -0.379 OA
HETATM    5  C3  UNL     1      21.386   0.107  53.517  1.00  0.00     0.208 C 
HETATM    6  C4  UNL     1      22.806   0.637  53.308  1.00  0.00     0.222 C 
HETATM    7  O3  UNL     1      23.161   0.622  52.000  1.00  0.00    -0.346 OA
HETATM    8  C5  UNL     1      24.259   1.235  51.515  1.00  0.00     0.267 C 
HETATM    9  C6  UNL     1      24.288   2.744  51.609  1.00  0.00     0.061 C 
HETATM   10  C7  UNL     1      23.336   3.461  50.729  1.00  0.00     0.005 C 
HETATM   11  C8  UNL     1      23.529   3.620  49.278  1.00  0.00     0.000 C 
HETATM   12  C9  UNL     1      22.481   4.469  48.648  1.00  0.00     0.002 C 
HETATM   13  C10 UNL     1      21.062   4.201  48.626  1.00  0.00     0.027 C 
HETATM   14  C11 UNL     1      20.139   4.275  49.797  1.00  0.00     0.178 C 
HETATM   15  O4  UNL     1      20.334   3.339  50.749  1.00  0.00    -0.320 OA
HETATM   16  O5  UNL     1      25.512   0.757  51.909  1.00  0.00    -0.320 OA
HETATM   17  C12 UNL     1      25.878  -0.094  52.961  1.00  0.00     0.086 C 
HETATM   18  C19 UNL     1      25.039  -0.809  53.691  1.00  0.00     0.090 C 
HETATM   19  C20 UNL     1      23.659  -0.436  53.975  1.00  0.00     0.182 C 
HETATM   20  O6  UNL     1      23.155  -1.123  54.901  1.00  0.00    -0.290 OA
ENDROOT
BRANCH  17  21
HETATM   21  C13 UNL     1      27.309  -0.147  53.218  1.00  0.00    -0.003 A 
HETATM   22  C14 UNL     1      28.007  -1.337  53.073  1.00  0.00     0.014 A 
HETATM   23  C15 UNL     1      29.362  -1.436  53.304  1.00  0.00     0.001 A 
HETATM   24  C16 UNL     1      30.097  -0.343  53.694  1.00  0.00     0.000 A 
HETATM   25  C17 UNL     1      29.437   0.849  53.846  1.00  0.00     0.001 A 
HETATM   26  C18 UNL     1      28.088   0.918  53.609  1.00  0.00     0.014 A 
ENDBRANCH  17  21
TORSDOF 1
ENDMDL
MODEL 2
REMARK VINA RESULT:      -9.6      2.583      5.892
REMARK  1 active torsions:
REMARK  status: ('A' for Active; 'I' for Inactive)
REMARK    1  A    between atoms: C12_17  and  C13_18 
ROOT
HETATM    1  O1  UNL     1      19.185  -0.588  53.134  1.00  0.00    -0.263 OA
HETATM    2  C1  UNL     1      20.082   0.285  53.192  1.00  0.00     0.282 C 
HETATM    3  C2  UNL     1      20.443   1.645  52.772  1.00  0.00     0.278 C 
HETATM    4  O2  UNL     1      19.621   2.423  52.012  1.00  0.00    -0.379 OA
HETATM    5  C3  UNL     1      20.353   3.638  51.913  1.00  0.00     0.208 C 
HETATM    6  C4  UNL     1      21.774   3.445  51.378  1.00  0.00     0.222 C 
HETATM    7  O3  UNL     1      22.676   3.322  52.381  1.00  0.00    -0.346 OA
HETATM    8  C5  UNL     1      23.951   2.923  52.197  1.00  0.00     0.267 C 
HETATM    9  C6  UNL     1      24.152   1.506  51.708  1.00  0.00     0.061 C 
HETATM   10  C7  UNL     1      23.817   0.438  52.678  1.00  0.00     0.005 C 
HETATM   11  C8  UNL     1      24.668   0.085  53.826  1.00  0.00     0.000 C 
HETATM   12  C9  UNL     1      24.154  -1.090  54.583  1.00  0.00     0.002 C 
HETATM   13  C10 UNL     1      22.878  -1.186  55.251  1.00  0.00     0.027 C 
HETATM   14  C11 UNL     1      21.545  -1.282  54.583  1.00  0.00     0.178 C 
HETATM   15  O4  UNL     1      21.150  -0.178  53.916  1.00  0.00    -0.320 OA
HETATM   16  O5  UNL     1      24.805   3.754  51.466  1.00  0.00    -0.320 OA
HETATM   17  C12 UNL     1      24.528   4.836  50.620  1.00  0.00     0.086 C 
HETATM   18  C19 UNL     1      23.355   5.438  50.511  1.00  0.00     0.090 C 
HETATM   19  C20 UNL     1      22.066   4.792  50.727  1.00  0.00     0.182 C 
HETATM   20  O6  UNL     1      21.104   5.483  50.302  1.00  0.00    -0.290 OA
ENDROOT
BRANCH  17  21
HETATM   21  C13 UNL     1      25.662   5.282  49.825  1.00  0.00    -0.003 A 
HETATM   22  C14 UNL     1      26.614   4.374  49.385  1.00  0.00     0.014 A 
HETATM   23  C15 UNL     1      27.703   4.749  48.629  1.00  0.00     0.001 A 
HETATM   24  C16 UNL     1      27.899   6.059  48.268  1.00  0.00     0.000 A 
HETATM   25  C17 UNL     1      26.975   6.982  48.687  1.00  0.00     0.001 A 
HETATM   26  C18 UNL     1      25.902   6.581  49.438  1.00  0.00     0.014 A 
ENDBRANCH  17  21
TORSDOF 1
ENDMDL
MODEL 3
REMARK VINA RESULT:      -9.6      2.562      5.658
REMARK  1 active torsions:
REMARK  status: ('A' for Active; 'I' for Inactive)
REMARK    1  A    between atoms: C12_17  and  C13_18 
ROOT
HETATM    1  O1  UNL     1      22.295  -1.372  55.700  1.00  0.00    -0.263 OA
HETATM    2  C1  UNL     1      22.625  -0.920  54.579  1.00  0.00     0.282 C 
HETATM    3  C2  UNL     1      23.770  -0.508  53.757  1.00  0.00     0.278 C 
HETATM    4  O2  UNL     1      25.056  -0.551  54.209  1.00  0.00    -0.379 OA
HETATM    5  C3  UNL     1      25.796  -0.124  53.073  1.00  0.00     0.208 C 
HETATM    6  C4  UNL     1      25.327   1.224  52.519  1.00  0.00     0.222 C 
HETATM    7  O3  UNL     1      24.431   1.069  51.514  1.00  0.00    -0.346 OA
HETATM    8  C5  UNL     1      23.698   2.079  51.004  1.00  0.00     0.267 C 
HETATM    9  C6  UNL     1      22.694   2.722  51.935  1.00  0.00     0.061 C 
HETATM   10  C7  UNL     1      21.530   1.884  52.303  1.00  0.00     0.005 C 
HETATM   11  C8  UNL     1      20.403   1.610  51.395  1.00  0.00     0.000 C 
HETATM   12  C9  UNL     1      19.317   0.827  52.047  1.00  0.00     0.002 C 
HETATM   13  C10 UNL     1      19.437  -0.497  52.610  1.00  0.00     0.027 C 
HETATM   14  C11 UNL     1      20.174  -0.853  53.860  1.00  0.00     0.178 C 
HETATM   15  O4  UNL     1      21.515  -0.722  53.800  1.00  0.00    -0.320 OA
HETATM   16  O5  UNL     1      24.363   3.099  50.319  1.00  0.00    -0.320 OA
HETATM   17  C12 UNL     1      25.720   3.444  50.282  1.00  0.00     0.086 C 
HETATM   18  C19 UNL     1      26.709   2.701  50.749  1.00  0.00     0.090 C 
HETATM   19  C20 UNL     1      26.591   1.765  51.861  1.00  0.00     0.182 C 
HETATM   20  O6  UNL     1      27.711   1.388  52.293  1.00  0.00    -0.290 OA
ENDROOT
BRANCH  17  21
HETATM   21  C13 UNL     1      25.994   4.735  49.669  1.00  0.00    -0.003 A 
HETATM   22  C14 UNL     1      27.134   4.922  48.900  1.00  0.00     0.014 A 
HETATM   23  C15 UNL     1      27.435   6.125  48.299  1.00  0.00     0.001 A 
HETATM   24  C16 UNL     1      26.606   7.212  48.434  1.00  0.00     0.000 A 
HETATM   25  C17 UNL     1      25.470   7.060  49.186  1.00  0.00     0.001 A 
HETATM   26  C18 UNL     1      25.197   5.852  49.773  1.00  0.00     0.014 A 
ENDBRANCH  17  21
TORSDOF 1
ENDMDL
MODEL 4
REMARK VINA RESULT:      -9.0      1.707      3.954
REMARK  1 active torsions:
REMARK  status: ('A' for Active; 'I' for Inactive)
REMARK    1  A    between atoms: C12_17  and  C13_18 
ROOT
HETATM    1  O1  UNL     1      18.948   1.300  49.671  1.00  0.00    -0.263 OA
HETATM    2  C1  UNL     1      19.860   1.398  50.525  1.00  0.00     0.282 C 
HETATM    3  C2  UNL     1      21.166   2.010  50.801  1.00  0.00     0.278 C 
HETATM    4  O2  UNL     1      21.807   2.813  49.905  1.00  0.00    -0.379 OA
HETATM    5  C3  UNL     1      22.973   3.203  50.620  1.00  0.00     0.208 C 
HETATM    6  C4  UNL     1      23.780   2.016  51.153  1.00  0.00     0.222 C 
HETATM    7  O3  UNL     1      23.448   1.716  52.432  1.00  0.00    -0.346 OA
HETATM    8  C5  UNL     1      23.839   0.590  53.062  1.00  0.00     0.267 C 
HETATM    9  C6  UNL     1      23.304  -0.713  52.512  1.00  0.00     0.061 C 
HETATM   10  C7  UNL     1      21.855  -0.946  52.709  1.00  0.00     0.005 C 
HETATM   11  C8  UNL     1      21.260  -1.331  53.999  1.00  0.00     0.000 C 
HETATM   12  C9  UNL     1      19.799  -1.604  53.900  1.00  0.00     0.002 C 
HETATM   13  C10 UNL     1      18.780  -0.668  53.488  1.00  0.00     0.027 C 
HETATM   14  C11 UNL     1      18.576  -0.149  52.103  1.00  0.00     0.178 C 
HETATM   15  O4  UNL     1      19.551   0.658  51.637  1.00  0.00    -0.320 OA
HETATM   16  O5  UNL     1      25.202   0.418  53.324  1.00  0.00    -0.320 OA
HETATM   17  C12 UNL     1      26.324   1.077  52.806  1.00  0.00     0.086 C 
HETATM   18  C19 UNL     1      26.294   2.187  52.088  1.00  0.00     0.090 C 
HETATM   19  C20 UNL     1      25.193   2.584  51.219  1.00  0.00     0.182 C 
HETATM   20  O6  UNL     1      25.508   3.523  50.442  1.00  0.00    -0.290 OA
ENDROOT
BRANCH  17  21
HETATM   21  C13 UNL     1      27.593   0.436  53.118  1.00  0.00    -0.003 A 
HETATM   22  C14 UNL     1      27.721  -0.944  53.048  1.00  0.00     0.014 A 
HETATM   23  C15 UNL     1      28.901  -1.595  53.333  1.00  0.00     0.001 A 
HETATM   24  C16 UNL     1      30.025  -0.897  53.703  1.00  0.00     0.000 A 
HETATM   25  C17 UNL     1      29.932   0.469  53.780  1.00  0.00     0.001 A 
HETATM   26  C18 UNL     1      28.745   1.090  53.492  1.00  0.00     0.014 A 
ENDBRANCH  17  21
TORSDOF 1
ENDMDL
MODEL 5
REMARK VINA RESULT:      -9.0      2.339      7.221
REMARK  1 active torsions:
REMARK  status: ('A' for Active; 'I' for Inactive)
REMARK    1  A    between atoms: C12_17  and  C13_18 
ROOT
HETATM    1  O1  UNL     1      25.533  -0.810  55.910  1.00  0.00    -0.263 OA
HETATM    2  C1  UNL     1      25.143  -0.497  54.761  1.00  0.00     0.282 C 
HETATM    3  C2  UNL     1      25.538   0.173  53.516  1.00  0.00     0.278 C 
HETATM    4  O2  UNL     1      26.762   0.749  53.346  1.00  0.00    -0.379 OA
HETATM    5  C3  UNL     1      26.703   1.205  52.001  1.00  0.00     0.208 C 
HETATM    6  C4  UNL     1      25.496   2.103  51.719  1.00  0.00     0.222 C 
HETATM    7  O3  UNL     1      24.451   1.399  51.220  1.00  0.00    -0.346 OA
HETATM    8  C5  UNL     1      23.205   1.897  51.096  1.00  0.00     0.267 C 
HETATM    9  C6  UNL     1      22.485   2.247  52.380  1.00  0.00     0.061 C 
HETATM   10  C7  UNL     1      22.087   1.098  53.226  1.00  0.00     0.005 C 
HETATM   11  C8  UNL     1      20.952   0.214  52.916  1.00  0.00     0.000 C 
HETATM   12  C9  UNL     1      20.703  -0.797  53.981  1.00  0.00     0.002 C 
HETATM   13  C10 UNL     1      21.626  -1.815  54.427  1.00  0.00     0.027 C 
HETATM   14  C11 UNL     1      22.873  -1.582  55.214  1.00  0.00     0.178 C 
HETATM   15  O4  UNL     1      23.857  -0.929  54.561  1.00  0.00    -0.320 OA
HETATM   16  O5  UNL     1      22.996   2.941  50.190  1.00  0.00    -0.320 OA
HETATM   17  C12 UNL     1      23.905   3.795  49.552  1.00  0.00     0.086 C 
HETATM   18  C19 UNL     1      25.217   3.630  49.525  1.00  0.00     0.090 C 
HETATM   19  C20 UNL     1      25.993   2.970  50.568  1.00  0.00     0.182 C 
HETATM   20  O6  UNL     1      27.229   3.177  50.452  1.00  0.00    -0.290 OA
ENDROOT
BRANCH  17  21
HETATM   21  C13 UNL     1      23.292   4.934  48.886  1.00  0.00    -0.003 A 
HETATM   22  C14 UNL     1      24.065   6.011  48.477  1.00  0.00     0.014 A 
HETATM   23  C15 UNL     1      23.530   7.110  47.842  1.00  0.00     0.001 A 
HETATM   24  C16 UNL     1      22.185   7.192  47.579  1.00  0.00     0.000 A 
HETATM   25  C17 UNL     1      21.392   6.144  47.969  1.00  0.00     0.001 A 
HETATM   26  C18 UNL     1      21.952   5.063  48.599  1.00  0.00     0.014 A 
ENDBRANCH  17  21
TORSDOF 1
ENDMDL
MODEL 6
REMARK VINA RESULT:      -8.9      2.612      6.389
REMARK  1 active torsions:
REMARK  status: ('A' for Active; 'I' for Inactive)
REMARK    1  A    between atoms: C12_17  and  C13_18 
ROOT
HETATM    1  O1  UNL     1      27.918   4.368  48.591  1.00  0.00    -0.263 OA
HETATM    2  C1  UNL     1      26.925   4.278  49.350  1.00  0.00     0.282 C 
HETATM    3  C2  UNL     1      26.344   3.507  50.457  1.00  0.00     0.278 C 
HETATM    4  O2  UNL     1      26.967   2.428  51.010  1.00  0.00    -0.379 OA
HETATM    5  C3  UNL     1      26.074   2.058  52.053  1.00  0.00     0.208 C 
HETATM    6  C4  UNL     1      24.641   1.827  51.568  1.00  0.00     0.222 C 
HETATM    7  O3  UNL     1      23.879   2.939  51.703  1.00  0.00    -0.346 OA
HETATM    8  C5  UNL     1      22.655   3.079  51.154  1.00  0.00     0.267 C 
HETATM    9  C6  UNL     1      22.591   3.098  49.644  1.00  0.00     0.061 C 
HETATM   10  C7  UNL     1      23.168   4.296  48.991  1.00  0.00     0.005 C 
HETATM   11  C8  UNL     1      22.503   5.609  48.963  1.00  0.00     0.000 C 
HETATM   12  C9  UNL     1      23.248   6.614  48.155  1.00  0.00     0.002 C 
HETATM   13  C10 UNL     1      24.592   7.083  48.400  1.00  0.00     0.027 C 
HETATM   14  C11 UNL     1      25.843   6.292  48.208  1.00  0.00     0.178 C 
HETATM   15  O4  UNL     1      26.014   5.260  49.060  1.00  0.00    -0.320 OA
HETATM   16  O5  UNL     1      21.624   2.257  51.618  1.00  0.00    -0.320 OA
HETATM   17  C12 UNL     1      21.661   1.081  52.378  1.00  0.00     0.086 C 
HETATM   18  C19 UNL     1      22.725   0.616  53.012  1.00  0.00     0.090 C 
HETATM   19  C20 UNL     1      24.103   0.834  52.592  1.00  0.00     0.182 C 
HETATM   20  O6  UNL     1      24.914   0.076  53.187  1.00  0.00    -0.290 OA
ENDROOT
BRANCH  17  21
HETATM   21  C13 UNL     1      20.398   0.362  52.433  1.00  0.00    -0.003 A 
HETATM   22  C14 UNL     1      19.449   0.527  51.434  1.00  0.00     0.014 A 
HETATM   23  C15 UNL     1      18.240  -0.134  51.442  1.00  0.00     0.001 A 
HETATM   24  C16 UNL     1      17.913  -1.002  52.455  1.00  0.00     0.000 A 
HETATM   25  C17 UNL     1      18.830  -1.188  53.458  1.00  0.00     0.001 A 
HETATM   26  C18 UNL     1      20.024  -0.517  53.424  1.00  0.00     0.014 A 
ENDBRANCH  17  21
TORSDOF 1
ENDMDL
MODEL 7
REMARK VINA RESULT:      -8.7      2.210      4.174
REMARK  1 active torsions:
REMARK  status: ('A' for Active; 'I' for Inactive)
REMARK    1  A    between atoms: C12_17  and  C13_18 
ROOT
HETATM    1  O1  UNL     1      17.395   3.844  49.401  1.00  0.00    -0.263 OA
HETATM    2  C1  UNL     1      18.172   3.507  50.325  1.00  0.00     0.282 C 
HETATM    3  C2  UNL     1      19.429   3.850  51.002  1.00  0.00     0.278 C 
HETATM    4  O2  UNL     1      20.205   4.907  50.625  1.00  0.00    -0.379 OA
HETATM    5  C3  UNL     1      21.255   4.874  51.582  1.00  0.00     0.208 C 
HETATM    6  C4  UNL     1      21.963   3.519  51.657  1.00  0.00     0.222 C 
HETATM    7  O3  UNL     1      21.443   2.733  52.631  1.00  0.00    -0.346 OA
HETATM    8  C5  UNL     1      21.725   1.422  52.765  1.00  0.00     0.267 C 
HETATM    9  C6  UNL     1      21.263   0.513  51.648  1.00  0.00     0.061 C 
HETATM   10  C7  UNL     1      19.798   0.324  51.538  1.00  0.00     0.005 C 
HETATM   11  C8  UNL     1      19.015  -0.523  52.452  1.00  0.00     0.000 C 
HETATM   12  C9  UNL     1      17.582  -0.623  52.058  1.00  0.00     0.002 C 
HETATM   13  C10 UNL     1      16.644   0.471  51.958  1.00  0.00     0.027 C 
HETATM   14  C11 UNL     1      16.653   1.538  50.912  1.00  0.00     0.178 C 
HETATM   15  O4  UNL     1      17.695   2.393  50.966  1.00  0.00    -0.320 OA
HETATM   16  O5  UNL     1      23.031   1.057  53.102  1.00  0.00    -0.320 OA
HETATM   17  C12 UNL     1      24.225   1.789  53.065  1.00  0.00     0.086 C 
HETATM   18  C19 UNL     1      24.313   3.097  52.891  1.00  0.00     0.090 C 
HETATM   19  C20 UNL     1      23.356   3.901  52.140  1.00  0.00     0.182 C 
HETATM   20  O6  UNL     1      23.793   5.055  51.886  1.00  0.00    -0.290 OA
ENDROOT
BRANCH  17  21
HETATM   21  C13 UNL     1      25.427   0.986  53.234  1.00  0.00    -0.003 A 
HETATM   22  C14 UNL     1      25.670  -0.102  52.408  1.00  0.00     0.014 A 
HETATM   23  C15 UNL     1      26.793  -0.890  52.529  1.00  0.00     0.001 A 
HETATM   24  C16 UNL     1      27.742  -0.630  53.488  1.00  0.00     0.000 A 
HETATM   25  C17 UNL     1      27.532   0.440  54.320  1.00  0.00     0.001 A 
HETATM   26  C18 UNL     1      26.405   1.206  54.177  1.00  0.00     0.014 A 
ENDBRANCH  17  21
TORSDOF 1
ENDMDL
MODEL 8
REMARK VINA RESULT:      -8.7      8.465     10.283
REMARK  1 active torsions:
REMARK  status: ('A' for Active; 'I' for Inactive)
REMARK    1  A    between atoms: C12_17  and  C13_18 
ROOT
HETATM    1  O1  UNL     1      26.080  10.363  49.238  1.00  0.00    -0.263 OA
HETATM    2  C1  UNL     1      27.009   9.539  49.404  1.00  0.00     0.282 C 
HETATM    3  C2  UNL     1      28.469   9.378  49.395  1.00  0.00     0.278 C 
HETATM    4  O2  UNL     1      29.321  10.405  49.113  1.00  0.00    -0.379 OA
HETATM    5  C3  UNL     1      30.597   9.800  49.279  1.00  0.00     0.208 C 
HETATM    6  C4  UNL     1      30.777   8.532  48.442  1.00  0.00     0.222 C 
HETATM    7  O3  UNL     1      30.479   7.415  49.149  1.00  0.00    -0.346 OA
HETATM    8  C5  UNL     1      30.338   6.194  48.596  1.00  0.00     0.267 C 
HETATM    9  C6  UNL     1      29.183   6.015  47.636  1.00  0.00     0.061 C 
HETATM   10  C7  UNL     1      27.832   6.043  48.244  1.00  0.00     0.005 C 
HETATM   11  C8  UNL     1      27.265   4.928  49.020  1.00  0.00     0.000 C 
HETATM   12  C9  UNL     1      25.855   5.171  49.430  1.00  0.00     0.002 C 
HETATM   13  C10 UNL     1      25.381   6.249  50.267  1.00  0.00     0.027 C 
HETATM   14  C11 UNL     1      25.310   7.690  49.881  1.00  0.00     0.178 C 
HETATM   15  O4  UNL     1      26.499   8.303  49.709  1.00  0.00    -0.320 OA
HETATM   16  O5  UNL     1      31.464   5.591  48.029  1.00  0.00    -0.320 OA
HETATM   17  C12 UNL     1      32.704   6.130  47.660  1.00  0.00     0.086 C 
HETATM   18  C19 UNL     1      33.141   7.334  47.990  1.00  0.00     0.090 C 
HETATM   19  C20 UNL     1      32.286   8.490  48.229  1.00  0.00     0.182 C 
HETATM   20  O6  UNL     1      32.934   9.570  48.255  1.00  0.00    -0.290 OA
ENDROOT
BRANCH  17  21
HETATM   21  C13 UNL     1      33.526   5.243  46.851  1.00  0.00    -0.003 A 
HETATM   22  C14 UNL     1      33.547   5.367  45.469  1.00  0.00     0.014 A 
HETATM   23  C15 UNL     1      34.310   4.553  44.662  1.00  0.00     0.001 A 
HETATM   24  C16 UNL     1      35.101   3.565  45.196  1.00  0.00     0.000 A 
HETATM   25  C17 UNL     1      35.105   3.417  46.559  1.00  0.00     0.001 A 
HETATM   26  C18 UNL     1      34.335   4.241  47.337  1.00  0.00     0.014 A 
ENDBRANCH  17  21
TORSDOF 1
ENDMDL
MODEL 9
REMARK VINA RESULT:      -8.6      2.566      6.675
REMARK  1 active torsions:
REMARK  status: ('A' for Active; 'I' for Inactive)
REMARK    1  A    between atoms: C12_17  and  C13_18 
ROOT
HETATM    1  O1  UNL     1      27.162   2.256  50.894  1.00  0.00    -0.263 OA
HETATM    2  C1  UNL     1      26.017   2.269  51.401  1.00  0.00     0.282 C 
HETATM    3  C2  UNL     1      25.148   1.615  52.388  1.00  0.00     0.278 C 
HETATM    4  O2  UNL     1      25.559   0.556  53.143  1.00  0.00    -0.379 OA
HETATM    5  C3  UNL     1      24.427   0.310  53.968  1.00  0.00     0.208 C 
HETATM    6  C4  UNL     1      23.135   0.103  53.174  1.00  0.00     0.222 C 
HETATM    7  O3  UNL     1      22.431   1.255  53.052  1.00  0.00    -0.346 OA
HETATM    8  C5  UNL     1      21.380   1.404  52.221  1.00  0.00     0.267 C 
HETATM    9  C6  UNL     1      21.669   1.306  50.740  1.00  0.00     0.061 C 
HETATM   10  C7  UNL     1      22.454   2.422  50.164  1.00  0.00     0.005 C 
HETATM   11  C8  UNL     1      21.895   3.757  49.893  1.00  0.00     0.000 C 
HETATM   12  C9  UNL     1      22.867   4.661  49.218  1.00  0.00     0.002 C 
HETATM   13  C10 UNL     1      24.143   5.089  49.741  1.00  0.00     0.027 C 
HETATM   14  C11 UNL     1      25.354   4.232  49.903  1.00  0.00     0.178 C 
HETATM   15  O4  UNL     1      25.259   3.264  50.838  1.00  0.00    -0.320 OA
HETATM   16  O5  UNL     1      20.221   0.666  52.481  1.00  0.00    -0.320 OA
HETATM   17  C12 UNL     1      20.009  -0.446  53.306  1.00  0.00     0.086 C 
HETATM   18  C19 UNL     1      20.866  -0.905  54.203  1.00  0.00     0.090 C 
HETATM   19  C20 UNL     1      22.315  -0.781  54.107  1.00  0.00     0.182 C 
HETATM   20  O6  UNL     1      22.917  -1.524  54.925  1.00  0.00    -0.290 OA
ENDROOT
BRANCH  17  21
HETATM   21  C13 UNL     1      18.726  -1.103  53.109  1.00  0.00    -0.003 A 
HETATM   22  C14 UNL     1      17.748  -0.516  52.319  1.00  0.00     0.014 A 
HETATM   23  C15 UNL     1      16.519  -1.101  52.102  1.00  0.00     0.001 A 
HETATM   24  C16 UNL     1      16.201  -2.313  52.665  1.00  0.00     0.000 A 
HETATM   25  C17 UNL     1      17.147  -2.920  53.450  1.00  0.00     0.001 A 
HETATM   26  C18 UNL     1      18.360  -2.315  53.649  1.00  0.00     0.014 A 
ENDBRANCH  17  21
TORSDOF 1
ENDMDL
