MODEL 1
REMARK VINA RESULT:      -9.7      0.000      0.000
REMARK  9 active torsions:
REMARK  status: ('A' for Active; 'I' for Inactive)
REMARK    1  A    between atoms: O1_2  and  C2_3 
REMARK    2  A    between atoms: C6_7  and  C7_8 
REMARK    3  A    between atoms: C15_18  and  C16_19 
REMARK    4  A    between atoms: C16_19  and  C17_20 
REMARK    5  A    between atoms: C17_20  and  C18_21 
REMARK    6  A    between atoms: C17_20  and  C21_26 
REMARK    7  A    between atoms: C18_21  and  C19_22 
REMARK    8  A    between atoms: C19_22  and  C20_23 
REMARK    9  A    between atoms: C20_23  and  O4_25 
ROOT
HETATM    1  C7  UNL     1      26.825   5.421  48.994  1.00  0.00    -0.024 A 
HETATM    2  C8  UNL     1      27.129   4.075  48.991  1.00  0.00     0.013 A 
HETATM    3  C9  UNL     1      26.293   3.239  49.713  1.00  0.00     0.015 A 
HETATM    4  C10 UNL     1      25.198   3.707  50.414  1.00  0.00     0.006 A 
HETATM    5  C11 UNL     1      24.892   5.048  50.420  1.00  0.00     0.047 A 
HETATM    6  C12 UNL     1      25.731   5.874  49.696  1.00  0.00     0.042 A 
HETATM    7  N1  UNL     1      23.738   5.366  51.187  1.00  0.00    -0.322 N 
HETATM    8  C13 UNL     1      23.276   4.132  51.708  1.00  0.00     0.257 A 
HETATM    9  O2  UNL     1      22.247   4.133  52.435  1.00  0.00    -0.267 OA
HETATM   10  C14 UNL     1      24.171   3.101  51.235  1.00  0.00     0.044 A 
HETATM   11  C15 UNL     1      24.039   1.827  51.527  1.00  0.00     0.018 C 
HETATM   12  H10 UNL     1      23.358   6.339  51.303  1.00  0.00     0.169 HD
ENDROOT
BRANCH  11  13
HETATM   13  C16 UNL     1      23.072   1.111  52.324  1.00  0.00     0.008 C 
BRANCH  13  14
HETATM   14  C17 UNL     1      23.219   0.223  53.290  1.00  0.00    -0.051 C 
BRANCH  14  15
HETATM   15  C18 UNL     1      22.114  -0.354  54.095  1.00  0.00     0.049 C 
BRANCH  15  16
HETATM   16  C19 UNL     1      20.838   0.450  53.939  1.00  0.00     0.114 C 
BRANCH  16  17
HETATM   17  C20 UNL     1      19.759  -0.434  53.452  1.00  0.00     0.139 C 
HETATM   18  O3  UNL     1      19.003  -0.170  52.483  1.00  0.00    -0.650 OA
BRANCH  17  19
HETATM   19  O4  UNL     1      19.476  -1.668  54.036  1.00  0.00    -0.776 OA
HETATM   20  H17 UNL     1      20.221  -2.215  54.451  1.00  0.00     0.167 HD
ENDBRANCH  17  19
ENDBRANCH  16  17
ENDBRANCH  15  16
ENDBRANCH  14  15
BRANCH  14  21
HETATM   21  C21 UNL     1      24.626  -0.200  53.557  1.00  0.00    -0.021 A 
HETATM   22  C22 UNL     1      25.764  -0.822  53.565  1.00  0.00     0.074 A 
HETATM   23  C23 UNL     1      26.807  -1.091  52.469  1.00  0.00     0.038 A 
HETATM   24  N2  UNL     1      25.613  -1.014  54.947  1.00  0.00    -0.398 N 
HETATM   25  C26 UNL     1      25.696   0.349  54.460  1.00  0.00     0.117 A 
HETATM   26  C24 UNL     1      27.623   0.203  52.754  1.00  0.00     0.005 A 
HETATM   27  C25 UNL     1      26.895   0.913  53.874  1.00  0.00     0.030 A 
HETATM   28  H25 UNL     1      25.527  -1.807  55.586  1.00  0.00     0.155 HD
ENDBRANCH  14  21
ENDBRANCH  13  14
ENDBRANCH  11  13
BRANCH   1  29
HETATM   29  C6  UNL     1      27.720   6.278  48.226  1.00  0.00    -0.023 A 
HETATM   30  C5  UNL     1      27.224   7.402  47.564  1.00  0.00     0.012 A 
HETATM   31  C4  UNL     1      28.079   8.209  46.837  1.00  0.00     0.004 A 
HETATM   32  C3  UNL     1      29.423   7.940  46.739  1.00  0.00     0.037 A 
HETATM   33  C2  UNL     1      29.948   6.825  47.388  1.00  0.00     0.069 A 
HETATM   34  C27 UNL     1      29.068   6.041  48.105  1.00  0.00     0.049 A 
BRANCH  33  35
HETATM   35  O1  UNL     1      31.308   6.551  47.291  1.00  0.00    -0.356 OA
HETATM   36  C1  UNL     1      31.972   7.058  46.138  1.00  0.00     0.210 C 
ENDBRANCH  33  35
ENDBRANCH   1  29
TORSDOF 9
ENDMDL
MODEL 2
REMARK VINA RESULT:      -9.4      2.764      9.657
REMARK  9 active torsions:
REMARK  status: ('A' for Active; 'I' for Inactive)
REMARK    1  A    between atoms: O1_2  and  C2_3 
REMARK    2  A    between atoms: C6_7  and  C7_8 
REMARK    3  A    between atoms: C15_18  and  C16_19 
REMARK    4  A    between atoms: C16_19  and  C17_20 
REMARK    5  A    between atoms: C17_20  and  C18_21 
REMARK    6  A    between atoms: C17_20  and  C21_26 
REMARK    7  A    between atoms: C18_21  and  C19_22 
REMARK    8  A    between atoms: C19_22  and  C20_23 
REMARK    9  A    between atoms: C20_23  and  O4_25 
ROOT
HETATM    1  C7  UNL     1      24.523   2.238  51.282  1.00  0.00    -0.024 A 
HETATM    2  C8  UNL     1      25.881   2.003  51.218  1.00  0.00     0.013 A 
HETATM    3  C9  UNL     1      26.642   2.902  50.489  1.00  0.00     0.015 A 
HETATM    4  C10 UNL     1      26.090   3.992  49.843  1.00  0.00     0.006 A 
HETATM    5  C11 UNL     1      24.737   4.229  49.904  1.00  0.00     0.047 A 
HETATM    6  C12 UNL     1      23.985   3.327  50.634  1.00  0.00     0.042 A 
HETATM    7  N1  UNL     1      24.328   5.388  49.188  1.00  0.00    -0.322 N 
HETATM    8  C13 UNL     1      25.515   5.927  48.630  1.00  0.00     0.257 A 
HETATM    9  O2  UNL     1      25.430   6.976  47.937  1.00  0.00    -0.267 OA
HETATM   10  C14 UNL     1      26.608   5.072  49.030  1.00  0.00     0.044 A 
HETATM   11  C15 UNL     1      27.860   5.277  48.690  1.00  0.00     0.018 C 
HETATM   12  H10 UNL     1      23.334   5.721  49.125  1.00  0.00     0.169 HD
ENDROOT
BRANCH  11  13
HETATM   13  C16 UNL     1      28.491   6.303  47.895  1.00  0.00     0.008 C 
BRANCH  13  14
HETATM   14  C17 UNL     1      29.446   7.169  48.182  1.00  0.00    -0.051 C 
BRANCH  14  15
HETATM   15  C18 UNL     1      29.331   8.643  48.042  1.00  0.00     0.049 C 
BRANCH  15  16
HETATM   16  C19 UNL     1      29.345   9.330  49.394  1.00  0.00     0.114 C 
BRANCH  16  17
HETATM   17  C20 UNL     1      27.959   9.480  49.882  1.00  0.00     0.139 C 
HETATM   18  O3  UNL     1      26.954   9.626  49.141  1.00  0.00    -0.650 OA
BRANCH  17  19
HETATM   19  O4  UNL     1      27.634   9.473  51.237  1.00  0.00    -0.776 OA
HETATM   20  H17 UNL     1      28.073   8.806  51.861  1.00  0.00     0.167 HD
ENDBRANCH  17  19
ENDBRANCH  16  17
ENDBRANCH  15  16
ENDBRANCH  14  15
BRANCH  14  21
HETATM   21  C21 UNL     1      30.721   6.572  48.678  1.00  0.00    -0.021 A 
HETATM   22  C22 UNL     1      31.690   5.761  48.973  1.00  0.00     0.074 A 
HETATM   23  C23 UNL     1      32.646   4.928  48.105  1.00  0.00     0.038 A 
HETATM   24  N2  UNL     1      31.497   6.076  50.327  1.00  0.00    -0.398 N 
HETATM   25  C26 UNL     1      31.886   7.149  49.433  1.00  0.00     0.117 A 
HETATM   26  C24 UNL     1      33.732   6.039  48.017  1.00  0.00     0.005 A 
HETATM   27  C25 UNL     1      33.182   7.218  48.788  1.00  0.00     0.030 A 
HETATM   28  H25 UNL     1      31.235   5.577  51.179  1.00  0.00     0.155 HD
ENDBRANCH  14  21
ENDBRANCH  13  14
ENDBRANCH  11  13
BRANCH   1  29
HETATM   29  C6  UNL     1      23.746   1.277  52.056  1.00  0.00    -0.023 A 
HETATM   30  C5  UNL     1      24.358   0.517  53.053  1.00  0.00     0.012 A 
HETATM   31  C4  UNL     1      23.616  -0.393  53.783  1.00  0.00     0.004 A 
HETATM   32  C3  UNL     1      22.273  -0.580  53.558  1.00  0.00     0.037 A 
HETATM   33  C2  UNL     1      21.634   0.164  52.569  1.00  0.00     0.069 A 
HETATM   34  C27 UNL     1      22.404   1.062  51.860  1.00  0.00     0.049 A 
BRANCH  33  35
HETATM   35  O1  UNL     1      20.275  -0.023  52.339  1.00  0.00    -0.356 OA
HETATM   36  C1  UNL     1      19.538  -0.642  53.389  1.00  0.00     0.210 C 
ENDBRANCH  33  35
ENDBRANCH   1  29
TORSDOF 9
ENDMDL
MODEL 3
REMARK VINA RESULT:      -9.3      2.691      9.996
REMARK  9 active torsions:
REMARK  status: ('A' for Active; 'I' for Inactive)
REMARK    1  A    between atoms: O1_2  and  C2_3 
REMARK    2  A    between atoms: C6_7  and  C7_8 
REMARK    3  A    between atoms: C15_18  and  C16_19 
REMARK    4  A    between atoms: C16_19  and  C17_20 
REMARK    5  A    between atoms: C17_20  and  C18_21 
REMARK    6  A    between atoms: C17_20  and  C21_26 
REMARK    7  A    between atoms: C18_21  and  C19_22 
REMARK    8  A    between atoms: C19_22  and  C20_23 
REMARK    9  A    between atoms: C20_23  and  O4_25 
ROOT
HETATM    1  C7  UNL     1      24.645   2.764  50.638  1.00  0.00    -0.024 A 
HETATM    2  C8  UNL     1      25.997   2.492  50.581  1.00  0.00     0.013 A 
HETATM    3  C9  UNL     1      26.796   3.415  49.926  1.00  0.00     0.015 A 
HETATM    4  C10 UNL     1      26.288   4.562  49.348  1.00  0.00     0.006 A 
HETATM    5  C11 UNL     1      24.942   4.836  49.403  1.00  0.00     0.047 A 
HETATM    6  C12 UNL     1      24.152   3.910  50.058  1.00  0.00     0.042 A 
HETATM    7  N1  UNL     1      24.581   6.053  48.761  1.00  0.00    -0.322 N 
HETATM    8  C13 UNL     1      25.792   6.592  48.261  1.00  0.00     0.257 A 
HETATM    9  O2  UNL     1      25.751   7.688  47.640  1.00  0.00    -0.267 OA
HETATM   10  C14 UNL     1      26.852   5.679  48.619  1.00  0.00     0.044 A 
HETATM   11  C15 UNL     1      28.116   5.869  48.313  1.00  0.00     0.018 C 
HETATM   12  H10 UNL     1      23.598   6.419  48.706  1.00  0.00     0.169 HD
ENDROOT
BRANCH  11  13
HETATM   13  C16 UNL     1      28.791   6.926  47.600  1.00  0.00     0.008 C 
BRANCH  13  14
HETATM   14  C17 UNL     1      29.869   7.631  47.895  1.00  0.00    -0.051 C 
BRANCH  14  15
HETATM   15  C18 UNL     1      31.259   7.252  47.541  1.00  0.00     0.049 C 
BRANCH  15  16
HETATM   16  C19 UNL     1      32.102   7.019  48.780  1.00  0.00     0.114 C 
BRANCH  16  17
HETATM   17  C20 UNL     1      31.815   5.676  49.323  1.00  0.00     0.139 C 
HETATM   18  O3  UNL     1      31.882   4.610  48.662  1.00  0.00    -0.650 OA
BRANCH  17  19
HETATM   19  O4  UNL     1      31.435   5.466  50.648  1.00  0.00    -0.776 OA
HETATM   20  H17 UNL     1      30.895   6.169  51.139  1.00  0.00     0.167 HD
ENDBRANCH  17  19
ENDBRANCH  16  17
ENDBRANCH  15  16
ENDBRANCH  14  15
BRANCH  14  21
HETATM   21  C21 UNL     1      29.617   8.895  48.647  1.00  0.00    -0.021 A 
HETATM   22  C22 UNL     1      29.733   9.950  49.394  1.00  0.00     0.074 A 
HETATM   23  C23 UNL     1      30.611  11.206  49.287  1.00  0.00     0.038 A 
HETATM   24  N2  UNL     1      28.697   9.453  50.200  1.00  0.00    -0.398 N 
HETATM   25  C26 UNL     1      28.391   9.750  48.814  1.00  0.00     0.117 A 
HETATM   26  C24 UNL     1      29.565  12.019  48.470  1.00  0.00     0.005 A 
HETATM   27  C25 UNL     1      28.385  11.093  48.271  1.00  0.00     0.030 A 
HETATM   28  H25 UNL     1      28.583   9.157  51.172  1.00  0.00     0.155 HD
ENDBRANCH  14  21
ENDBRANCH  13  14
ENDBRANCH  11  13
BRANCH   1  29
HETATM   29  C6  UNL     1      23.826   1.777  51.333  1.00  0.00    -0.023 A 
HETATM   30  C5  UNL     1      22.524   1.516  50.905  1.00  0.00     0.012 A 
HETATM   31  C4  UNL     1      21.753   0.579  51.569  1.00  0.00     0.004 A 
HETATM   32  C3  UNL     1      22.230  -0.115  52.655  1.00  0.00     0.037 A 
HETATM   33  C2  UNL     1      23.526   0.125  53.106  1.00  0.00     0.069 A 
HETATM   34  C27 UNL     1      24.268   1.065  52.421  1.00  0.00     0.049 A 
BRANCH  33  35
HETATM   35  O1  UNL     1      24.012  -0.576  54.205  1.00  0.00    -0.356 OA
HETATM   36  C1  UNL     1      25.420  -0.519  54.415  1.00  0.00     0.210 C 
ENDBRANCH  33  35
ENDBRANCH   1  29
TORSDOF 9
ENDMDL
MODEL 4
REMARK VINA RESULT:      -9.2      2.493      9.970
REMARK  9 active torsions:
REMARK  status: ('A' for Active; 'I' for Inactive)
REMARK    1  A    between atoms: O1_2  and  C2_3 
REMARK    2  A    between atoms: C6_7  and  C7_8 
REMARK    3  A    between atoms: C15_18  and  C16_19 
REMARK    4  A    between atoms: C16_19  and  C17_20 
REMARK    5  A    between atoms: C17_20  and  C18_21 
REMARK    6  A    between atoms: C17_20  and  C21_26 
REMARK    7  A    between atoms: C18_21  and  C19_22 
REMARK    8  A    between atoms: C19_22  and  C20_23 
REMARK    9  A    between atoms: C20_23  and  O4_25 
ROOT
HETATM    1  C7  UNL     1      24.647   2.409  51.240  1.00  0.00    -0.024 A 
HETATM    2  C8  UNL     1      26.013   2.213  51.196  1.00  0.00     0.013 A 
HETATM    3  C9  UNL     1      26.753   3.113  50.447  1.00  0.00     0.015 A 
HETATM    4  C10 UNL     1      26.175   4.166  49.764  1.00  0.00     0.006 A 
HETATM    5  C11 UNL     1      24.815   4.363  49.805  1.00  0.00     0.047 A 
HETATM    6  C12 UNL     1      24.084   3.462  50.555  1.00  0.00     0.042 A 
HETATM    7  N1  UNL     1      24.379   5.487  49.050  1.00  0.00    -0.322 N 
HETATM    8  C13 UNL     1      25.554   6.046  48.488  1.00  0.00     0.257 A 
HETATM    9  O2  UNL     1      25.446   7.070  47.763  1.00  0.00    -0.267 OA
HETATM   10  C14 UNL     1      26.669   5.237  48.924  1.00  0.00     0.044 A 
HETATM   11  C15 UNL     1      27.917   5.470  48.589  1.00  0.00     0.018 C 
HETATM   12  H10 UNL     1      23.376   5.788  48.969  1.00  0.00     0.169 HD
ENDROOT
BRANCH  11  13
HETATM   13  C16 UNL     1      28.526   6.490  47.769  1.00  0.00     0.008 C 
BRANCH  13  14
HETATM   14  C17 UNL     1      29.377   7.456  48.063  1.00  0.00    -0.051 C 
BRANCH  14  15
HETATM   15  C18 UNL     1      30.855   7.347  47.975  1.00  0.00     0.049 C 
BRANCH  15  16
HETATM   16  C19 UNL     1      31.489   7.285  49.351  1.00  0.00     0.114 C 
BRANCH  16  17
HETATM   17  C20 UNL     1      31.640   5.873  49.757  1.00  0.00     0.139 C 
HETATM   18  O3  UNL     1      31.826   4.918  48.962  1.00  0.00    -0.650 OA
BRANCH  17  19
HETATM   19  O4  UNL     1      31.590   5.465  51.089  1.00  0.00    -0.776 OA
HETATM   20  H17 UNL     1      30.883   5.842  51.709  1.00  0.00     0.167 HD
ENDBRANCH  17  19
ENDBRANCH  16  17
ENDBRANCH  15  16
ENDBRANCH  14  15
BRANCH  14  21
HETATM   21  C21 UNL     1      28.757   8.735  48.519  1.00  0.00    -0.021 A 
HETATM   22  C22 UNL     1      28.323   9.955  48.600  1.00  0.00     0.074 A 
HETATM   23  C23 UNL     1      27.270  10.736  47.799  1.00  0.00     0.038 A 
HETATM   24  N2  UNL     1      29.144  10.139  49.723  1.00  0.00    -0.398 N 
HETATM   25  C26 UNL     1      28.097   9.139  49.808  1.00  0.00     0.117 A 
HETATM   26  C24 UNL     1      26.091  10.358  48.741  1.00  0.00     0.005 A 
HETATM   27  C25 UNL     1      26.684   9.465  49.808  1.00  0.00     0.030 A 
HETATM   28  H25 UNL     1      29.935  10.732  49.980  1.00  0.00     0.155 HD
ENDBRANCH  14  21
ENDBRANCH  13  14
ENDBRANCH  11  13
BRANCH   1  29
HETATM   29  C6  UNL     1      23.892   1.449  52.036  1.00  0.00    -0.023 A 
HETATM   30  C5  UNL     1      24.555   0.456  52.759  1.00  0.00     0.012 A 
HETATM   31  C4  UNL     1      23.832  -0.451  53.511  1.00  0.00     0.004 A 
HETATM   32  C3  UNL     1      22.460  -0.413  53.572  1.00  0.00     0.037 A 
HETATM   33  C2  UNL     1      21.769   0.565  52.861  1.00  0.00     0.069 A 
HETATM   34  C27 UNL     1      22.521   1.455  52.122  1.00  0.00     0.049 A 
BRANCH  33  35
HETATM   35  O1  UNL     1      20.380   0.608  52.921  1.00  0.00    -0.356 OA
HETATM   36  C1  UNL     1      19.747   1.621  52.146  1.00  0.00     0.210 C 
ENDBRANCH  33  35
ENDBRANCH   1  29
TORSDOF 9
ENDMDL
MODEL 5
REMARK VINA RESULT:      -9.2      2.354      3.567
REMARK  9 active torsions:
REMARK  status: ('A' for Active; 'I' for Inactive)
REMARK    1  A    between atoms: O1_2  and  C2_3 
REMARK    2  A    between atoms: C6_7  and  C7_8 
REMARK    3  A    between atoms: C15_18  and  C16_19 
REMARK    4  A    between atoms: C16_19  and  C17_20 
REMARK    5  A    between atoms: C17_20  and  C18_21 
REMARK    6  A    between atoms: C17_20  and  C21_26 
REMARK    7  A    between atoms: C18_21  and  C19_22 
REMARK    8  A    between atoms: C19_22  and  C20_23 
REMARK    9  A    between atoms: C20_23  and  O4_25 
ROOT
HETATM    1  C7  UNL     1      27.227   6.015  48.661  1.00  0.00    -0.024 A 
HETATM    2  C8  UNL     1      27.540   4.671  48.668  1.00  0.00     0.013 A 
HETATM    3  C9  UNL     1      26.705   3.835  49.391  1.00  0.00     0.015 A 
HETATM    4  C10 UNL     1      25.604   4.300  50.084  1.00  0.00     0.006 A 
HETATM    5  C11 UNL     1      25.290   5.638  50.079  1.00  0.00     0.047 A 
HETATM    6  C12 UNL     1      26.127   6.466  49.355  1.00  0.00     0.042 A 
HETATM    7  N1  UNL     1      24.129   5.954  50.839  1.00  0.00    -0.322 N 
HETATM    8  C13 UNL     1      23.673   4.720  51.365  1.00  0.00     0.257 A 
HETATM    9  O2  UNL     1      22.640   4.719  52.087  1.00  0.00    -0.267 OA
HETATM   10  C14 UNL     1      24.577   3.692  50.904  1.00  0.00     0.044 A 
HETATM   11  C15 UNL     1      24.452   2.419  51.203  1.00  0.00     0.018 C 
HETATM   12  H10 UNL     1      23.743   6.925  50.947  1.00  0.00     0.169 HD
ENDROOT
BRANCH  11  13
HETATM   13  C16 UNL     1      23.485   1.702  51.999  1.00  0.00     0.008 C 
BRANCH  13  14
HETATM   14  C17 UNL     1      22.378   1.064  51.666  1.00  0.00    -0.051 C 
BRANCH  14  15
HETATM   15  C18 UNL     1      21.789  -0.072  52.418  1.00  0.00     0.049 C 
BRANCH  15  16
HETATM   16  C19 UNL     1      21.687   0.238  53.899  1.00  0.00     0.114 C 
BRANCH  16  17
HETATM   17  C20 UNL     1      21.530  -1.023  54.653  1.00  0.00     0.139 C 
HETATM   18  O3  UNL     1      22.413  -1.527  55.393  1.00  0.00    -0.650 OA
BRANCH  17  19
HETATM   19  O4  UNL     1      20.362  -1.783  54.612  1.00  0.00    -0.776 OA
HETATM   20  H17 UNL     1      20.214  -2.523  55.288  1.00  0.00     0.167 HD
ENDBRANCH  17  19
ENDBRANCH  16  17
ENDBRANCH  15  16
ENDBRANCH  14  15
BRANCH  14  21
HETATM   21  C21 UNL     1      21.706   1.557  50.428  1.00  0.00    -0.021 A 
HETATM   22  C22 UNL     1      21.006   2.234  49.570  1.00  0.00     0.074 A 
HETATM   23  C23 UNL     1      21.120   3.672  49.042  1.00  0.00     0.038 A 
HETATM   24  N2  UNL     1      20.243   1.080  49.333  1.00  0.00    -0.398 N 
HETATM   25  C26 UNL     1      21.658   1.030  49.021  1.00  0.00     0.117 A 
HETATM   26  C24 UNL     1      22.039   3.293  47.846  1.00  0.00     0.005 A 
HETATM   27  C25 UNL     1      22.266   1.801  47.955  1.00  0.00     0.030 A 
HETATM   28  H25 UNL     1      19.267   0.796  49.437  1.00  0.00     0.155 HD
ENDBRANCH  14  21
ENDBRANCH  13  14
ENDBRANCH  11  13
BRANCH   1  29
HETATM   29  C6  UNL     1      28.121   6.873  47.892  1.00  0.00    -0.023 A 
HETATM   30  C5  UNL     1      27.602   7.802  46.990  1.00  0.00     0.012 A 
HETATM   31  C4  UNL     1      28.455   8.612  46.263  1.00  0.00     0.004 A 
HETATM   32  C3  UNL     1      29.821   8.533  46.398  1.00  0.00     0.037 A 
HETATM   33  C2  UNL     1      30.369   7.614  47.290  1.00  0.00     0.069 A 
HETATM   34  C27 UNL     1      29.489   6.823  47.999  1.00  0.00     0.049 A 
BRANCH  33  35
HETATM   35  O1  UNL     1      31.750   7.532  47.430  1.00  0.00    -0.356 OA
HETATM   36  C1  UNL     1      32.329   6.248  47.219  1.00  0.00     0.210 C 
ENDBRANCH  33  35
ENDBRANCH   1  29
TORSDOF 9
ENDMDL
MODEL 6
REMARK VINA RESULT:      -8.7      2.538      4.012
REMARK  9 active torsions:
REMARK  status: ('A' for Active; 'I' for Inactive)
REMARK    1  A    between atoms: O1_2  and  C2_3 
REMARK    2  A    between atoms: C6_7  and  C7_8 
REMARK    3  A    between atoms: C15_18  and  C16_19 
REMARK    4  A    between atoms: C16_19  and  C17_20 
REMARK    5  A    between atoms: C17_20  and  C18_21 
REMARK    6  A    between atoms: C17_20  and  C21_26 
REMARK    7  A    between atoms: C18_21  and  C19_22 
REMARK    8  A    between atoms: C19_22  and  C20_23 
REMARK    9  A    between atoms: C20_23  and  O4_25 
ROOT
HETATM    1  C7  UNL     1      27.870   6.661  47.881  1.00  0.00    -0.024 A 
HETATM    2  C8  UNL     1      28.356   5.409  48.199  1.00  0.00     0.013 A 
HETATM    3  C9  UNL     1      27.491   4.544  48.848  1.00  0.00     0.015 A 
HETATM    4  C10 UNL     1      26.195   4.894  49.175  1.00  0.00     0.006 A 
HETATM    5  C11 UNL     1      25.707   6.140  48.860  1.00  0.00     0.047 A 
HETATM    6  C12 UNL     1      26.577   6.997  48.212  1.00  0.00     0.042 A 
HETATM    7  N1  UNL     1      24.358   6.343  49.264  1.00  0.00    -0.322 N 
HETATM    8  C13 UNL     1      23.961   5.132  49.882  1.00  0.00     0.257 A 
HETATM    9  O2  UNL     1      22.789   5.044  50.336  1.00  0.00    -0.267 OA
HETATM   10  C14 UNL     1      25.088   4.230  49.832  1.00  0.00     0.044 A 
HETATM   11  C15 UNL     1      25.071   3.009  50.316  1.00  0.00     0.018 C 
HETATM   12  H10 UNL     1      23.824   7.234  49.105  1.00  0.00     0.169 HD
ENDROOT
BRANCH  11  13
HETATM   13  C16 UNL     1      24.044   2.246  50.983  1.00  0.00     0.008 C 
BRANCH  13  14
HETATM   14  C17 UNL     1      23.880   1.923  52.253  1.00  0.00    -0.051 C 
BRANCH  14  15
HETATM   15  C18 UNL     1      24.699   2.441  53.378  1.00  0.00     0.049 C 
BRANCH  15  16
HETATM   16  C19 UNL     1      25.819   1.483  53.734  1.00  0.00     0.114 C 
BRANCH  16  17
HETATM   17  C20 UNL     1      27.112   2.065  53.319  1.00  0.00     0.139 C 
HETATM   18  O3  UNL     1      27.632   1.911  52.185  1.00  0.00    -0.650 OA
BRANCH  17  19
HETATM   19  O4  UNL     1      27.888   2.855  54.165  1.00  0.00    -0.776 OA
HETATM   20  H17 UNL     1      27.477   3.265  54.995  1.00  0.00     0.167 HD
ENDBRANCH  17  19
ENDBRANCH  16  17
ENDBRANCH  15  16
ENDBRANCH  14  15
BRANCH  14  21
HETATM   21  C21 UNL     1      22.778   0.955  52.528  1.00  0.00    -0.021 A 
HETATM   22  C22 UNL     1      22.040  -0.109  52.610  1.00  0.00     0.074 A 
HETATM   23  C23 UNL     1      22.230  -1.449  53.339  1.00  0.00     0.038 A 
HETATM   24  N2  UNL     1      21.056   0.554  51.861  1.00  0.00    -0.398 N 
HETATM   25  C26 UNL     1      21.417   1.116  53.148  1.00  0.00     0.117 A 
HETATM   26  C24 UNL     1      21.529  -0.979  54.646  1.00  0.00     0.005 A 
HETATM   27  C25 UNL     1      21.134   0.462  54.410  1.00  0.00     0.030 A 
HETATM   28  H25 UNL     1      20.593   0.427  50.959  1.00  0.00     0.155 HD
ENDBRANCH  14  21
ENDBRANCH  13  14
ENDBRANCH  11  13
BRANCH   1  29
HETATM   29  C6  UNL     1      28.801   7.551  47.198  1.00  0.00    -0.023 A 
HETATM   30  C5  UNL     1      28.336   8.707  46.568  1.00  0.00     0.012 A 
HETATM   31  C4  UNL     1      29.225   9.546  45.921  1.00  0.00     0.004 A 
HETATM   32  C3  UNL     1      30.572   9.279  45.874  1.00  0.00     0.037 A 
HETATM   33  C2  UNL     1      31.066   8.133  46.493  1.00  0.00     0.069 A 
HETATM   34  C27 UNL     1      30.152   7.318  47.129  1.00  0.00     0.049 A 
BRANCH  33  35
HETATM   35  O1  UNL     1      32.429   7.860  46.447  1.00  0.00    -0.356 OA
HETATM   36  C1  UNL     1      33.252   8.862  45.859  1.00  0.00     0.210 C 
ENDBRANCH  33  35
ENDBRANCH   1  29
TORSDOF 9
ENDMDL
MODEL 7
REMARK VINA RESULT:      -8.5      4.948      8.251
REMARK  9 active torsions:
REMARK  status: ('A' for Active; 'I' for Inactive)
REMARK    1  A    between atoms: O1_2  and  C2_3 
REMARK    2  A    between atoms: C6_7  and  C7_8 
REMARK    3  A    between atoms: C15_18  and  C16_19 
REMARK    4  A    between atoms: C16_19  and  C17_20 
REMARK    5  A    between atoms: C17_20  and  C18_21 
REMARK    6  A    between atoms: C17_20  and  C21_26 
REMARK    7  A    between atoms: C18_21  and  C19_22 
REMARK    8  A    between atoms: C19_22  and  C20_23 
REMARK    9  A    between atoms: C20_23  and  O4_25 
ROOT
HETATM    1  C7  UNL     1      25.307   0.559  53.245  1.00  0.00    -0.024 A 
HETATM    2  C8  UNL     1      24.647   1.289  52.277  1.00  0.00     0.013 A 
HETATM    3  C9  UNL     1      23.288   1.061  52.134  1.00  0.00     0.015 A 
HETATM    4  C10 UNL     1      22.601   0.150  52.913  1.00  0.00     0.006 A 
HETATM    5  C11 UNL     1      23.255  -0.579  53.878  1.00  0.00     0.047 A 
HETATM    6  C12 UNL     1      24.610  -0.345  54.014  1.00  0.00     0.042 A 
HETATM    7  N1  UNL     1      22.407  -1.471  54.591  1.00  0.00    -0.322 N 
HETATM    8  C13 UNL     1      21.116  -1.294  54.034  1.00  0.00     0.257 A 
HETATM    9  O2  UNL     1      20.163  -1.978  54.495  1.00  0.00    -0.267 OA
HETATM   10  C14 UNL     1      21.225  -0.294  52.997  1.00  0.00     0.044 A 
HETATM   11  C15 UNL     1      20.213   0.120  52.270  1.00  0.00     0.018 C 
HETATM   12  H10 UNL     1      22.735  -2.105  55.362  1.00  0.00     0.169 HD
ENDROOT
BRANCH  11  13
HETATM   13  C16 UNL     1      18.816  -0.242  52.260  1.00  0.00     0.008 C 
BRANCH  13  14
HETATM   14  C17 UNL     1      17.783   0.272  51.616  1.00  0.00    -0.051 C 
BRANCH  14  15
HETATM   15  C18 UNL     1      17.872   1.268  50.519  1.00  0.00     0.049 C 
BRANCH  15  16
HETATM   16  C19 UNL     1      16.855   2.379  50.696  1.00  0.00     0.114 C 
BRANCH  16  17
HETATM   17  C20 UNL     1      17.533   3.585  51.214  1.00  0.00     0.139 C 
HETATM   18  O3  UNL     1      18.471   3.573  52.050  1.00  0.00    -0.650 OA
BRANCH  17  19
HETATM   19  O4  UNL     1      17.186   4.874  50.811  1.00  0.00    -0.776 OA
HETATM   20  H17 UNL     1      17.817   5.647  50.985  1.00  0.00     0.167 HD
ENDBRANCH  17  19
ENDBRANCH  16  17
ENDBRANCH  15  16
ENDBRANCH  14  15
BRANCH  14  21
HETATM   21  C21 UNL     1      16.446  -0.214  52.066  1.00  0.00    -0.021 A 
HETATM   22  C22 UNL     1      15.353  -0.429  52.731  1.00  0.00     0.074 A 
HETATM   23  C23 UNL     1      14.200   0.493  53.160  1.00  0.00     0.038 A 
HETATM   24  N2  UNL     1      15.682  -1.793  52.768  1.00  0.00    -0.398 N 
HETATM   25  C26 UNL     1      15.465  -1.185  51.469  1.00  0.00     0.117 A 
HETATM   26  C24 UNL     1      13.355   0.238  51.878  1.00  0.00     0.005 A 
HETATM   27  C25 UNL     1      14.174  -0.702  51.022  1.00  0.00     0.030 A 
HETATM   28  H25 UNL     1      15.889  -2.492  53.484  1.00  0.00     0.155 HD
ENDBRANCH  14  21
ENDBRANCH  13  14
ENDBRANCH  11  13
BRANCH   1  29
HETATM   29  C6  UNL     1      26.736   0.818  53.374  1.00  0.00    -0.023 A 
HETATM   30  C5  UNL     1      27.206   2.125  53.508  1.00  0.00     0.012 A 
HETATM   31  C4  UNL     1      28.562   2.364  53.629  1.00  0.00     0.004 A 
HETATM   32  C3  UNL     1      29.482   1.342  53.621  1.00  0.00     0.037 A 
HETATM   33  C2  UNL     1      29.044   0.027  53.488  1.00  0.00     0.069 A 
HETATM   34  C27 UNL     1      27.684  -0.175  53.370  1.00  0.00     0.049 A 
BRANCH  33  35
HETATM   35  O1  UNL     1      29.972  -1.009  53.481  1.00  0.00    -0.356 OA
HETATM   36  C1  UNL     1      29.442  -2.328  53.382  1.00  0.00     0.210 C 
ENDBRANCH  33  35
ENDBRANCH   1  29
TORSDOF 9
ENDMDL
MODEL 8
REMARK VINA RESULT:      -8.5      2.970      9.906
REMARK  9 active torsions:
REMARK  status: ('A' for Active; 'I' for Inactive)
REMARK    1  A    between atoms: O1_2  and  C2_3 
REMARK    2  A    between atoms: C6_7  and  C7_8 
REMARK    3  A    between atoms: C15_18  and  C16_19 
REMARK    4  A    between atoms: C16_19  and  C17_20 
REMARK    5  A    between atoms: C17_20  and  C18_21 
REMARK    6  A    between atoms: C17_20  and  C21_26 
REMARK    7  A    between atoms: C18_21  and  C19_22 
REMARK    8  A    between atoms: C19_22  and  C20_23 
REMARK    9  A    between atoms: C20_23  and  O4_25 
ROOT
HETATM    1  C7  UNL     1      24.765   3.764  50.392  1.00  0.00    -0.024 A 
HETATM    2  C8  UNL     1      25.912   3.083  50.035  1.00  0.00     0.013 A 
HETATM    3  C9  UNL     1      26.899   3.810  49.390  1.00  0.00     0.015 A 
HETATM    4  C10 UNL     1      26.766   5.155  49.103  1.00  0.00     0.006 A 
HETATM    5  C11 UNL     1      25.625   5.836  49.457  1.00  0.00     0.047 A 
HETATM    6  C12 UNL     1      24.646   5.104  50.101  1.00  0.00     0.042 A 
HETATM    7  N1  UNL     1      25.645   7.210  49.092  1.00  0.00    -0.322 N 
HETATM    8  C13 UNL     1      26.896   7.416  48.458  1.00  0.00     0.257 A 
HETATM    9  O2  UNL     1      27.171   8.570  48.032  1.00  0.00    -0.267 OA
HETATM   10  C14 UNL     1      27.595   6.153  48.461  1.00  0.00     0.044 A 
HETATM   11  C15 UNL     1      28.794   5.978  47.951  1.00  0.00     0.018 C 
HETATM   12  H10 UNL     1      24.860   7.881  49.283  1.00  0.00     0.169 HD
ENDROOT
BRANCH  11  13
HETATM   13  C16 UNL     1      29.707   6.882  47.293  1.00  0.00     0.008 C 
BRANCH  13  14
HETATM   14  C17 UNL     1      30.958   7.211  47.562  1.00  0.00    -0.051 C 
BRANCH  14  15
HETATM   15  C18 UNL     1      31.489   8.597  47.585  1.00  0.00     0.049 C 
BRANCH  15  16
HETATM   16  C19 UNL     1      30.370   9.618  47.666  1.00  0.00     0.114 C 
BRANCH  16  17
HETATM   17  C20 UNL     1      30.222  10.071  49.064  1.00  0.00     0.139 C 
HETATM   18  O3  UNL     1      30.738  11.116  49.534  1.00  0.00    -0.650 OA
BRANCH  17  19
HETATM   19  O4  UNL     1      29.478   9.366  50.008  1.00  0.00    -0.776 OA
HETATM   20  H17 UNL     1      28.470   9.308  49.921  1.00  0.00     0.167 HD
ENDBRANCH  17  19
ENDBRANCH  16  17
ENDBRANCH  15  16
ENDBRANCH  14  15
BRANCH  14  21
HETATM   21  C21 UNL     1      31.869   6.066  47.854  1.00  0.00    -0.021 A 
HETATM   22  C22 UNL     1      32.361   4.892  48.105  1.00  0.00     0.074 A 
HETATM   23  C23 UNL     1      32.388   3.584  47.298  1.00  0.00     0.038 A 
HETATM   24  N2  UNL     1      32.875   5.400  49.308  1.00  0.00    -0.398 N 
HETATM   25  C26 UNL     1      33.355   5.981  48.069  1.00  0.00     0.117 A 
HETATM   26  C24 UNL     1      33.745   3.896  46.603  1.00  0.00     0.005 A 
HETATM   27  C25 UNL     1      34.168   5.256  47.113  1.00  0.00     0.030 A 
HETATM   28  H25 UNL     1      32.754   5.221  50.307  1.00  0.00     0.155 HD
ENDBRANCH  14  21
ENDBRANCH  13  14
ENDBRANCH  11  13
BRANCH   1  29
HETATM   29  C6  UNL     1      23.743   2.976  51.070  1.00  0.00    -0.023 A 
HETATM   30  C5  UNL     1      22.415   3.408  51.085  1.00  0.00     0.012 A 
HETATM   31  C4  UNL     1      21.451   2.656  51.730  1.00  0.00     0.004 A 
HETATM   32  C3  UNL     1      21.757   1.480  52.371  1.00  0.00     0.037 A 
HETATM   33  C2  UNL     1      23.073   1.023  52.375  1.00  0.00     0.069 A 
HETATM   34  C27 UNL     1      24.009   1.797  51.721  1.00  0.00     0.049 A 
BRANCH  33  35
HETATM   35  O1  UNL     1      23.385  -0.168  53.022  1.00  0.00    -0.356 OA
HETATM   36  C1  UNL     1      22.521  -0.550  54.088  1.00  0.00     0.210 C 
ENDBRANCH  33  35
ENDBRANCH   1  29
TORSDOF 9
ENDMDL
MODEL 9
REMARK VINA RESULT:      -8.3      3.098     10.329
REMARK  9 active torsions:
REMARK  status: ('A' for Active; 'I' for Inactive)
REMARK    1  A    between atoms: O1_2  and  C2_3 
REMARK    2  A    between atoms: C6_7  and  C7_8 
REMARK    3  A    between atoms: C15_18  and  C16_19 
REMARK    4  A    between atoms: C16_19  and  C17_20 
REMARK    5  A    between atoms: C17_20  and  C18_21 
REMARK    6  A    between atoms: C17_20  and  C21_26 
REMARK    7  A    between atoms: C18_21  and  C19_22 
REMARK    8  A    between atoms: C19_22  and  C20_23 
REMARK    9  A    between atoms: C20_23  and  O4_25 
ROOT
HETATM    1  C7  UNL     1      24.848   3.582  49.765  1.00  0.00    -0.024 A 
HETATM    2  C8  UNL     1      26.157   3.146  49.719  1.00  0.00     0.013 A 
HETATM    3  C9  UNL     1      27.093   4.021  49.192  1.00  0.00     0.015 A 
HETATM    4  C10 UNL     1      26.757   5.277  48.725  1.00  0.00     0.006 A 
HETATM    5  C11 UNL     1      25.454   5.714  48.768  1.00  0.00     0.047 A 
HETATM    6  C12 UNL     1      24.527   4.836  49.297  1.00  0.00     0.042 A 
HETATM    7  N1  UNL     1      25.276   7.027  48.250  1.00  0.00    -0.322 N 
HETATM    8  C13 UNL     1      26.565   7.455  47.847  1.00  0.00     0.257 A 
HETATM    9  O2  UNL     1      26.688   8.604  47.346  1.00  0.00    -0.267 OA
HETATM   10  C14 UNL     1      27.487   6.381  48.137  1.00  0.00     0.044 A 
HETATM   11  C15 UNL     1      28.776   6.437  47.891  1.00  0.00     0.018 C 
HETATM   12  H10 UNL     1      24.349   7.520  48.205  1.00  0.00     0.169 HD
ENDROOT
BRANCH  11  13
HETATM   13  C16 UNL     1      29.609   7.466  47.316  1.00  0.00     0.008 C 
BRANCH  13  14
HETATM   14  C17 UNL     1      30.692   8.070  47.770  1.00  0.00    -0.051 C 
BRANCH  14  15
HETATM   15  C18 UNL     1      32.082   7.586  47.580  1.00  0.00     0.049 C 
BRANCH  15  16
HETATM   16  C19 UNL     1      32.115   6.098  47.290  1.00  0.00     0.114 C 
BRANCH  16  17
HETATM   17  C20 UNL     1      32.435   5.365  48.532  1.00  0.00     0.139 C 
HETATM   18  O3  UNL     1      31.623   5.163  49.470  1.00  0.00    -0.650 OA
BRANCH  17  19
HETATM   19  O4  UNL     1      33.693   4.818  48.780  1.00  0.00    -0.776 OA
HETATM   20  H17 UNL     1      33.833   4.204  49.574  1.00  0.00     0.167 HD
ENDBRANCH  17  19
ENDBRANCH  16  17
ENDBRANCH  15  16
ENDBRANCH  14  15
BRANCH  14  21
HETATM   21  C21 UNL     1      30.447   9.331  48.531  1.00  0.00    -0.021 A 
HETATM   22  C22 UNL     1      30.542  10.516  49.050  1.00  0.00     0.074 A 
HETATM   23  C23 UNL     1      30.589  11.921  48.429  1.00  0.00     0.038 A 
HETATM   24  N2  UNL     1      30.489   9.927  50.323  1.00  0.00    -0.398 N 
HETATM   25  C26 UNL     1      29.340   9.761  49.454  1.00  0.00     0.117 A 
HETATM   26  C24 UNL     1      29.047  12.129  48.478  1.00  0.00     0.005 A 
HETATM   27  C25 UNL     1      28.476  10.855  49.060  1.00  0.00     0.030 A 
HETATM   28  H25 UNL     1      31.099   9.858  51.140  1.00  0.00     0.155 HD
ENDBRANCH  14  21
ENDBRANCH  13  14
ENDBRANCH  11  13
BRANCH   1  29
HETATM   29  C6  UNL     1      23.883   2.643  50.325  1.00  0.00    -0.023 A 
HETATM   30  C5  UNL     1      24.140   2.012  51.543  1.00  0.00     0.012 A 
HETATM   31  C4  UNL     1      23.222   1.121  52.068  1.00  0.00     0.004 A 
HETATM   32  C3  UNL     1      22.044   0.829  51.422  1.00  0.00     0.037 A 
HETATM   33  C2  UNL     1      21.760   1.443  50.204  1.00  0.00     0.069 A 
HETATM   34  C27 UNL     1      22.697   2.326  49.710  1.00  0.00     0.049 A 
BRANCH  33  35
HETATM   35  O1  UNL     1      20.568   1.150  49.549  1.00  0.00    -0.356 OA
HETATM   36  C1  UNL     1      19.457   0.826  50.379  1.00  0.00     0.210 C 
ENDBRANCH  33  35
ENDBRANCH   1  29
TORSDOF 9
ENDMDL
