MODEL 1
REMARK VINA RESULT:      -9.1      0.000      0.000
REMARK  4 active torsions:
REMARK  status: ('A' for Active; 'I' for Inactive)
REMARK       I    between atoms: C1_2  and  N1_3 
REMARK    1  A    between atoms: C1_2  and  C16_22 
REMARK    2  A    between atoms: N1_3  and  C2_4 
REMARK    3  A    between atoms: C6_8  and  N2_9 
REMARK    4  A    between atoms: N2_9  and  C7_10 
ROOT
HETATM    1  C2  UNL     1      24.300   1.245  52.317  1.00  0.00     0.037 A 
HETATM    2  C3  UNL     1      23.132   0.944  53.022  1.00  0.00     0.029 A 
HETATM    3  C4  UNL     1      21.910   1.518  52.705  1.00  0.00     0.004 A 
HETATM    4  C5  UNL     1      21.924   2.404  51.649  1.00  0.00     0.030 A 
HETATM    5  C6  UNL     1      23.022   2.761  50.898  1.00  0.00     0.051 A 
HETATM    6  C15 UNL     1      24.216   2.143  51.275  1.00  0.00     0.059 A 
ENDROOT
BRANCH   5   7
HETATM    7  N2  UNL     1      22.935   3.689  49.823  1.00  0.00    -0.188 N 
HETATM    8  H5  UNL     1      22.155   3.573  49.165  1.00  0.00     0.184 HD
BRANCH   7   9
HETATM    9  C7  UNL     1      23.954   4.682  49.788  1.00  0.00     0.727 A 
HETATM   10  N3  UNL     1      23.585   5.822  50.402  1.00  0.00    -0.074 NA
HETATM   11  C8  UNL     1      24.404   6.910  50.491  1.00  0.00     0.151 A 
HETATM   12  C9  UNL     1      25.666   6.830  49.923  1.00  0.00     0.025 A 
HETATM   13  C10 UNL     1      26.023   5.649  49.298  1.00  0.00     0.070 A 
HETATM   14  C14 UNL     1      26.421   8.068  50.100  1.00  0.00     0.131 C 
HETATM   15  N4  UNL     1      25.179   4.586  49.231  1.00  0.00    -0.066 NA
HETATM   16  C11 UNL     1      27.288   5.280  48.615  1.00  0.00     0.089 C 
HETATM   17  C12 UNL     1      28.069   6.453  48.187  1.00  0.00    -0.002 C 
HETATM   18  C13 UNL     1      28.205   7.734  48.485  1.00  0.00     0.112 C 
HETATM   19  N5  UNL     1      27.489   8.454  49.498  1.00  0.00    -0.272 NA
ENDBRANCH   7   9
ENDBRANCH   5   7
BRANCH   1  20
HETATM   20  N1  UNL     1      25.522   0.649  52.659  1.00  0.00    -0.323 N 
HETATM   21  C1  UNL     1      26.667   0.876  53.459  1.00  0.00     0.257 C 
HETATM   22  O1  UNL     1      26.630   1.974  54.105  1.00  0.00    -0.267 OA
HETATM   23  H1  UNL     1      25.385  -0.193  52.066  1.00  0.00     0.169 HD
BRANCH  21  24
HETATM   24  C16 UNL     1      27.725  -0.118  53.463  1.00  0.00     0.049 A 
HETATM   25  C17 UNL     1      29.055   0.037  53.783  1.00  0.00     0.020 A 
HETATM   26  C18 UNL     1      29.889  -1.064  53.715  1.00  0.00     0.020 A 
HETATM   27  C19 UNL     1      29.405  -2.314  53.329  1.00  0.00     0.116 A 
HETATM   28  N6  UNL     1      28.107  -2.458  53.018  1.00  0.00    -0.272 NA
HETATM   29  C20 UNL     1      27.278  -1.376  53.083  1.00  0.00     0.133 A 
ENDBRANCH  21  24
ENDBRANCH   1  20
TORSDOF 4
ENDMDL
MODEL 2
REMARK VINA RESULT:      -9.0      0.875      1.057
REMARK  4 active torsions:
REMARK  status: ('A' for Active; 'I' for Inactive)
REMARK       I    between atoms: C1_2  and  N1_3 
REMARK    1  A    between atoms: C1_2  and  C16_22 
REMARK    2  A    between atoms: N1_3  and  C2_4 
REMARK    3  A    between atoms: C6_8  and  N2_9 
REMARK    4  A    between atoms: N2_9  and  C7_10 
ROOT
HETATM    1  C2  UNL     1      23.888   0.738  52.976  1.00  0.00     0.037 A 
HETATM    2  C3  UNL     1      22.834   0.147  53.679  1.00  0.00     0.029 A 
HETATM    3  C4  UNL     1      21.520   0.564  53.527  1.00  0.00     0.004 A 
HETATM    4  C5  UNL     1      21.323   1.600  52.638  1.00  0.00     0.030 A 
HETATM    5  C6  UNL     1      22.296   2.241  51.904  1.00  0.00     0.051 A 
HETATM    6  C15 UNL     1      23.593   1.767  52.109  1.00  0.00     0.059 A 
ENDROOT
BRANCH   5   7
HETATM    7  N2  UNL     1      21.991   3.305  51.009  1.00  0.00    -0.188 N 
HETATM    8  H5  UNL     1      21.030   3.356  50.651  1.00  0.00     0.184 HD
BRANCH   7   9
HETATM    9  C7  UNL     1      23.070   4.184  50.714  1.00  0.00     0.727 A 
HETATM   10  N3  UNL     1      22.807   5.459  51.058  1.00  0.00    -0.074 NA
HETATM   11  C8  UNL     1      23.700   6.474  50.867  1.00  0.00     0.151 A 
HETATM   12  C9  UNL     1      24.925   6.171  50.294  1.00  0.00     0.025 A 
HETATM   13  C10 UNL     1      25.173   4.854  49.949  1.00  0.00     0.070 A 
HETATM   14  C14 UNL     1      25.768   7.356  50.156  1.00  0.00     0.131 C 
HETATM   15  N4  UNL     1      24.259   3.871  50.156  1.00  0.00    -0.066 NA
HETATM   16  C11 UNL     1      26.377   4.245  49.331  1.00  0.00     0.089 C 
HETATM   17  C12 UNL     1      27.212   5.226  48.619  1.00  0.00    -0.002 C 
HETATM   18  C13 UNL     1      27.447   6.529  48.607  1.00  0.00     0.112 C 
HETATM   19  N5  UNL     1      26.829   7.513  49.448  1.00  0.00    -0.272 NA
ENDBRANCH   7   9
ENDBRANCH   5   7
BRANCH   1  20
HETATM   20  N1  UNL     1      25.207   0.294  53.148  1.00  0.00    -0.323 N 
HETATM   21  C1  UNL     1      26.443   0.716  53.694  1.00  0.00     0.257 C 
HETATM   22  O1  UNL     1      26.402   1.878  54.215  1.00  0.00    -0.267 OA
HETATM   23  H1  UNL     1      25.059  -0.623  52.685  1.00  0.00     0.169 HD
BRANCH  21  24
HETATM   24  C16 UNL     1      27.584  -0.177  53.609  1.00  0.00     0.049 A 
HETATM   25  C17 UNL     1      28.906   0.082  53.894  1.00  0.00     0.020 A 
HETATM   26  C18 UNL     1      29.832  -0.934  53.738  1.00  0.00     0.020 A 
HETATM   27  C19 UNL     1      29.448  -2.200  53.300  1.00  0.00     0.116 A 
HETATM   28  N6  UNL     1      28.156  -2.446  53.023  1.00  0.00    -0.272 NA
HETATM   29  C20 UNL     1      27.238  -1.449  53.174  1.00  0.00     0.133 A 
ENDBRANCH  21  24
ENDBRANCH   1  20
TORSDOF 4
ENDMDL
MODEL 3
REMARK VINA RESULT:      -9.0      2.088      7.241
REMARK  4 active torsions:
REMARK  status: ('A' for Active; 'I' for Inactive)
REMARK       I    between atoms: C1_2  and  N1_3 
REMARK    1  A    between atoms: C1_2  and  C16_22 
REMARK    2  A    between atoms: N1_3  and  C2_4 
REMARK    3  A    between atoms: C6_8  and  N2_9 
REMARK    4  A    between atoms: N2_9  and  C7_10 
ROOT
HETATM    1  C2  UNL     1      24.200   3.169  49.614  1.00  0.00     0.037 A 
HETATM    2  C3  UNL     1      23.107   2.912  48.781  1.00  0.00     0.029 A 
HETATM    3  C4  UNL     1      22.095   2.035  49.143  1.00  0.00     0.004 A 
HETATM    4  C5  UNL     1      22.238   1.435  50.376  1.00  0.00     0.030 A 
HETATM    5  C6  UNL     1      23.276   1.627  51.260  1.00  0.00     0.051 A 
HETATM    6  C15 UNL     1      24.257   2.522  50.829  1.00  0.00     0.059 A 
ENDROOT
BRANCH   5   7
HETATM    7  N2  UNL     1      23.335   0.957  52.515  1.00  0.00    -0.188 N 
HETATM    8  H5  UNL     1      22.446   0.798  53.004  1.00  0.00     0.184 HD
BRANCH   7   9
HETATM    9  C7  UNL     1      24.638   0.583  52.947  1.00  0.00     0.727 A 
HETATM   10  N3  UNL     1      25.224   1.531  53.703  1.00  0.00    -0.074 NA
HETATM   11  C8  UNL     1      26.476   1.386  54.228  1.00  0.00     0.151 A 
HETATM   12  C9  UNL     1      27.166   0.214  53.965  1.00  0.00     0.025 A 
HETATM   13  C10 UNL     1      26.544  -0.746  53.187  1.00  0.00     0.070 A 
HETATM   14  C14 UNL     1      28.486   0.207  54.592  1.00  0.00     0.131 C 
HETATM   15  N4  UNL     1      25.295  -0.566  52.684  1.00  0.00    -0.066 NA
HETATM   16  C11 UNL     1      27.032  -2.078  52.750  1.00  0.00     0.089 C 
HETATM   17  C12 UNL     1      28.499  -2.192  52.796  1.00  0.00    -0.002 C 
HETATM   18  C13 UNL     1      29.534  -1.634  53.403  1.00  0.00     0.112 C 
HETATM   19  N5  UNL     1      29.485  -0.566  54.360  1.00  0.00    -0.272 NA
ENDBRANCH   7   9
ENDBRANCH   5   7
BRANCH   1  20
HETATM   20  N1  UNL     1      25.208   4.061  49.223  1.00  0.00    -0.323 N 
HETATM   21  C1  UNL     1      25.431   5.443  49.017  1.00  0.00     0.257 C 
HETATM   22  O1  UNL     1      24.407   6.166  49.248  1.00  0.00    -0.267 OA
HETATM   23  H1  UNL     1      25.932   3.329  49.080  1.00  0.00     0.169 HD
BRANCH  21  24
HETATM   24  C16 UNL     1      26.744   5.882  48.580  1.00  0.00     0.049 A 
HETATM   25  C17 UNL     1      27.124   7.111  48.089  1.00  0.00     0.020 A 
HETATM   26  C18 UNL     1      28.446   7.304  47.731  1.00  0.00     0.020 A 
HETATM   27  C19 UNL     1      29.386   6.282  47.860  1.00  0.00     0.116 A 
HETATM   28  N6  UNL     1      29.008   5.086  48.341  1.00  0.00    -0.272 NA
HETATM   29  C20 UNL     1      27.706   4.888  48.695  1.00  0.00     0.133 A 
ENDBRANCH  21  24
ENDBRANCH   1  20
TORSDOF 4
ENDMDL
MODEL 4
REMARK VINA RESULT:      -8.6      2.468      6.174
REMARK  4 active torsions:
REMARK  status: ('A' for Active; 'I' for Inactive)
REMARK       I    between atoms: C1_2  and  N1_3 
REMARK    1  A    between atoms: C1_2  and  C16_22 
REMARK    2  A    between atoms: N1_3  and  C2_4 
REMARK    3  A    between atoms: C6_8  and  N2_9 
REMARK    4  A    between atoms: N2_9  and  C7_10 
ROOT
HETATM    1  C2  UNL     1      26.004   2.608  51.404  1.00  0.00     0.037 A 
HETATM    2  C3  UNL     1      26.386   3.251  50.223  1.00  0.00     0.029 A 
HETATM    3  C4  UNL     1      25.594   4.218  49.621  1.00  0.00     0.004 A 
HETATM    4  C5  UNL     1      24.408   4.502  50.264  1.00  0.00     0.030 A 
HETATM    5  C6  UNL     1      23.951   3.922  51.427  1.00  0.00     0.051 A 
HETATM    6  C15 UNL     1      24.800   2.958  51.974  1.00  0.00     0.059 A 
ENDROOT
BRANCH   5   7
HETATM    7  N2  UNL     1      22.706   4.284  52.015  1.00  0.00    -0.188 N 
HETATM    8  H5  UNL     1      22.643   5.214  52.444  1.00  0.00     0.184 HD
BRANCH   7   9
HETATM    9  C7  UNL     1      21.683   3.298  51.934  1.00  0.00     0.727 A 
HETATM   10  N3  UNL     1      20.655   3.684  51.155  1.00  0.00    -0.074 NA
HETATM   11  C8  UNL     1      19.562   2.897  50.933  1.00  0.00     0.151 A 
HETATM   12  C9  UNL     1      19.515   1.652  51.540  1.00  0.00     0.025 A 
HETATM   13  C10 UNL     1      20.583   1.278  52.336  1.00  0.00     0.070 A 
HETATM   14  C14 UNL     1      18.288   0.931  51.209  1.00  0.00     0.131 C 
HETATM   15  N4  UNL     1      21.655   2.089  52.531  1.00  0.00    -0.066 NA
HETATM   16  C11 UNL     1      20.805   0.024  53.098  1.00  0.00     0.089 C 
HETATM   17  C12 UNL     1      19.557  -0.706  53.376  1.00  0.00    -0.002 C 
HETATM   18  C13 UNL     1      18.326  -0.811  52.902  1.00  0.00     0.112 C 
HETATM   19  N5  UNL     1      17.784  -0.104  51.777  1.00  0.00    -0.272 NA
ENDBRANCH   7   9
ENDBRANCH   5   7
BRANCH   1  20
HETATM   20  N1  UNL     1      26.825   1.635  51.991  1.00  0.00    -0.323 N 
HETATM   21  C1  UNL     1      27.577   1.398  53.166  1.00  0.00     0.257 C 
HETATM   22  O1  UNL     1      27.530   2.356  54.005  1.00  0.00    -0.267 OA
HETATM   23  H1  UNL     1      26.752   0.962  51.203  1.00  0.00     0.169 HD
BRANCH  21  24
HETATM   24  C16 UNL     1      28.297   0.145  53.293  1.00  0.00     0.049 A 
HETATM   25  C17 UNL     1      29.612  -0.064  53.648  1.00  0.00     0.020 A 
HETATM   26  C18 UNL     1      30.088  -1.361  53.704  1.00  0.00     0.020 A 
HETATM   27  C19 UNL     1      29.264  -2.447  53.409  1.00  0.00     0.116 A 
HETATM   28  N6  UNL     1      27.983  -2.236  53.064  1.00  0.00    -0.272 NA
HETATM   29  C20 UNL     1      27.506  -0.959  53.007  1.00  0.00     0.133 A 
ENDBRANCH  21  24
ENDBRANCH   1  20
TORSDOF 4
ENDMDL
MODEL 5
REMARK VINA RESULT:      -8.6      1.492      2.260
REMARK  4 active torsions:
REMARK  status: ('A' for Active; 'I' for Inactive)
REMARK       I    between atoms: C1_2  and  N1_3 
REMARK    1  A    between atoms: C1_2  and  C16_22 
REMARK    2  A    between atoms: N1_3  and  C2_4 
REMARK    3  A    between atoms: C6_8  and  N2_9 
REMARK    4  A    between atoms: N2_9  and  C7_10 
ROOT
HETATM    1  C2  UNL     1      23.653  -0.143  53.545  1.00  0.00     0.037 A 
HETATM    2  C3  UNL     1      22.785  -0.857  54.375  1.00  0.00     0.029 A 
HETATM    3  C4  UNL     1      21.426  -0.581  54.433  1.00  0.00     0.004 A 
HETATM    4  C5  UNL     1      20.991   0.442  53.617  1.00  0.00     0.030 A 
HETATM    5  C6  UNL     1      21.771   1.197  52.769  1.00  0.00     0.051 A 
HETATM    6  C15 UNL     1      23.126   0.864  52.766  1.00  0.00     0.059 A 
ENDROOT
BRANCH   5   7
HETATM    7  N2  UNL     1      21.225   2.237  51.965  1.00  0.00    -0.188 N 
HETATM    8  H5  UNL     1      20.235   2.159  51.705  1.00  0.00     0.184 HD
BRANCH   7   9
HETATM    9  C7  UNL     1      22.131   3.277  51.614  1.00  0.00     0.727 A 
HETATM   10  N3  UNL     1      21.740   4.480  52.075  1.00  0.00    -0.074 NA
HETATM   11  C8  UNL     1      22.457   5.621  51.858  1.00  0.00     0.151 A 
HETATM   12  C9  UNL     1      23.632   5.530  51.130  1.00  0.00     0.025 A 
HETATM   13  C10 UNL     1      24.014   4.283  50.666  1.00  0.00     0.070 A 
HETATM   14  C14 UNL     1      24.284   6.830  50.983  1.00  0.00     0.131 C 
HETATM   15  N4  UNL     1      23.274   3.169  50.905  1.00  0.00    -0.066 NA
HETATM   16  C11 UNL     1      25.205   3.888  49.874  1.00  0.00     0.089 C 
HETATM   17  C12 UNL     1      25.806   5.017  49.144  1.00  0.00    -0.002 C 
HETATM   18  C13 UNL     1      25.858   6.338  49.199  1.00  0.00     0.112 C 
HETATM   19  N5  UNL     1      25.219   7.175  50.173  1.00  0.00    -0.272 NA
ENDBRANCH   7   9
ENDBRANCH   5   7
BRANCH   1  20
HETATM   20  N1  UNL     1      25.022  -0.443  53.507  1.00  0.00    -0.323 N 
HETATM   21  C1  UNL     1      26.282   0.194  53.407  1.00  0.00     0.257 C 
HETATM   22  O1  UNL     1      26.209   1.463  53.319  1.00  0.00    -0.267 OA
HETATM   23  H1  UNL     1      24.896  -1.471  53.586  1.00  0.00     0.169 HD
BRANCH  21  24
HETATM   24  C16 UNL     1      27.481  -0.625  53.413  1.00  0.00     0.049 A 
HETATM   25  C17 UNL     1      28.759  -0.283  53.795  1.00  0.00     0.020 A 
HETATM   26  C18 UNL     1      29.756  -1.238  53.714  1.00  0.00     0.020 A 
HETATM   27  C19 UNL     1      29.486  -2.527  53.256  1.00  0.00     0.116 A 
HETATM   28  N6  UNL     1      28.237  -2.854  52.884  1.00  0.00    -0.272 NA
HETATM   29  C20 UNL     1      27.249  -1.917  52.961  1.00  0.00     0.133 A 
ENDBRANCH  21  24
ENDBRANCH   1  20
TORSDOF 4
ENDMDL
MODEL 6
REMARK VINA RESULT:      -8.4      2.953      4.284
REMARK  4 active torsions:
REMARK  status: ('A' for Active; 'I' for Inactive)
REMARK       I    between atoms: C1_2  and  N1_3 
REMARK    1  A    between atoms: C1_2  and  C16_22 
REMARK    2  A    between atoms: N1_3  and  C2_4 
REMARK    3  A    between atoms: C6_8  and  N2_9 
REMARK    4  A    between atoms: N2_9  and  C7_10 
ROOT
HETATM    1  C2  UNL     1      23.478  -0.273  53.678  1.00  0.00     0.037 A 
HETATM    2  C3  UNL     1      22.889  -1.005  54.712  1.00  0.00     0.029 A 
HETATM    3  C4  UNL     1      21.538  -1.321  54.716  1.00  0.00     0.004 A 
HETATM    4  C5  UNL     1      20.817  -0.864  53.633  1.00  0.00     0.030 A 
HETATM    5  C6  UNL     1      21.310  -0.137  52.572  1.00  0.00     0.051 A 
HETATM    6  C15 UNL     1      22.676   0.142  52.637  1.00  0.00     0.059 A 
ENDROOT
BRANCH   5   7
HETATM    7  N2  UNL     1      20.481   0.291  51.497  1.00  0.00    -0.188 N 
HETATM    8  H5  UNL     1      19.605  -0.224  51.346  1.00  0.00     0.184 HD
BRANCH   7   9
HETATM    9  C7  UNL     1      20.971   1.399  50.752  1.00  0.00     0.727 A 
HETATM   10  N3  UNL     1      21.470   1.036  49.555  1.00  0.00    -0.074 NA
HETATM   11  C8  UNL     1      21.994   1.934  48.671  1.00  0.00     0.151 A 
HETATM   12  C9  UNL     1      22.012   3.273  49.029  1.00  0.00     0.025 A 
HETATM   13  C10 UNL     1      21.493   3.623  50.263  1.00  0.00     0.070 A 
HETATM   14  C14 UNL     1      22.601   4.108  47.984  1.00  0.00     0.131 C 
HETATM   15  N4  UNL     1      20.978   2.699  51.115  1.00  0.00    -0.066 NA
HETATM   16  C11 UNL     1      21.380   4.957  50.902  1.00  0.00     0.089 C 
HETATM   17  C12 UNL     1      22.314   5.944  50.336  1.00  0.00    -0.002 C 
HETATM   18  C13 UNL     1      23.002   6.157  49.226  1.00  0.00     0.112 C 
HETATM   19  N5  UNL     1      23.019   5.320  48.061  1.00  0.00    -0.272 NA
ENDBRANCH   7   9
ENDBRANCH   5   7
BRANCH   1  20
HETATM   20  N1  UNL     1      24.847   0.031  53.700  1.00  0.00    -0.323 N 
HETATM   21  C1  UNL     1      26.092  -0.487  53.272  1.00  0.00     0.257 C 
HETATM   22  O1  UNL     1      25.998  -1.599  52.656  1.00  0.00    -0.267 OA
HETATM   23  H1  UNL     1      24.737   0.925  54.217  1.00  0.00     0.169 HD
BRANCH  21  24
HETATM   24  C16 UNL     1      27.299   0.264  53.564  1.00  0.00     0.049 A 
HETATM   25  C17 UNL     1      28.603  -0.177  53.601  1.00  0.00     0.020 A 
HETATM   26  C18 UNL     1      29.603   0.728  53.907  1.00  0.00     0.020 A 
HETATM   27  C19 UNL     1      29.310   2.065  54.176  1.00  0.00     0.116 A 
HETATM   28  N6  UNL     1      28.036   2.488  54.138  1.00  0.00    -0.272 NA
HETATM   29  C20 UNL     1      27.044   1.601  53.837  1.00  0.00     0.133 A 
ENDBRANCH  21  24
ENDBRANCH   1  20
TORSDOF 4
ENDMDL
MODEL 7
REMARK VINA RESULT:      -8.3      2.141      3.221
REMARK  4 active torsions:
REMARK  status: ('A' for Active; 'I' for Inactive)
REMARK       I    between atoms: C1_2  and  N1_3 
REMARK    1  A    between atoms: C1_2  and  C16_22 
REMARK    2  A    between atoms: N1_3  and  C2_4 
REMARK    3  A    between atoms: C6_8  and  N2_9 
REMARK    4  A    between atoms: N2_9  and  C7_10 
ROOT
HETATM    1  C2  UNL     1      25.035   3.599  50.600  1.00  0.00     0.037 A 
HETATM    2  C3  UNL     1      24.093   2.919  49.824  1.00  0.00     0.029 A 
HETATM    3  C4  UNL     1      23.344   3.557  48.846  1.00  0.00     0.004 A 
HETATM    4  C5  UNL     1      23.592   4.905  48.691  1.00  0.00     0.030 A 
HETATM    5  C6  UNL     1      24.498   5.656  49.407  1.00  0.00     0.051 A 
HETATM    6  C15 UNL     1      25.213   4.946  50.374  1.00  0.00     0.059 A 
ENDROOT
BRANCH   5   7
HETATM    7  N2  UNL     1      24.680   7.048  49.173  1.00  0.00    -0.188 N 
HETATM    8  H5  UNL     1      23.835   7.625  49.093  1.00  0.00     0.184 HD
BRANCH   7   9
HETATM    9  C7  UNL     1      26.033   7.478  49.078  1.00  0.00     0.727 A 
HETATM   10  N3  UNL     1      26.280   8.574  49.821  1.00  0.00    -0.074 NA
HETATM   11  C8  UNL     1      27.510   9.162  49.883  1.00  0.00     0.151 A 
HETATM   12  C9  UNL     1      28.542   8.604  49.145  1.00  0.00     0.025 A 
HETATM   13  C10 UNL     1      28.265   7.479  48.388  1.00  0.00     0.070 A 
HETATM   14  C14 UNL     1      29.792   9.342  49.312  1.00  0.00     0.131 C 
HETATM   15  N4  UNL     1      27.027   6.921  48.354  1.00  0.00    -0.066 NA
HETATM   16  C11 UNL     1      29.158   6.679  47.514  1.00  0.00     0.089 C 
HETATM   17  C12 UNL     1      30.348   7.426  47.075  1.00  0.00    -0.002 C 
HETATM   18  C13 UNL     1      31.080   8.463  47.450  1.00  0.00     0.112 C 
HETATM   19  N5  UNL     1      30.861   9.287  48.604  1.00  0.00    -0.272 NA
ENDBRANCH   7   9
ENDBRANCH   5   7
BRANCH   1  20
HETATM   20  N1  UNL     1      25.778   2.928  51.582  1.00  0.00    -0.323 N 
HETATM   21  C1  UNL     1      25.639   2.381  52.880  1.00  0.00     0.257 C 
HETATM   22  O1  UNL     1      24.471   2.516  53.369  1.00  0.00    -0.267 OA
HETATM   23  H1  UNL     1      26.661   2.908  51.034  1.00  0.00     0.169 HD
BRANCH  21  24
HETATM   24  C16 UNL     1      26.791   1.751  53.499  1.00  0.00     0.049 A 
HETATM   25  C17 UNL     1      28.100   2.179  53.525  1.00  0.00     0.020 A 
HETATM   26  C18 UNL     1      29.040   1.406  54.182  1.00  0.00     0.020 A 
HETATM   27  C19 UNL     1      28.683   0.213  54.810  1.00  0.00     0.116 A 
HETATM   28  N6  UNL     1      27.404  -0.198  54.781  1.00  0.00    -0.272 NA
HETATM   29  C20 UNL     1      26.472   0.559  54.135  1.00  0.00     0.133 A 
ENDBRANCH  21  24
ENDBRANCH   1  20
TORSDOF 4
ENDMDL
MODEL 8
REMARK VINA RESULT:      -8.2      1.791      7.823
REMARK  4 active torsions:
REMARK  status: ('A' for Active; 'I' for Inactive)
REMARK       I    between atoms: C1_2  and  N1_3 
REMARK    1  A    between atoms: C1_2  and  C16_22 
REMARK    2  A    between atoms: N1_3  and  C2_4 
REMARK    3  A    between atoms: C6_8  and  N2_9 
REMARK    4  A    between atoms: N2_9  and  C7_10 
ROOT
HETATM    1  C2  UNL     1      24.329   4.823  50.215  1.00  0.00     0.037 A 
HETATM    2  C3  UNL     1      23.265   4.445  49.392  1.00  0.00     0.029 A 
HETATM    3  C4  UNL     1      22.398   3.418  49.732  1.00  0.00     0.004 A 
HETATM    4  C5  UNL     1      22.654   2.796  50.936  1.00  0.00     0.030 A 
HETATM    5  C6  UNL     1      23.675   3.100  51.810  1.00  0.00     0.051 A 
HETATM    6  C15 UNL     1      24.507   4.143  51.400  1.00  0.00     0.059 A 
ENDROOT
BRANCH   5   7
HETATM    7  N2  UNL     1      23.858   2.396  53.034  1.00  0.00    -0.188 N 
HETATM    8  H5  UNL     1      23.204   2.605  53.797  1.00  0.00     0.184 HD
BRANCH   7   9
HETATM    9  C7  UNL     1      24.941   1.474  53.052  1.00  0.00     0.727 A 
HETATM   10  N3  UNL     1      24.531   0.194  52.968  1.00  0.00    -0.074 NA
HETATM   11  C8  UNL     1      25.398  -0.860  52.967  1.00  0.00     0.151 A 
HETATM   12  C9  UNL     1      26.755  -0.593  53.058  1.00  0.00     0.025 A 
HETATM   13  C10 UNL     1      27.153   0.729  53.143  1.00  0.00     0.070 A 
HETATM   14  C14 UNL     1      27.552  -1.818  53.045  1.00  0.00     0.131 C 
HETATM   15  N4  UNL     1      26.259   1.751  53.139  1.00  0.00    -0.066 NA
HETATM   16  C11 UNL     1      28.516   1.305  53.247  1.00  0.00     0.089 C 
HETATM   17  C12 UNL     1      29.509   0.340  53.749  1.00  0.00    -0.002 C 
HETATM   18  C13 UNL     1      29.686  -0.968  53.834  1.00  0.00     0.112 C 
HETATM   19  N5  UNL     1      28.784  -1.982  53.370  1.00  0.00    -0.272 NA
ENDBRANCH   7   9
ENDBRANCH   5   7
BRANCH   1  20
HETATM   20  N1  UNL     1      25.190   5.866  49.845  1.00  0.00    -0.323 N 
HETATM   21  C1  UNL     1      26.397   6.095  49.142  1.00  0.00     0.257 C 
HETATM   22  O1  UNL     1      26.919   5.035  48.665  1.00  0.00    -0.267 OA
HETATM   23  H1  UNL     1      24.632   6.615  50.300  1.00  0.00     0.169 HD
BRANCH  21  24
HETATM   24  C16 UNL     1      26.899   7.453  49.040  1.00  0.00     0.049 A 
HETATM   25  C17 UNL     1      27.727   7.998  48.084  1.00  0.00     0.020 A 
HETATM   26  C18 UNL     1      28.079   9.331  48.191  1.00  0.00     0.020 A 
HETATM   27  C19 UNL     1      27.612  10.120  49.241  1.00  0.00     0.116 A 
HETATM   28  N6  UNL     1      26.804   9.582  50.170  1.00  0.00    -0.272 NA
HETATM   29  C20 UNL     1      26.453   8.268  50.071  1.00  0.00     0.133 A 
ENDBRANCH  21  24
ENDBRANCH   1  20
TORSDOF 4
ENDMDL
MODEL 9
REMARK VINA RESULT:      -8.2      2.671      8.418
REMARK  4 active torsions:
REMARK  status: ('A' for Active; 'I' for Inactive)
REMARK       I    between atoms: C1_2  and  N1_3 
REMARK    1  A    between atoms: C1_2  and  C16_22 
REMARK    2  A    between atoms: N1_3  and  C2_4 
REMARK    3  A    between atoms: C6_8  and  N2_9 
REMARK    4  A    between atoms: N2_9  and  C7_10 
ROOT
HETATM    1  C2  UNL     1      26.337   7.034  49.657  1.00  0.00     0.037 A 
HETATM    2  C3  UNL     1      25.131   7.576  50.108  1.00  0.00     0.029 A 
HETATM    3  C4  UNL     1      24.024   6.786  50.384  1.00  0.00     0.004 A 
HETATM    4  C5  UNL     1      24.194   5.432  50.183  1.00  0.00     0.030 A 
HETATM    5  C6  UNL     1      25.341   4.810  49.742  1.00  0.00     0.051 A 
HETATM    6  C15 UNL     1      26.412   5.669  49.485  1.00  0.00     0.059 A 
ENDROOT
BRANCH   5   7
HETATM    7  N2  UNL     1      25.417   3.400  49.565  1.00  0.00    -0.188 N 
HETATM    8  H5  UNL     1      25.355   3.044  48.604  1.00  0.00     0.184 HD
BRANCH   7   9
HETATM    9  C7  UNL     1      25.573   2.642  50.759  1.00  0.00     0.727 A 
HETATM   10  N3  UNL     1      26.841   2.650  51.214  1.00  0.00    -0.074 NA
HETATM   11  C8  UNL     1      27.223   1.990  52.345  1.00  0.00     0.151 A 
HETATM   12  C9  UNL     1      26.261   1.283  53.048  1.00  0.00     0.025 A 
HETATM   13  C10 UNL     1      24.966   1.288  52.563  1.00  0.00     0.070 A 
HETATM   14  C14 UNL     1      26.820   0.632  54.231  1.00  0.00     0.131 C 
HETATM   15  N4  UNL     1      24.624   1.960  51.432  1.00  0.00    -0.066 NA
HETATM   16  C11 UNL     1      23.747   0.632  53.098  1.00  0.00     0.089 C 
HETATM   17  C12 UNL     1      24.052  -0.494  53.997  1.00  0.00    -0.002 C 
HETATM   18  C13 UNL     1      25.038  -0.930  54.764  1.00  0.00     0.112 C 
HETATM   19  N5  UNL     1      26.311  -0.298  54.956  1.00  0.00    -0.272 NA
ENDBRANCH   7   9
ENDBRANCH   5   7
BRANCH   1  20
HETATM   20  N1  UNL     1      27.440   7.856  49.387  1.00  0.00    -0.323 N 
HETATM   21  C1  UNL     1      27.962   9.131  49.711  1.00  0.00     0.257 C 
HETATM   22  O1  UNL     1      27.227   9.797  50.510  1.00  0.00    -0.267 OA
HETATM   23  H1  UNL     1      27.907   7.182  48.750  1.00  0.00     0.169 HD
BRANCH  21  24
HETATM   24  C16 UNL     1      29.227   9.536  49.126  1.00  0.00     0.049 A 
HETATM   25  C17 UNL     1      29.751  10.803  48.992  1.00  0.00     0.020 A 
HETATM   26  C18 UNL     1      30.989  10.952  48.394  1.00  0.00     0.020 A 
HETATM   27  C19 UNL     1      31.705   9.849  47.930  1.00  0.00     0.116 A 
HETATM   28  N6  UNL     1      31.188   8.616  48.064  1.00  0.00    -0.272 NA
HETATM   29  C20 UNL     1      29.967   8.462  48.652  1.00  0.00     0.133 A 
ENDBRANCH  21  24
ENDBRANCH   1  20
TORSDOF 4
ENDMDL
