MODEL 1
REMARK VINA RESULT:      -7.6      0.000      0.000
REMARK  3 active torsions:
REMARK  status: ('A' for Active; 'I' for Inactive)
REMARK    1  A    between atoms: O1_2  and  C2_3 
REMARK    2  A    between atoms: C6_8  and  N1_9 
REMARK    3  A    between atoms: C8_11  and  C9_12 
ROOT
HETATM    1  C2  UNL     1      26.838   1.696  51.877  1.00  0.00     0.085 C 
HETATM    2  C3  UNL     1      26.565   0.546  52.531  1.00  0.00     0.040 C 
HETATM    3  C4  UNL     1      25.419  -0.014  52.990  1.00  0.00     0.035 C 
HETATM    4  C5  UNL     1      24.207   0.623  53.073  1.00  0.00     0.057 C 
HETATM    5  O2  UNL     1      24.370   1.874  53.547  1.00  0.00    -0.295 OA
HETATM    6  C6  UNL     1      24.105   2.918  52.729  1.00  0.00     0.191 C 
HETATM    7  C7  UNL     1      23.697   2.728  51.389  1.00  0.00     0.110 C 
HETATM    8  C8  UNL     1      24.246   3.136  50.196  1.00  0.00     0.088 C 
HETATM    9  N2  UNL     1      25.513   3.455  50.510  1.00  0.00    -0.256 NA
HETATM   10  C15 UNL     1      26.434   2.540  50.862  1.00  0.00     0.154 C 
HETATM   11  N3  UNL     1      22.486   1.946  51.216  1.00  0.00    -0.384 N 
HETATM   12  C16 UNL     1      21.950   0.832  51.972  1.00  0.00     0.126 C 
HETATM   13  C17 UNL     1      22.947  -0.007  52.690  1.00  0.00     0.084 C 
HETATM   14  H12 UNL     1      21.922   2.270  50.398  1.00  0.00     0.159 HD
ENDROOT
BRANCH   8  15
HETATM   15  C9  UNL     1      23.464   3.124  48.977  1.00  0.00     0.053 C 
HETATM   16  C10 UNL     1      22.953   4.202  48.423  1.00  0.00     0.008 A 
HETATM   17  C11 UNL     1      23.148   5.513  49.023  1.00  0.00     0.038 A 
HETATM   18  S1  UNL     1      21.995   4.174  46.918  1.00  0.00    -0.102 SA
HETATM   19  C12 UNL     1      22.750   6.714  48.651  1.00  0.00     0.012 A 
HETATM   20 BR1  UNL     1      23.149   8.287  49.631  1.00  0.00    -0.051 Br
HETATM   21  C13 UNL     1      21.967   6.799  47.432  1.00  0.00     0.026 A 
HETATM   22  C14 UNL     1      21.559   5.872  46.591  1.00  0.00     0.052 A 
ENDBRANCH   8  15
BRANCH   6  23
HETATM   23  N1  UNL     1      24.228   4.115  53.184  1.00  0.00    -0.276 NA
HETATM   24  H6  UNL     1      24.248   4.863  52.457  1.00  0.00     0.189 HD
ENDBRANCH   6  23
BRANCH   1  25
HETATM   25  O1  UNL     1      27.937   2.451  52.263  1.00  0.00    -0.355 OA
HETATM   26  C1  UNL     1      28.555   2.395  53.526  1.00  0.00     0.210 C 
ENDBRANCH   1  25
TORSDOF 3
ENDMDL
MODEL 2
REMARK VINA RESULT:      -7.0      3.466      6.538
REMARK  3 active torsions:
REMARK  status: ('A' for Active; 'I' for Inactive)
REMARK    1  A    between atoms: O1_2  and  C2_3 
REMARK    2  A    between atoms: C6_8  and  N1_9 
REMARK    3  A    between atoms: C8_11  and  C9_12 
ROOT
HETATM    1  C2  UNL     1      21.610   5.942  50.696  1.00  0.00     0.085 C 
HETATM    2  C3  UNL     1      20.745   5.907  49.660  1.00  0.00     0.040 C 
HETATM    3  C4  UNL     1      20.560   5.046  48.630  1.00  0.00     0.035 C 
HETATM    4  C5  UNL     1      21.424   4.041  48.277  1.00  0.00     0.057 C 
HETATM    5  O2  UNL     1      22.697   4.482  48.332  1.00  0.00    -0.295 OA
HETATM    6  C6  UNL     1      23.527   3.955  49.261  1.00  0.00     0.191 C 
HETATM    7  C7  UNL     1      23.084   2.987  50.191  1.00  0.00     0.110 C 
HETATM    8  C8  UNL     1      23.054   2.981  51.565  1.00  0.00     0.088 C 
HETATM    9  N2  UNL     1      23.185   4.275  51.902  1.00  0.00    -0.256 NA
HETATM   10  C15 UNL     1      22.227   5.191  51.677  1.00  0.00     0.154 C 
HETATM   11  N3  UNL     1      22.541   1.772  49.608  1.00  0.00    -0.384 N 
HETATM   12  C16 UNL     1      21.787   1.550  48.390  1.00  0.00     0.126 C 
HETATM   13  C17 UNL     1      20.981   2.701  47.904  1.00  0.00     0.084 C 
HETATM   14  H12 UNL     1      22.749   0.930  50.189  1.00  0.00     0.159 HD
ENDROOT
BRANCH   8  15
HETATM   15  C9  UNL     1      22.885   1.742  52.298  1.00  0.00     0.053 C 
HETATM   16  C10 UNL     1      23.857   1.132  52.941  1.00  0.00     0.008 A 
HETATM   17  C11 UNL     1      25.204   1.681  52.953  1.00  0.00     0.038 A 
HETATM   18  S1  UNL     1      23.634  -0.391  53.844  1.00  0.00    -0.102 SA
HETATM   19  C12 UNL     1      26.315   1.263  53.527  1.00  0.00     0.012 A 
HETATM   20 BR1  UNL     1      27.966   2.185  53.383  1.00  0.00    -0.051 Br
HETATM   21  C13 UNL     1      26.237   0.033  54.292  1.00  0.00     0.026 A 
HETATM   22  C14 UNL     1      25.231  -0.781  54.535  1.00  0.00     0.052 A 
ENDBRANCH   8  15
BRANCH   6  23
HETATM   23  N1  UNL     1      24.752   4.347  49.299  1.00  0.00    -0.276 NA
HETATM   24  H6  UNL     1      25.227   4.221  50.219  1.00  0.00     0.189 HD
ENDBRANCH   6  23
BRANCH   1  25
HETATM   25  O1  UNL     1      22.204   7.148  51.043  1.00  0.00    -0.355 OA
HETATM   26  C1  UNL     1      23.366   7.677  50.453  1.00  0.00     0.210 C 
ENDBRANCH   1  25
TORSDOF 3
ENDMDL
MODEL 3
REMARK VINA RESULT:      -7.0      3.620      6.905
REMARK  3 active torsions:
REMARK  status: ('A' for Active; 'I' for Inactive)
REMARK    1  A    between atoms: O1_2  and  C2_3 
REMARK    2  A    between atoms: C6_8  and  N1_9 
REMARK    3  A    between atoms: C8_11  and  C9_12 
ROOT
HETATM    1  C2  UNL     1      22.205   3.622  47.731  1.00  0.00     0.085 C 
HETATM    2  C3  UNL     1      22.347   4.886  47.278  1.00  0.00     0.040 C 
HETATM    3  C4  UNL     1      22.704   6.052  47.870  1.00  0.00     0.035 C 
HETATM    4  C5  UNL     1      22.811   6.250  49.223  1.00  0.00     0.057 C 
HETATM    5  O2  UNL     1      21.777   5.667  49.862  1.00  0.00    -0.295 OA
HETATM    6  C6  UNL     1      22.027   4.614  50.675  1.00  0.00     0.191 C 
HETATM    7  C7  UNL     1      23.331   4.096  50.841  1.00  0.00     0.110 C 
HETATM    8  C8  UNL     1      23.859   2.848  50.609  1.00  0.00     0.088 C 
HETATM    9  N2  UNL     1      22.962   2.257  49.800  1.00  0.00    -0.256 NA
HETATM   10  C15 UNL     1      22.760   2.639  48.527  1.00  0.00     0.154 C 
HETATM   11  N3  UNL     1      24.316   5.043  51.331  1.00  0.00    -0.384 N 
HETATM   12  C16 UNL     1      24.463   6.469  51.113  1.00  0.00     0.126 C 
HETATM   13  C17 UNL     1      23.908   6.993  49.837  1.00  0.00     0.084 C 
HETATM   14  H12 UNL     1      25.026   4.590  51.948  1.00  0.00     0.159 HD
ENDROOT
BRANCH   8  15
HETATM   15  C9  UNL     1      25.131   2.460  51.185  1.00  0.00     0.053 C 
HETATM   16  C10 UNL     1      25.264   1.544  52.119  1.00  0.00     0.008 A 
HETATM   17  C11 UNL     1      24.104   0.842  52.647  1.00  0.00     0.038 A 
HETATM   18  S1  UNL     1      26.837   1.073  52.817  1.00  0.00    -0.102 SA
HETATM   19  C12 UNL     1      23.994  -0.105  53.557  1.00  0.00     0.012 A 
HETATM   20 BR1  UNL     1      22.331  -0.861  54.069  1.00  0.00    -0.051 Br
HETATM   21  C13 UNL     1      25.220  -0.562  54.182  1.00  0.00     0.026 A 
HETATM   22  C14 UNL     1      26.475  -0.201  54.010  1.00  0.00     0.052 A 
ENDBRANCH   8  15
BRANCH   6  23
HETATM   23  N1  UNL     1      21.050   4.072  51.313  1.00  0.00    -0.276 NA
HETATM   24  H6  UNL     1      21.249   3.125  51.702  1.00  0.00     0.189 HD
ENDBRANCH   6  23
BRANCH   1  25
HETATM   25  O1  UNL     1      21.111   2.873  47.320  1.00  0.00    -0.355 OA
HETATM   26  C1  UNL     1      19.840   2.899  47.925  1.00  0.00     0.210 C 
ENDBRANCH   1  25
TORSDOF 3
ENDMDL
MODEL 4
REMARK VINA RESULT:      -6.8      6.476      8.557
REMARK  3 active torsions:
REMARK  status: ('A' for Active; 'I' for Inactive)
REMARK    1  A    between atoms: O1_2  and  C2_3 
REMARK    2  A    between atoms: C6_8  and  N1_9 
REMARK    3  A    between atoms: C8_11  and  C9_12 
ROOT
HETATM    1  C2  UNL     1      29.887   8.885  45.903  1.00  0.00     0.085 C 
HETATM    2  C3  UNL     1      31.229   8.837  45.759  1.00  0.00     0.040 C 
HETATM    3  C4  UNL     1      32.236   8.404  46.556  1.00  0.00     0.035 C 
HETATM    4  C5  UNL     1      32.109   8.080  47.882  1.00  0.00     0.057 C 
HETATM    5  O2  UNL     1      31.335   8.987  48.511  1.00  0.00    -0.295 OA
HETATM    6  C6  UNL     1      30.134   8.593  48.992  1.00  0.00     0.191 C 
HETATM    7  C7  UNL     1      29.660   7.272  48.821  1.00  0.00     0.110 C 
HETATM    8  C8  UNL     1      28.534   6.773  48.210  1.00  0.00     0.088 C 
HETATM    9  N2  UNL     1      28.108   7.782  47.431  1.00  0.00    -0.256 NA
HETATM   10  C15 UNL     1      28.773   8.195  46.338  1.00  0.00     0.154 C 
HETATM   11  N3  UNL     1      30.514   6.234  49.370  1.00  0.00    -0.384 N 
HETATM   12  C16 UNL     1      31.956   6.144  49.487  1.00  0.00     0.126 C 
HETATM   13  C17 UNL     1      32.740   6.908  48.482  1.00  0.00     0.084 C 
HETATM   14  H12 UNL     1      29.964   5.426  49.739  1.00  0.00     0.159 HD
ENDROOT
BRANCH   8  15
HETATM   15  C9  UNL     1      28.088   5.419  48.469  1.00  0.00     0.053 C 
HETATM   16  C10 UNL     1      26.967   5.122  49.089  1.00  0.00     0.008 A 
HETATM   17  C11 UNL     1      26.080   6.170  49.569  1.00  0.00     0.038 A 
HETATM   18  S1  UNL     1      26.427   3.449  49.398  1.00  0.00    -0.102 SA
HETATM   19  C12 UNL     1      24.920   6.117  50.194  1.00  0.00     0.012 A 
HETATM   20 BR1  UNL     1      23.953   7.662  50.716  1.00  0.00    -0.051 Br
HETATM   21  C13 UNL     1      24.391   4.798  50.486  1.00  0.00     0.026 A 
HETATM   22  C14 UNL     1      24.863   3.594  50.240  1.00  0.00     0.052 A 
ENDBRANCH   8  15
BRANCH   6  23
HETATM   23  N1  UNL     1      29.403   9.446  49.621  1.00  0.00    -0.276 NA
HETATM   24  H6  UNL     1      28.501   9.068  49.985  1.00  0.00     0.189 HD
ENDBRANCH   6  23
BRANCH   1  25
HETATM   25  O1  UNL     1      29.202  10.022  45.497  1.00  0.00    -0.355 OA
HETATM   26  C1  UNL     1      28.983  11.163  46.291  1.00  0.00     0.210 C 
ENDBRANCH   1  25
TORSDOF 3
ENDMDL
MODEL 5
REMARK VINA RESULT:      -6.8      2.059      2.343
REMARK  3 active torsions:
REMARK  status: ('A' for Active; 'I' for Inactive)
REMARK    1  A    between atoms: O1_2  and  C2_3 
REMARK    2  A    between atoms: C6_8  and  N1_9 
REMARK    3  A    between atoms: C8_11  and  C9_12 
ROOT
HETATM    1  C2  UNL     1      26.138   2.652  50.605  1.00  0.00     0.085 C 
HETATM    2  C3  UNL     1      26.574   1.574  51.291  1.00  0.00     0.040 C 
HETATM    3  C4  UNL     1      26.044   0.833  52.294  1.00  0.00     0.035 C 
HETATM    4  C5  UNL     1      24.939   1.176  53.030  1.00  0.00     0.057 C 
HETATM    5  O2  UNL     1      24.981   2.484  53.351  1.00  0.00    -0.295 OA
HETATM    6  C6  UNL     1      24.052   3.312  52.818  1.00  0.00     0.191 C 
HETATM    7  C7  UNL     1      23.070   2.847  51.915  1.00  0.00     0.110 C 
HETATM    8  C8  UNL     1      22.775   3.200  50.620  1.00  0.00     0.088 C 
HETATM    9  N2  UNL     1      23.874   3.846  50.196  1.00  0.00    -0.256 NA
HETATM   10  C15 UNL     1      25.049   3.229  49.981  1.00  0.00     0.154 C 
HETATM   11  N3  UNL     1      22.215   1.789  52.422  1.00  0.00    -0.384 N 
HETATM   12  C16 UNL     1      22.484   0.698  53.338  1.00  0.00     0.126 C 
HETATM   13  C17 UNL     1      23.892   0.223  53.389  1.00  0.00     0.084 C 
HETATM   14  H12 UNL     1      21.243   1.855  52.047  1.00  0.00     0.159 HD
ENDROOT
BRANCH   8  15
HETATM   15  C9  UNL     1      21.505   2.836  50.023  1.00  0.00     0.053 C 
HETATM   16  C10 UNL     1      20.593   3.707  49.650  1.00  0.00     0.008 A 
HETATM   17  C11 UNL     1      20.811   5.135  49.821  1.00  0.00     0.038 A 
HETATM   18  S1  UNL     1      19.036   3.246  48.911  1.00  0.00    -0.102 SA
HETATM   19  C12 UNL     1      20.063   6.178  49.519  1.00  0.00     0.012 A 
HETATM   20 BR1  UNL     1      20.595   7.967  49.854  1.00  0.00    -0.051 Br
HETATM   21  C13 UNL     1      18.776   5.907  48.906  1.00  0.00     0.026 A 
HETATM   22  C14 UNL     1      18.185   4.777  48.581  1.00  0.00     0.052 A 
ENDBRANCH   8  15
BRANCH   6  23
HETATM   23  N1  UNL     1      24.067   4.557  53.144  1.00  0.00    -0.276 NA
HETATM   24  H6  UNL     1      23.254   5.113  52.797  1.00  0.00     0.189 HD
ENDBRANCH   6  23
BRANCH   1  25
HETATM   25  O1  UNL     1      27.023   3.688  50.336  1.00  0.00    -0.355 OA
HETATM   26  C1  UNL     1      27.148   4.345  49.098  1.00  0.00     0.210 C 
ENDBRANCH   1  25
TORSDOF 3
ENDMDL
MODEL 6
REMARK VINA RESULT:      -6.6      3.498      6.054
REMARK  3 active torsions:
REMARK  status: ('A' for Active; 'I' for Inactive)
REMARK    1  A    between atoms: O1_2  and  C2_3 
REMARK    2  A    between atoms: C6_8  and  N1_9 
REMARK    3  A    between atoms: C8_11  and  C9_12 
ROOT
HETATM    1  C2  UNL     1      25.612   5.382  50.039  1.00  0.00     0.085 C 
HETATM    2  C3  UNL     1      25.050   6.513  50.517  1.00  0.00     0.040 C 
HETATM    3  C4  UNL     1      23.779   6.859  50.835  1.00  0.00     0.035 C 
HETATM    4  C5  UNL     1      22.661   6.132  50.517  1.00  0.00     0.057 C 
HETATM    5  O2  UNL     1      22.747   5.673  49.253  1.00  0.00    -0.295 OA
HETATM    6  C6  UNL     1      22.851   4.338  49.054  1.00  0.00     0.191 C 
HETATM    7  C7  UNL     1      22.904   3.426  50.132  1.00  0.00     0.110 C 
HETATM    8  C8  UNL     1      23.850   2.502  50.505  1.00  0.00     0.088 C 
HETATM    9  N2  UNL     1      24.958   2.881  49.846  1.00  0.00    -0.256 NA
HETATM   10  C15 UNL     1      25.637   4.005  50.139  1.00  0.00     0.154 C 
HETATM   11  N3  UNL     1      21.766   3.467  51.033  1.00  0.00    -0.384 N 
HETATM   12  C16 UNL     1      20.927   4.568  51.465  1.00  0.00     0.126 C 
HETATM   13  C17 UNL     1      21.559   5.914  51.451  1.00  0.00     0.084 C 
HETATM   14  H12 UNL     1      21.536   2.525  51.419  1.00  0.00     0.159 HD
ENDROOT
BRANCH   8  15
HETATM   15  C9  UNL     1      23.525   1.442  51.438  1.00  0.00     0.053 C 
HETATM   16  C10 UNL     1      24.342   1.014  52.376  1.00  0.00     0.008 A 
HETATM   17  C11 UNL     1      25.665   1.597  52.536  1.00  0.00     0.038 A 
HETATM   18  S1  UNL     1      23.927  -0.290  53.522  1.00  0.00    -0.102 SA
HETATM   19  C12 UNL     1      26.635   1.345  53.393  1.00  0.00     0.012 A 
HETATM   20 BR1  UNL     1      28.291   2.269  53.384  1.00  0.00    -0.051 Br
HETATM   21  C13 UNL     1      26.392   0.304  54.373  1.00  0.00     0.026 A 
HETATM   22  C14 UNL     1      25.349  -0.473  54.581  1.00  0.00     0.052 A 
ENDBRANCH   8  15
BRANCH   6  23
HETATM   23  N1  UNL     1      22.902   3.890  47.848  1.00  0.00    -0.276 NA
HETATM   24  H6  UNL     1      23.828   3.503  47.561  1.00  0.00     0.189 HD
ENDBRANCH   6  23
BRANCH   1  25
HETATM   25  O1  UNL     1      26.571   5.471  49.039  1.00  0.00    -0.355 OA
HETATM   26  C1  UNL     1      26.937   6.654  48.372  1.00  0.00     0.210 C 
ENDBRANCH   1  25
TORSDOF 3
ENDMDL
MODEL 7
REMARK VINA RESULT:      -6.6      8.640     10.859
REMARK  3 active torsions:
REMARK  status: ('A' for Active; 'I' for Inactive)
REMARK    1  A    between atoms: O1_2  and  C2_3 
REMARK    2  A    between atoms: C6_8  and  N1_9 
REMARK    3  A    between atoms: C8_11  and  C9_12 
ROOT
HETATM    1  C2  UNL     1      28.224   8.575  48.543  1.00  0.00     0.085 C 
HETATM    2  C3  UNL     1      28.102   9.901  48.767  1.00  0.00     0.040 C 
HETATM    3  C4  UNL     1      28.991  10.922  48.817  1.00  0.00     0.035 C 
HETATM    4  C5  UNL     1      30.355  10.780  48.853  1.00  0.00     0.057 C 
HETATM    5  O2  UNL     1      30.697   9.785  49.695  1.00  0.00    -0.295 OA
HETATM    6  C6  UNL     1      31.268   8.669  49.183  1.00  0.00     0.191 C 
HETATM    7  C7  UNL     1      31.480   8.512  47.795  1.00  0.00     0.110 C 
HETATM    8  C8  UNL     1      31.035   7.568  46.901  1.00  0.00     0.088 C 
HETATM    9  N2  UNL     1      29.999   6.983  47.527  1.00  0.00    -0.256 NA
HETATM   10  C15 UNL     1      28.835   7.614  47.762  1.00  0.00     0.154 C 
HETATM   11  N3  UNL     1      32.304   9.534  47.176  1.00  0.00    -0.384 N 
HETATM   12  C16 UNL     1      32.446  10.949  47.457  1.00  0.00     0.126 C 
HETATM   13  C17 UNL     1      31.266  11.612  48.071  1.00  0.00     0.084 C 
HETATM   14  H12 UNL     1      32.887   9.151  46.398  1.00  0.00     0.159 HD
ENDROOT
BRANCH   8  15
HETATM   15  C9  UNL     1      31.668   7.415  45.607  1.00  0.00     0.053 C 
HETATM   16  C10 UNL     1      32.583   6.507  45.340  1.00  0.00     0.008 A 
HETATM   17  C11 UNL     1      33.028   5.574  46.363  1.00  0.00     0.038 A 
HETATM   18  S1  UNL     1      33.352   6.327  43.740  1.00  0.00    -0.102 SA
HETATM   19  C12 UNL     1      33.905   4.590  46.329  1.00  0.00     0.012 A 
HETATM   20 BR1  UNL     1      34.304   3.505  47.833  1.00  0.00    -0.051 Br
HETATM   21  C13 UNL     1      34.582   4.357  45.068  1.00  0.00     0.026 A 
HETATM   22  C14 UNL     1      34.489   4.963  43.902  1.00  0.00     0.052 A 
ENDBRANCH   8  15
BRANCH   6  23
HETATM   23  N1  UNL     1      31.625   7.728  49.985  1.00  0.00    -0.276 NA
HETATM   24  H6  UNL     1      32.593   7.368  49.837  1.00  0.00     0.189 HD
ENDBRANCH   6  23
BRANCH   1  25
HETATM   25  O1  UNL     1      27.508   7.685  49.333  1.00  0.00    -0.355 OA
HETATM   26  C1  UNL     1      26.183   7.873  49.766  1.00  0.00     0.210 C 
ENDBRANCH   1  25
TORSDOF 3
ENDMDL
MODEL 8
REMARK VINA RESULT:      -6.5     24.184     26.672
REMARK  3 active torsions:
REMARK  status: ('A' for Active; 'I' for Inactive)
REMARK    1  A    between atoms: O1_2  and  C2_3 
REMARK    2  A    between atoms: C6_8  and  N1_9 
REMARK    3  A    between atoms: C8_11  and  C9_12 
ROOT
HETATM    1  C2  UNL     1      42.838   1.257  68.550  1.00  0.00     0.085 C 
HETATM    2  C3  UNL     1      42.067   1.993  69.379  1.00  0.00     0.040 C 
HETATM    3  C4  UNL     1      40.803   1.853  69.844  1.00  0.00     0.035 C 
HETATM    4  C5  UNL     1      39.881   0.955  69.367  1.00  0.00     0.057 C 
HETATM    5  O2  UNL     1      39.920   0.920  68.021  1.00  0.00    -0.295 OA
HETATM    6  C6  UNL     1      40.341  -0.214  67.414  1.00  0.00     0.191 C 
HETATM    7  C7  UNL     1      40.771  -1.339  68.153  1.00  0.00     0.110 C 
HETATM    8  C8  UNL     1      41.966  -2.017  68.180  1.00  0.00     0.088 C 
HETATM    9  N2  UNL     1      42.841  -1.163  67.621  1.00  0.00    -0.256 NA
HETATM   10  C15 UNL     1      43.235  -0.024  68.217  1.00  0.00     0.154 C 
HETATM   11  N3  UNL     1      39.790  -1.886  69.073  1.00  0.00    -0.384 N 
HETATM   12  C16 UNL     1      38.755  -1.244  69.860  1.00  0.00     0.126 C 
HETATM   13  C17 UNL     1      39.006   0.172  70.236  1.00  0.00     0.084 C 
HETATM   14  H12 UNL     1      39.866  -2.924  69.158  1.00  0.00     0.159 HD
ENDROOT
BRANCH   8  15
HETATM   15  C9  UNL     1      42.053  -3.345  68.752  1.00  0.00     0.053 C 
HETATM   16  C10 UNL     1      42.757  -3.637  69.824  1.00  0.00     0.008 A 
HETATM   17  C11 UNL     1      43.517  -2.610  70.521  1.00  0.00     0.038 A 
HETATM   18  S1  UNL     1      42.852  -5.277  70.522  1.00  0.00    -0.102 SA
HETATM   19  C12 UNL     1      44.272  -2.660  71.600  1.00  0.00     0.012 A 
HETATM   20 BR1  UNL     1      45.165  -1.146  72.311  1.00  0.00    -0.051 Br
HETATM   21  C13 UNL     1      44.408  -3.951  72.247  1.00  0.00     0.026 A 
HETATM   22  C14 UNL     1      43.905  -5.132  71.954  1.00  0.00     0.052 A 
ENDBRANCH   8  15
BRANCH   6  23
HETATM   23  N1  UNL     1      40.351  -0.266  66.127  1.00  0.00    -0.276 NA
HETATM   24  H6  UNL     1      40.947   0.453  65.662  1.00  0.00     0.189 HD
ENDBRANCH   6  23
BRANCH   1  25
HETATM   25  O1  UNL     1      43.602   1.899  67.585  1.00  0.00    -0.355 OA
HETATM   26  C1  UNL     1      44.713   2.721  67.847  1.00  0.00     0.210 C 
ENDBRANCH   1  25
TORSDOF 3
ENDMDL
MODEL 9
REMARK VINA RESULT:      -6.4      2.638      4.568
REMARK  3 active torsions:
REMARK  status: ('A' for Active; 'I' for Inactive)
REMARK    1  A    between atoms: O1_2  and  C2_3 
REMARK    2  A    between atoms: C6_8  and  N1_9 
REMARK    3  A    between atoms: C8_11  and  C9_12 
ROOT
HETATM    1  C2  UNL     1      20.293   2.407  52.645  1.00  0.00     0.085 C 
HETATM    2  C3  UNL     1      20.642   1.395  53.467  1.00  0.00     0.040 C 
HETATM    3  C4  UNL     1      21.722   0.580  53.534  1.00  0.00     0.035 C 
HETATM    4  C5  UNL     1      22.688   0.467  52.566  1.00  0.00     0.057 C 
HETATM    5  O2  UNL     1      22.120   0.437  51.344  1.00  0.00    -0.295 OA
HETATM    6  C6  UNL     1      22.344   1.470  50.499  1.00  0.00     0.191 C 
HETATM    7  C7  UNL     1      23.124   2.586  50.878  1.00  0.00     0.110 C 
HETATM    8  C8  UNL     1      22.831   3.927  50.952  1.00  0.00     0.088 C 
HETATM    9  N2  UNL     1      21.488   3.970  50.957  1.00  0.00    -0.256 NA
HETATM   10  C15 UNL     1      20.744   3.537  51.991  1.00  0.00     0.154 C 
HETATM   11  N3  UNL     1      24.485   2.281  51.282  1.00  0.00    -0.384 N 
HETATM   12  C16 UNL     1      25.044   1.134  51.970  1.00  0.00     0.126 C 
HETATM   13  C17 UNL     1      24.115   0.396  52.866  1.00  0.00     0.084 C 
HETATM   14  H12 UNL     1      25.154   3.036  51.013  1.00  0.00     0.159 HD
ENDROOT
BRANCH   8  15
HETATM   15  C9  UNL     1      23.889   4.914  51.026  1.00  0.00     0.053 C 
HETATM   16  C10 UNL     1      24.174   5.758  50.058  1.00  0.00     0.008 A 
HETATM   17  C11 UNL     1      23.419   5.748  48.814  1.00  0.00     0.038 A 
HETATM   18  S1  UNL     1      25.477   6.973  50.163  1.00  0.00    -0.102 SA
HETATM   19  C12 UNL     1      23.512   6.490  47.728  1.00  0.00     0.012 A 
HETATM   20 BR1  UNL     1      22.383   6.266  46.220  1.00  0.00    -0.051 Br
HETATM   21  C13 UNL     1      24.539   7.514  47.718  1.00  0.00     0.026 A 
HETATM   22  C14 UNL     1      25.436   7.860  48.618  1.00  0.00     0.052 A 
ENDBRANCH   8  15
BRANCH   6  23
HETATM   23  N1  UNL     1      21.830   1.433  49.319  1.00  0.00    -0.276 NA
HETATM   24  H6  UNL     1      22.518   1.501  48.537  1.00  0.00     0.189 HD
ENDBRANCH   6  23
BRANCH   1  25
HETATM   25  O1  UNL     1      18.987   2.485  52.181  1.00  0.00    -0.355 OA
HETATM   26  C1  UNL     1      18.318   1.470  51.471  1.00  0.00     0.210 C 
ENDBRANCH   1  25
TORSDOF 3
ENDMDL
