MODEL 1
REMARK VINA RESULT:      -8.6      0.000      0.000
REMARK  6 active torsions:
REMARK  status: ('A' for Active; 'I' for Inactive)
REMARK    1  A    between atoms: C5_6  and  C6_7 
REMARK    2  A    between atoms: C6_7  and  O1_8 
REMARK    3  A    between atoms: O1_8  and  C7_9 
REMARK    4  A    between atoms: C10_12  and  N1_13 
REMARK    5  A    between atoms: N1_13  and  C11_14 
REMARK    6  A    between atoms: C13_16  and  C14_17 
ROOT
HETATM    1  C7  UNL     1      23.557  -0.318  53.272  1.00  0.00     0.101 C 
HETATM    2  C8  UNL     1      23.039   0.462  52.353  1.00  0.00     0.010 C 
HETATM    3  C9  UNL     1      21.764   0.799  52.408  1.00  0.00     0.017 C 
HETATM    4  C10 UNL     1      20.864  -0.256  52.935  1.00  0.00     0.130 C 
HETATM    5  C19 UNL     1      21.418  -0.832  54.174  1.00  0.00     0.028 C 
HETATM    6  C20 UNL     1      22.732  -0.856  54.326  1.00  0.00     0.066 C 
HETATM    7 CL1  UNL     1      23.427  -1.528  55.778  1.00  0.00    -0.082 Cl
ENDROOT
BRANCH   4   8
HETATM    8  N1  UNL     1      19.519   0.217  53.148  1.00  0.00    -0.381 N 
HETATM    9  H8  UNL     1      19.363   1.176  53.573  1.00  0.00     0.160 HD
BRANCH   8  10
HETATM   10  C11 UNL     1      18.387  -0.556  52.812  1.00  0.00     0.028 A 
HETATM   11  C12 UNL     1      18.041  -1.691  53.341  1.00  0.00     0.058 A 
HETATM   12  C13 UNL     1      16.818  -2.229  52.768  1.00  0.00     0.064 A 
HETATM   13  N2  UNL     1      16.463  -1.369  51.887  1.00  0.00    -0.283 NA
HETATM   14  C18 UNL     1      17.361  -0.250  51.797  1.00  0.00     0.206 A 
BRANCH  12  15
HETATM   15  C14 UNL     1      16.098  -3.456  53.071  1.00  0.00    -0.001 A 
HETATM   16  C15 UNL     1      16.740  -4.436  53.767  1.00  0.00     0.021 A 
HETATM   17  C16 UNL     1      15.929  -5.649  54.030  1.00  0.00     0.050 A 
HETATM   18  S1  UNL     1      14.269  -5.265  53.232  1.00  0.00    -0.113 SA
HETATM   19  C17 UNL     1      14.749  -3.659  52.662  1.00  0.00     0.063 A 
ENDBRANCH  12  15
ENDBRANCH   8  10
ENDBRANCH   4   8
BRANCH   1  20
HETATM   20  O1  UNL     1      24.897  -0.607  53.203  1.00  0.00    -0.344 OA
BRANCH  20  21
HETATM   21  C6  UNL     1      25.774   0.382  52.705  1.00  0.00     0.214 C 
BRANCH  21  22
HETATM   22  C5  UNL     1      27.195   0.056  53.022  1.00  0.00    -0.031 A 
HETATM   23  C4  UNL     1      28.106   1.056  53.328  1.00  0.00     0.009 A 
HETATM   24  C3  UNL     1      29.429   0.800  53.627  1.00  0.00     0.004 A 
HETATM   25  C2  UNL     1      29.845  -0.515  53.617  1.00  0.00     0.042 A 
HETATM   26  C1  UNL     1      28.964  -1.525  53.317  1.00  0.00     0.117 A 
HETATM   27  F1  UNL     1      29.489  -2.761  53.340  1.00  0.00    -0.206 F 
HETATM   28  C21 UNL     1      27.656  -1.253  53.022  1.00  0.00     0.051 A 
ENDBRANCH  21  22
ENDBRANCH  20  21
ENDBRANCH   1  20
TORSDOF 6
ENDMDL
MODEL 2
REMARK VINA RESULT:      -8.4      6.487      9.737
REMARK  6 active torsions:
REMARK  status: ('A' for Active; 'I' for Inactive)
REMARK    1  A    between atoms: C5_6  and  C6_7 
REMARK    2  A    between atoms: C6_7  and  O1_8 
REMARK    3  A    between atoms: O1_8  and  C7_9 
REMARK    4  A    between atoms: C10_12  and  N1_13 
REMARK    5  A    between atoms: N1_13  and  C11_14 
REMARK    6  A    between atoms: C13_16  and  C14_17 
ROOT
HETATM    1  C7  UNL     1      23.723   1.589  52.728  1.00  0.00     0.101 C 
HETATM    2  C8  UNL     1      24.361   2.732  52.813  1.00  0.00     0.010 C 
HETATM    3  C9  UNL     1      24.195   3.657  51.887  1.00  0.00     0.017 C 
HETATM    4  C10 UNL     1      24.001   3.132  50.512  1.00  0.00     0.130 C 
HETATM    5  C19 UNL     1      22.997   2.052  50.512  1.00  0.00     0.028 C 
HETATM    6  C20 UNL     1      22.872   1.307  51.598  1.00  0.00     0.066 C 
HETATM    7 CL1  UNL     1      21.696   0.020  51.639  1.00  0.00    -0.082 Cl
ENDROOT
BRANCH   4   8
HETATM    8  N1  UNL     1      23.643   4.162  49.570  1.00  0.00    -0.381 N 
HETATM    9  H8  UNL     1      22.647   4.218  49.209  1.00  0.00     0.160 HD
BRANCH   8  10
HETATM   10  C11 UNL     1      24.577   5.110  49.101  1.00  0.00     0.028 A 
HETATM   11  C12 UNL     1      25.871   5.003  49.135  1.00  0.00     0.058 A 
HETATM   12  C13 UNL     1      26.547   6.159  48.569  1.00  0.00     0.064 A 
HETATM   13  N2  UNL     1      25.603   6.944  48.203  1.00  0.00    -0.283 NA
HETATM   14  C18 UNL     1      24.294   6.417  48.476  1.00  0.00     0.206 A 
BRANCH  12  15
HETATM   15  C14 UNL     1      27.966   6.437  48.416  1.00  0.00    -0.001 A 
HETATM   16  C15 UNL     1      28.823   5.390  48.247  1.00  0.00     0.021 A 
HETATM   17  C16 UNL     1      30.250   5.768  48.100  1.00  0.00     0.050 A 
HETATM   18  S1  UNL     1      30.235   7.646  48.218  1.00  0.00    -0.113 SA
HETATM   19  C17 UNL     1      28.481   7.764  48.437  1.00  0.00     0.063 A 
ENDBRANCH  12  15
ENDBRANCH   8  10
ENDBRANCH   4   8
BRANCH   1  20
HETATM   20  O1  UNL     1      23.888   0.673  53.737  1.00  0.00    -0.344 OA
BRANCH  20  21
HETATM   21  C6  UNL     1      24.378  -0.611  53.408  1.00  0.00     0.214 C 
BRANCH  21  22
HETATM   22  C5  UNL     1      25.867  -0.661  53.492  1.00  0.00    -0.031 A 
HETATM   23  C4  UNL     1      26.603  -1.474  52.642  1.00  0.00     0.009 A 
HETATM   24  C3  UNL     1      27.980  -1.551  52.685  1.00  0.00     0.004 A 
HETATM   25  C2  UNL     1      28.636  -0.778  53.620  1.00  0.00     0.042 A 
HETATM   26  C1  UNL     1      27.933   0.035  54.474  1.00  0.00     0.117 A 
HETATM   27  F1  UNL     1      28.683   0.737  55.338  1.00  0.00    -0.206 F 
HETATM   28  C21 UNL     1      26.566   0.100  54.418  1.00  0.00     0.051 A 
ENDBRANCH  21  22
ENDBRANCH  20  21
ENDBRANCH   1  20
TORSDOF 6
ENDMDL
MODEL 3
REMARK VINA RESULT:      -8.4      4.664      6.278
REMARK  6 active torsions:
REMARK  status: ('A' for Active; 'I' for Inactive)
REMARK    1  A    between atoms: C5_6  and  C6_7 
REMARK    2  A    between atoms: C6_7  and  O1_8 
REMARK    3  A    between atoms: O1_8  and  C7_9 
REMARK    4  A    between atoms: C10_12  and  N1_13 
REMARK    5  A    between atoms: N1_13  and  C11_14 
REMARK    6  A    between atoms: C13_16  and  C14_17 
ROOT
HETATM    1  C7  UNL     1      26.526   2.174  51.826  1.00  0.00     0.101 C 
HETATM    2  C8  UNL     1      25.289   1.786  51.629  1.00  0.00     0.010 C 
HETATM    3  C9  UNL     1      24.663   1.068  52.542  1.00  0.00     0.017 C 
HETATM    4  C10 UNL     1      25.525   0.110  53.279  1.00  0.00     0.130 C 
HETATM    5  C19 UNL     1      26.758   0.777  53.736  1.00  0.00     0.028 C 
HETATM    6  C20 UNL     1      27.236   1.781  53.019  1.00  0.00     0.066 C 
HETATM    7 CL1  UNL     1      28.692   2.596  53.527  1.00  0.00    -0.082 Cl
ENDROOT
BRANCH   4   8
HETATM    8  N1  UNL     1      24.842  -0.515  54.384  1.00  0.00    -0.381 N 
HETATM    9  H8  UNL     1      25.395  -0.817  55.237  1.00  0.00     0.160 HD
BRANCH   8  10
HETATM   10  C11 UNL     1      23.450  -0.746  54.373  1.00  0.00     0.028 A 
HETATM   11  C12 UNL     1      22.608  -0.358  53.464  1.00  0.00     0.058 A 
HETATM   12  C13 UNL     1      21.242  -0.760  53.753  1.00  0.00     0.064 A 
HETATM   13  N2  UNL     1      21.315  -1.396  54.863  1.00  0.00    -0.283 NA
HETATM   14  C18 UNL     1      22.653  -1.471  55.382  1.00  0.00     0.206 A 
BRANCH  12  15
HETATM   15  C14 UNL     1      20.015  -0.531  53.005  1.00  0.00    -0.001 A 
HETATM   16  C15 UNL     1      20.048   0.320  51.940  1.00  0.00     0.021 A 
HETATM   17  C16 UNL     1      18.753   0.492  51.238  1.00  0.00     0.050 A 
HETATM   18  S1  UNL     1      17.570  -0.615  52.194  1.00  0.00    -0.113 SA
HETATM   19  C17 UNL     1      18.791  -1.169  53.352  1.00  0.00     0.063 A 
ENDBRANCH  12  15
ENDBRANCH   8  10
ENDBRANCH   4   8
BRANCH   1  20
HETATM   20  O1  UNL     1      27.125   2.958  50.872  1.00  0.00    -0.344 OA
BRANCH  20  21
HETATM   21  C6  UNL     1      26.430   3.199  49.666  1.00  0.00     0.214 C 
BRANCH  21  22
HETATM   22  C5  UNL     1      26.727   4.561  49.132  1.00  0.00    -0.031 A 
HETATM   23  C4  UNL     1      25.765   5.560  49.152  1.00  0.00     0.009 A 
HETATM   24  C3  UNL     1      25.996   6.832  48.670  1.00  0.00     0.004 A 
HETATM   25  C2  UNL     1      27.244   7.103  48.148  1.00  0.00     0.042 A 
HETATM   26  C1  UNL     1      28.214   6.132  48.115  1.00  0.00     0.117 A 
HETATM   27  F1  UNL     1      29.385   6.517  47.584  1.00  0.00    -0.206 F 
HETATM   28  C21 UNL     1      27.968   4.875  48.598  1.00  0.00     0.051 A 
ENDBRANCH  21  22
ENDBRANCH  20  21
ENDBRANCH   1  20
TORSDOF 6
ENDMDL
MODEL 4
REMARK VINA RESULT:      -8.3      8.177     11.210
REMARK  6 active torsions:
REMARK  status: ('A' for Active; 'I' for Inactive)
REMARK    1  A    between atoms: C5_6  and  C6_7 
REMARK    2  A    between atoms: C6_7  and  O1_8 
REMARK    3  A    between atoms: O1_8  and  C7_9 
REMARK    4  A    between atoms: C10_12  and  N1_13 
REMARK    5  A    between atoms: N1_13  and  C11_14 
REMARK    6  A    between atoms: C13_16  and  C14_17 
ROOT
HETATM    1  C7  UNL     1      25.666   2.702  51.458  1.00  0.00     0.101 C 
HETATM    2  C8  UNL     1      26.586   2.828  50.531  1.00  0.00     0.010 C 
HETATM    3  C9  UNL     1      26.577   3.871  49.723  1.00  0.00     0.017 C 
HETATM    4  C10 UNL     1      25.225   4.362  49.356  1.00  0.00     0.130 C 
HETATM    5  C19 UNL     1      24.381   4.489  50.558  1.00  0.00     0.028 C 
HETATM    6  C20 UNL     1      24.606   3.673  51.575  1.00  0.00     0.066 C 
HETATM    7 CL1  UNL     1      23.629   3.791  53.016  1.00  0.00    -0.082 Cl
ENDROOT
BRANCH   4   8
HETATM    8  N1  UNL     1      25.265   5.605  48.626  1.00  0.00    -0.381 N 
HETATM    9  H8  UNL     1      24.701   5.706  47.734  1.00  0.00     0.160 HD
BRANCH   8  10
HETATM   10  C11 UNL     1      26.037   6.706  49.058  1.00  0.00     0.028 A 
HETATM   11  C12 UNL     1      27.183   7.081  48.578  1.00  0.00     0.058 A 
HETATM   12  C13 UNL     1      27.715   8.257  49.246  1.00  0.00     0.064 A 
HETATM   13  N2  UNL     1      26.839   8.555  50.132  1.00  0.00    -0.283 NA
HETATM   14  C18 UNL     1      25.715   7.660  50.136  1.00  0.00     0.206 A 
BRANCH  12  15
HETATM   15  C14 UNL     1      28.952   8.990  49.020  1.00  0.00    -0.001 A 
HETATM   16  C15 UNL     1      30.100   8.285  48.812  1.00  0.00     0.021 A 
HETATM   17  C16 UNL     1      31.310   9.114  48.591  1.00  0.00     0.050 A 
HETATM   18  S1  UNL     1      30.674  10.882  48.702  1.00  0.00    -0.113 SA
HETATM   19  C17 UNL     1      28.994  10.413  49.009  1.00  0.00     0.063 A 
ENDBRANCH  12  15
ENDBRANCH   8  10
ENDBRANCH   4   8
BRANCH   1  20
HETATM   20  O1  UNL     1      25.738   1.626  52.307  1.00  0.00    -0.344 OA
BRANCH  20  21
HETATM   21  C6  UNL     1      26.621   1.695  53.408  1.00  0.00     0.214 C 
BRANCH  21  22
HETATM   22  C5  UNL     1      27.624   0.591  53.369  1.00  0.00    -0.031 A 
HETATM   23  C4  UNL     1      28.957   0.827  53.672  1.00  0.00     0.009 A 
HETATM   24  C3  UNL     1      29.918  -0.163  53.648  1.00  0.00     0.004 A 
HETATM   25  C2  UNL     1      29.516  -1.438  53.306  1.00  0.00     0.042 A 
HETATM   26  C1  UNL     1      28.202  -1.699  53.002  1.00  0.00     0.117 A 
HETATM   27  F1  UNL     1      27.936  -2.976  52.686  1.00  0.00    -0.206 F 
HETATM   28  C21 UNL     1      27.262  -0.704  53.030  1.00  0.00     0.051 A 
ENDBRANCH  21  22
ENDBRANCH  20  21
ENDBRANCH   1  20
TORSDOF 6
ENDMDL
MODEL 5
REMARK VINA RESULT:      -8.3      1.896      2.569
REMARK  6 active torsions:
REMARK  status: ('A' for Active; 'I' for Inactive)
REMARK    1  A    between atoms: C5_6  and  C6_7 
REMARK    2  A    between atoms: C6_7  and  O1_8 
REMARK    3  A    between atoms: O1_8  and  C7_9 
REMARK    4  A    between atoms: C10_12  and  N1_13 
REMARK    5  A    between atoms: N1_13  and  C11_14 
REMARK    6  A    between atoms: C13_16  and  C14_17 
ROOT
HETATM    1  C7  UNL     1      23.672  -0.031  53.077  1.00  0.00     0.101 C 
HETATM    2  C8  UNL     1      22.761   0.611  52.385  1.00  0.00     0.010 C 
HETATM    3  C9  UNL     1      21.503   0.615  52.782  1.00  0.00     0.017 C 
HETATM    4  C10 UNL     1      21.051  -0.644  53.426  1.00  0.00     0.130 C 
HETATM    5  C19 UNL     1      22.030  -1.086  54.435  1.00  0.00     0.028 C 
HETATM    6  C20 UNL     1      23.305  -0.780  54.254  1.00  0.00     0.066 C 
HETATM    7 CL1  UNL     1      24.495  -1.283  55.425  1.00  0.00    -0.082 Cl
ENDROOT
BRANCH   4   8
HETATM    8  N1  UNL     1      19.735  -0.530  54.005  1.00  0.00    -0.381 N 
HETATM    9  H8  UNL     1      19.624  -0.101  54.969  1.00  0.00     0.160 HD
BRANCH   8  10
HETATM   10  C11 UNL     1      18.576  -0.974  53.333  1.00  0.00     0.028 A 
HETATM   11  C12 UNL     1      17.991  -0.388  52.333  1.00  0.00     0.058 A 
HETATM   12  C13 UNL     1      16.815  -1.107  51.870  1.00  0.00     0.064 A 
HETATM   13  N2  UNL     1      16.735  -2.132  52.635  1.00  0.00    -0.283 NA
HETATM   14  C18 UNL     1      17.784  -2.186  53.616  1.00  0.00     0.206 A 
BRANCH  12  15
HETATM   15  C14 UNL     1      15.888  -0.800  50.792  1.00  0.00    -0.001 A 
HETATM   16  C15 UNL     1      14.550  -0.834  51.050  1.00  0.00     0.021 A 
HETATM   17  C16 UNL     1      13.682  -0.507  49.893  1.00  0.00     0.050 A 
HETATM   18  S1  UNL     1      14.897  -0.170  48.497  1.00  0.00    -0.113 SA
HETATM   19  C17 UNL     1      16.339  -0.467  49.483  1.00  0.00     0.063 A 
ENDBRANCH  12  15
ENDBRANCH   8  10
ENDBRANCH   4   8
BRANCH   1  20
HETATM   20  O1  UNL     1      24.977   0.029  52.654  1.00  0.00    -0.344 OA
BRANCH  20  21
HETATM   21  C6  UNL     1      25.846   0.951  53.280  1.00  0.00     0.214 C 
BRANCH  21  22
HETATM   22  C5  UNL     1      27.229   0.401  53.391  1.00  0.00    -0.031 A 
HETATM   23  C4  UNL     1      28.294   1.216  53.747  1.00  0.00     0.009 A 
HETATM   24  C3  UNL     1      29.587   0.750  53.862  1.00  0.00     0.004 A 
HETATM   25  C2  UNL     1      29.813  -0.587  53.608  1.00  0.00     0.042 A 
HETATM   26  C1  UNL     1      28.777  -1.415  53.253  1.00  0.00     0.117 A 
HETATM   27  F1  UNL     1      29.122  -2.694  53.032  1.00  0.00    -0.206 F 
HETATM   28  C21 UNL     1      27.499  -0.937  53.143  1.00  0.00     0.051 A 
ENDBRANCH  21  22
ENDBRANCH  20  21
ENDBRANCH   1  20
TORSDOF 6
ENDMDL
MODEL 6
REMARK VINA RESULT:      -8.1      3.675      4.322
REMARK  6 active torsions:
REMARK  status: ('A' for Active; 'I' for Inactive)
REMARK    1  A    between atoms: C5_6  and  C6_7 
REMARK    2  A    between atoms: C6_7  and  O1_8 
REMARK    3  A    between atoms: O1_8  and  C7_9 
REMARK    4  A    between atoms: C10_12  and  N1_13 
REMARK    5  A    between atoms: N1_13  and  C11_14 
REMARK    6  A    between atoms: C13_16  and  C14_17 
ROOT
HETATM    1  C7  UNL     1      23.499   0.602  52.781  1.00  0.00     0.101 C 
HETATM    2  C8  UNL     1      23.741   1.337  51.722  1.00  0.00     0.010 C 
HETATM    3  C9  UNL     1      22.752   1.726  50.941  1.00  0.00     0.017 C 
HETATM    4  C10 UNL     1      21.648   0.744  50.800  1.00  0.00     0.130 C 
HETATM    5  C19 UNL     1      21.244   0.233  52.123  1.00  0.00     0.028 C 
HETATM    6  C20 UNL     1      22.156   0.168  53.080  1.00  0.00     0.066 C 
HETATM    7 CL1  UNL     1      21.719  -0.430  54.658  1.00  0.00    -0.082 Cl
ENDROOT
BRANCH   4   8
HETATM    8  N1  UNL     1      20.512   1.282  50.093  1.00  0.00    -0.381 N 
HETATM    9  H8  UNL     1      20.404   1.090  49.056  1.00  0.00     0.160 HD
BRANCH   8  10
HETATM   10  C11 UNL     1      19.529   2.067  50.734  1.00  0.00     0.028 A 
HETATM   11  C12 UNL     1      18.271   1.774  50.864  1.00  0.00     0.058 A 
HETATM   12  C13 UNL     1      17.527   2.798  51.579  1.00  0.00     0.064 A 
HETATM   13  N2  UNL     1      18.394   3.697  51.861  1.00  0.00    -0.283 NA
HETATM   14  C18 UNL     1      19.713   3.376  51.388  1.00  0.00     0.206 A 
BRANCH  12  15
HETATM   15  C14 UNL     1      16.117   2.861  51.934  1.00  0.00    -0.001 A 
HETATM   16  C15 UNL     1      15.643   3.991  52.531  1.00  0.00     0.021 A 
HETATM   17  C16 UNL     1      14.197   3.966  52.856  1.00  0.00     0.050 A 
HETATM   18  S1  UNL     1      13.628   2.275  52.259  1.00  0.00    -0.113 SA
HETATM   19  C17 UNL     1      15.226   1.781  51.675  1.00  0.00     0.063 A 
ENDBRANCH  12  15
ENDBRANCH   8  10
ENDBRANCH   4   8
BRANCH   1  20
HETATM   20  O1  UNL     1      24.552   0.257  53.592  1.00  0.00    -0.344 OA
BRANCH  20  21
HETATM   21  C6  UNL     1      25.493  -0.679  53.111  1.00  0.00     0.214 C 
BRANCH  21  22
HETATM   22  C5  UNL     1      26.890  -0.191  53.303  1.00  0.00    -0.031 A 
HETATM   23  C4  UNL     1      27.960  -1.075  53.313  1.00  0.00     0.009 A 
HETATM   24  C3  UNL     1      29.267  -0.667  53.488  1.00  0.00     0.004 A 
HETATM   25  C2  UNL     1      29.500   0.681  53.659  1.00  0.00     0.042 A 
HETATM   26  C1  UNL     1      28.460   1.578  53.654  1.00  0.00     0.117 A 
HETATM   27  F1  UNL     1      28.814   2.860  53.830  1.00  0.00    -0.206 F 
HETATM   28  C21 UNL     1      27.169   1.156  53.480  1.00  0.00     0.051 A 
ENDBRANCH  21  22
ENDBRANCH  20  21
ENDBRANCH   1  20
TORSDOF 6
ENDMDL
MODEL 7
REMARK VINA RESULT:      -8.1      1.832      2.385
REMARK  6 active torsions:
REMARK  status: ('A' for Active; 'I' for Inactive)
REMARK    1  A    between atoms: C5_6  and  C6_7 
REMARK    2  A    between atoms: C6_7  and  O1_8 
REMARK    3  A    between atoms: O1_8  and  C7_9 
REMARK    4  A    between atoms: C10_12  and  N1_13 
REMARK    5  A    between atoms: N1_13  and  C11_14 
REMARK    6  A    between atoms: C13_16  and  C14_17 
ROOT
HETATM    1  C7  UNL     1      23.011  -0.267  53.307  1.00  0.00     0.101 C 
HETATM    2  C8  UNL     1      22.233   0.386  52.476  1.00  0.00     0.010 C 
HETATM    3  C9  UNL     1      20.934   0.454  52.696  1.00  0.00     0.017 C 
HETATM    4  C10 UNL     1      20.342  -0.762  53.308  1.00  0.00     0.130 C 
HETATM    5  C19 UNL     1      21.153  -1.206  54.456  1.00  0.00     0.028 C 
HETATM    6  C20 UNL     1      22.453  -0.958  54.443  1.00  0.00     0.066 C 
HETATM    7 CL1  UNL     1      23.448  -1.466  55.783  1.00  0.00    -0.082 Cl
ENDROOT
BRANCH   4   8
HETATM    8  N1  UNL     1      18.966  -0.575  53.696  1.00  0.00    -0.381 N 
HETATM    9  H8  UNL     1      18.690   0.291  54.242  1.00  0.00     0.160 HD
BRANCH   8  10
HETATM   10  C11 UNL     1      17.960  -1.512  53.376  1.00  0.00     0.028 A 
HETATM   11  C12 UNL     1      16.916  -1.302  52.633  1.00  0.00     0.058 A 
HETATM   12  C13 UNL     1      16.074  -2.479  52.501  1.00  0.00     0.064 A 
HETATM   13  N2  UNL     1      16.662  -3.383  53.192  1.00  0.00    -0.283 NA
HETATM   14  C18 UNL     1      17.874  -2.920  53.810  1.00  0.00     0.206 A 
BRANCH  12  15
HETATM   15  C14 UNL     1      14.831  -2.669  51.769  1.00  0.00    -0.001 A 
HETATM   16  C15 UNL     1      14.298  -3.922  51.700  1.00  0.00     0.021 A 
HETATM   17  C16 UNL     1      13.032  -4.021  50.934  1.00  0.00     0.050 A 
HETATM   18  S1  UNL     1      12.708  -2.257  50.366  1.00  0.00    -0.113 SA
HETATM   19  C17 UNL     1      14.161  -1.589  51.129  1.00  0.00     0.063 A 
ENDBRANCH  12  15
ENDBRANCH   8  10
ENDBRANCH   4   8
BRANCH   1  20
HETATM   20  O1  UNL     1      24.363  -0.274  53.067  1.00  0.00    -0.344 OA
BRANCH  20  21
HETATM   21  C6  UNL     1      25.003   0.954  52.788  1.00  0.00     0.214 C 
BRANCH  21  22
HETATM   22  C5  UNL     1      26.465   0.881  53.078  1.00  0.00    -0.031 A 
HETATM   23  C4  UNL     1      27.116  -0.341  53.163  1.00  0.00     0.009 A 
HETATM   24  C3  UNL     1      28.465  -0.455  53.429  1.00  0.00     0.004 A 
HETATM   25  C2  UNL     1      29.182   0.708  53.617  1.00  0.00     0.042 A 
HETATM   26  C1  UNL     1      28.562   1.932  53.540  1.00  0.00     0.117 A 
HETATM   27  F1  UNL     1      29.365   2.988  53.741  1.00  0.00    -0.206 F 
HETATM   28  C21 UNL     1      27.223   2.026  53.275  1.00  0.00     0.051 A 
ENDBRANCH  21  22
ENDBRANCH  20  21
ENDBRANCH   1  20
TORSDOF 6
ENDMDL
MODEL 8
REMARK VINA RESULT:      -8.0      4.608      5.822
REMARK  6 active torsions:
REMARK  status: ('A' for Active; 'I' for Inactive)
REMARK    1  A    between atoms: C5_6  and  C6_7 
REMARK    2  A    between atoms: C6_7  and  O1_8 
REMARK    3  A    between atoms: O1_8  and  C7_9 
REMARK    4  A    between atoms: C10_12  and  N1_13 
REMARK    5  A    between atoms: N1_13  and  C11_14 
REMARK    6  A    between atoms: C13_16  and  C14_17 
ROOT
HETATM    1  C7  UNL     1      25.888   2.325  51.709  1.00  0.00     0.101 C 
HETATM    2  C8  UNL     1      24.750   2.962  51.848  1.00  0.00     0.010 C 
HETATM    3  C9  UNL     1      23.836   2.517  52.688  1.00  0.00     0.017 C 
HETATM    4  C10 UNL     1      23.760   1.038  52.798  1.00  0.00     0.130 C 
HETATM    5  C19 UNL     1      25.109   0.467  52.971  1.00  0.00     0.028 C 
HETATM    6  C20 UNL     1      26.138   1.104  52.435  1.00  0.00     0.066 C 
HETATM    7 CL1  UNL     1      27.748   0.462  52.618  1.00  0.00    -0.082 Cl
ENDROOT
BRANCH   4   8
HETATM    8  N1  UNL     1      22.882   0.604  53.855  1.00  0.00    -0.381 N 
HETATM    9  H8  UNL     1      23.192   0.699  54.864  1.00  0.00     0.160 HD
BRANCH   8  10
HETATM   10  C11 UNL     1      21.610   0.049  53.596  1.00  0.00     0.028 A 
HETATM   11  C12 UNL     1      20.748   0.468  52.721  1.00  0.00     0.058 A 
HETATM   12  C13 UNL     1      19.531  -0.327  52.704  1.00  0.00     0.064 A 
HETATM   13  N2  UNL     1      19.713  -1.224  53.600  1.00  0.00    -0.283 NA
HETATM   14  C18 UNL     1      20.988  -1.115  54.255  1.00  0.00     0.206 A 
BRANCH  12  15
HETATM   15  C14 UNL     1      18.334  -0.198  51.887  1.00  0.00    -0.001 A 
HETATM   16  C15 UNL     1      18.437   0.399  50.666  1.00  0.00     0.021 A 
HETATM   17  C16 UNL     1      17.167   0.487  49.905  1.00  0.00     0.050 A 
HETATM   18  S1  UNL     1      15.902  -0.320  51.040  1.00  0.00    -0.113 SA
HETATM   19  C17 UNL     1      17.067  -0.676  52.326  1.00  0.00     0.063 A 
ENDBRANCH  12  15
ENDBRANCH   8  10
ENDBRANCH   4   8
BRANCH   1  20
HETATM   20  O1  UNL     1      26.831   2.849  50.859  1.00  0.00    -0.344 OA
BRANCH  20  21
HETATM   21  C6  UNL     1      26.457   3.117  49.523  1.00  0.00     0.214 C 
BRANCH  21  22
HETATM   22  C5  UNL     1      26.767   4.527  49.146  1.00  0.00    -0.031 A 
HETATM   23  C4  UNL     1      27.979   4.860  48.560  1.00  0.00     0.009 A 
HETATM   24  C3  UNL     1      28.307   6.150  48.196  1.00  0.00     0.004 A 
HETATM   25  C2  UNL     1      27.375   7.139  48.434  1.00  0.00     0.042 A 
HETATM   26  C1  UNL     1      26.167   6.838  49.013  1.00  0.00     0.117 A 
HETATM   27  F1  UNL     1      25.346   7.884  49.192  1.00  0.00    -0.206 F 
HETATM   28  C21 UNL     1      25.858   5.552  49.368  1.00  0.00     0.051 A 
ENDBRANCH  21  22
ENDBRANCH  20  21
ENDBRANCH   1  20
TORSDOF 6
ENDMDL
MODEL 9
REMARK VINA RESULT:      -7.9      4.673      6.521
REMARK  6 active torsions:
REMARK  status: ('A' for Active; 'I' for Inactive)
REMARK    1  A    between atoms: C5_6  and  C6_7 
REMARK    2  A    between atoms: C6_7  and  O1_8 
REMARK    3  A    between atoms: O1_8  and  C7_9 
REMARK    4  A    between atoms: C10_12  and  N1_13 
REMARK    5  A    between atoms: N1_13  and  C11_14 
REMARK    6  A    between atoms: C13_16  and  C14_17 
ROOT
HETATM    1  C7  UNL     1      23.969  -0.088  53.605  1.00  0.00     0.101 C 
HETATM    2  C8  UNL     1      24.028   1.000  52.874  1.00  0.00     0.010 C 
HETATM    3  C9  UNL     1      22.949   1.735  52.686  1.00  0.00     0.017 C 
HETATM    4  C10 UNL     1      21.682   0.967  52.592  1.00  0.00     0.130 C 
HETATM    5  C19 UNL     1      21.594  -0.014  53.689  1.00  0.00     0.028 C 
HETATM    6  C20 UNL     1      22.716  -0.521  54.173  1.00  0.00     0.066 C 
HETATM    7 CL1  UNL     1      22.656  -1.685  55.471  1.00  0.00    -0.082 Cl
ENDROOT
BRANCH   4   8
HETATM    8  N1  UNL     1      20.518   1.817  52.573  1.00  0.00    -0.381 N 
HETATM    9  H8  UNL     1      19.804   1.744  53.354  1.00  0.00     0.160 HD
BRANCH   8  10
HETATM   10  C11 UNL     1      20.287   2.753  51.542  1.00  0.00     0.028 A 
HETATM   11  C12 UNL     1      20.580   4.018  51.565  1.00  0.00     0.058 A 
HETATM   12  C13 UNL     1      20.210   4.704  50.339  1.00  0.00     0.064 A 
HETATM   13  N2  UNL     1      19.691   3.797  49.599  1.00  0.00    -0.283 NA
HETATM   14  C18 UNL     1      19.668   2.504  50.226  1.00  0.00     0.206 A 
BRANCH  12  15
HETATM   15  C14 UNL     1      20.361   6.101  49.959  1.00  0.00    -0.001 A 
HETATM   16  C15 UNL     1      21.495   6.760  50.333  1.00  0.00     0.021 A 
HETATM   17  C16 UNL     1      21.562   8.178  49.904  1.00  0.00     0.050 A 
HETATM   18  S1  UNL     1      19.948   8.447  48.974  1.00  0.00    -0.113 SA
HETATM   19  C17 UNL     1      19.365   6.791  49.214  1.00  0.00     0.063 A 
ENDBRANCH  12  15
ENDBRANCH   8  10
ENDBRANCH   4   8
BRANCH   1  20
HETATM   20  O1  UNL     1      25.125  -0.798  53.812  1.00  0.00    -0.344 OA
BRANCH  20  21
HETATM   21  C6  UNL     1      26.027  -0.947  52.735  1.00  0.00     0.214 C 
BRANCH  21  22
HETATM   22  C5  UNL     1      27.384  -0.439  53.090  1.00  0.00    -0.031 A 
HETATM   23  C4  UNL     1      28.469  -1.299  53.173  1.00  0.00     0.009 A 
HETATM   24  C3  UNL     1      29.741  -0.873  53.497  1.00  0.00     0.004 A 
HETATM   25  C2  UNL     1      29.921   0.472  53.748  1.00  0.00     0.042 A 
HETATM   26  C1  UNL     1      28.864   1.346  53.674  1.00  0.00     0.117 A 
HETATM   27  F1  UNL     1      29.166   2.626  53.939  1.00  0.00    -0.206 F 
HETATM   28  C21 UNL     1      27.609   0.905  53.351  1.00  0.00     0.051 A 
ENDBRANCH  21  22
ENDBRANCH  20  21
ENDBRANCH   1  20
TORSDOF 6
ENDMDL
