MODEL 1
REMARK VINA RESULT:      -8.4      0.000      0.000
REMARK  5 active torsions:
REMARK  status: ('A' for Active; 'I' for Inactive)
REMARK    1  A    between atoms: C2_2  and  C3_3 
REMARK    2  A    between atoms: C3_3  and  N1_5 
REMARK    3  A    between atoms: N1_5  and  C5_6 
REMARK    4  A    between atoms: C12_14  and  N3_15 
REMARK    5  A    between atoms: N3_15  and  C13_16 
ROOT
HETATM    1  C5  UNL     1      26.474  -0.161  53.313  1.00  0.00     0.029 A 
HETATM    2  C6  UNL     1      26.716   0.551  52.167  1.00  0.00     0.032 A 
HETATM    3  C7  UNL     1      25.703   1.096  51.415  1.00  0.00     0.040 A 
HETATM    4  C8  UNL     1      24.393   0.924  51.823  1.00  0.00     0.086 A 
HETATM    5  C9  UNL     1      24.143   0.200  52.989  1.00  0.00    -0.005 A 
HETATM    6  C10 UNL     1      25.181  -0.334  53.720  1.00  0.00     0.040 A 
HETATM    7  C11 UNL     1      22.822  -0.134  53.616  1.00  0.00     0.160 C 
HETATM    8  N2  UNL     1      22.044   1.041  53.712  1.00  0.00    -0.367 N 
HETATM    9  C12 UNL     1      21.392   1.506  52.506  1.00  0.00     0.272 A 
HETATM   10  N4  UNL     1      20.441   2.500  52.961  1.00  0.00    -0.223 NA
HETATM   11  C19 UNL     1      20.737   3.622  52.443  1.00  0.00     0.234 A 
HETATM   12  N5  UNL     1      21.900   3.531  51.593  1.00  0.00    -0.216 NA
HETATM   13  C20 UNL     1      22.289   2.270  51.631  1.00  0.00     0.221 A 
HETATM   14  O1  UNL     1      23.331   1.480  51.060  1.00  0.00    -0.290 OA
HETATM   15  H12 UNL     1      22.402   1.785  54.308  1.00  0.00     0.158 HD
ENDROOT
BRANCH   9  16
HETATM   16  N3  UNL     1      20.622   0.483  51.871  1.00  0.00    -0.338 N 
HETATM   17  H13 UNL     1      21.180  -0.042  51.131  1.00  0.00     0.164 HD
BRANCH  16  18
HETATM   18  C13 UNL     1      19.329  -0.058  51.965  1.00  0.00     0.033 A 
HETATM   19  C14 UNL     1      18.947  -0.795  53.070  1.00  0.00     0.032 A 
HETATM   20  C15 UNL     1      17.700  -1.357  53.251  1.00  0.00     0.046 A 
HETATM   21  C16 UNL     1      16.775  -1.176  52.276  1.00  0.00     0.138 A 
HETATM   22  F1  UNL     1      15.508  -1.645  52.263  1.00  0.00    -0.204 F 
HETATM   23  C17 UNL     1      17.114  -0.446  51.154  1.00  0.00     0.074 A 
HETATM   24 CL1  UNL     1      15.975  -0.159  49.840  1.00  0.00    -0.081 Cl
HETATM   25  C18 UNL     1      18.361   0.099  51.004  1.00  0.00     0.056 A 
ENDBRANCH  16  18
ENDBRANCH   9  16
BRANCH   1  26
HETATM   26  N1  UNL     1      27.531  -0.739  54.119  1.00  0.00    -0.374 N 
HETATM   27  H6  UNL     1      26.950  -1.439  54.677  1.00  0.00     0.161 HD
BRANCH  26  28
HETATM   28  C3  UNL     1      28.954  -0.362  54.058  1.00  0.00     0.076 C 
HETATM   29  C4  UNL     1      28.953  -1.422  53.326  1.00  0.00     0.041 C 
BRANCH  28  30
HETATM   30  C2  UNL     1      28.616   0.751  54.894  1.00  0.00    -0.004 C 
HETATM   31  C1  UNL     1      29.361   1.727  54.437  1.00  0.00     0.009 C 
ENDBRANCH  28  30
ENDBRANCH  26  28
ENDBRANCH   1  26
TORSDOF 5
ENDMDL
MODEL 2
REMARK VINA RESULT:      -8.3      2.112      3.056
REMARK  5 active torsions:
REMARK  status: ('A' for Active; 'I' for Inactive)
REMARK    1  A    between atoms: C2_2  and  C3_3 
REMARK    2  A    between atoms: C3_3  and  N1_5 
REMARK    3  A    between atoms: N1_5  and  C5_6 
REMARK    4  A    between atoms: C12_14  and  N3_15 
REMARK    5  A    between atoms: N3_15  and  C13_16 
ROOT
HETATM    1  C5  UNL     1      26.906   1.354  53.604  1.00  0.00     0.029 A 
HETATM    2  C6  UNL     1      26.790   0.553  52.498  1.00  0.00     0.032 A 
HETATM    3  C7  UNL     1      25.759   0.688  51.599  1.00  0.00     0.040 A 
HETATM    4  C8  UNL     1      24.803   1.665  51.811  1.00  0.00     0.086 A 
HETATM    5  C9  UNL     1      24.919   2.483  52.936  1.00  0.00    -0.005 A 
HETATM    6  C10 UNL     1      25.964   2.321  53.817  1.00  0.00     0.040 A 
HETATM    7  C11 UNL     1      24.007   3.586  53.385  1.00  0.00     0.160 C 
HETATM    8  N2  UNL     1      23.754   4.451  52.298  1.00  0.00    -0.367 N 
HETATM    9  C12 UNL     1      22.790   4.011  51.311  1.00  0.00     0.272 A 
HETATM   10  N4  UNL     1      22.504   5.194  50.523  1.00  0.00    -0.223 NA
HETATM   11  C19 UNL     1      22.846   4.979  49.319  1.00  0.00     0.234 A 
HETATM   12  N5  UNL     1      23.395   3.656  49.144  1.00  0.00    -0.216 NA
HETATM   13  C20 UNL     1      23.361   3.081  50.331  1.00  0.00     0.221 A 
HETATM   14  O1  UNL     1      23.730   1.823  50.894  1.00  0.00    -0.290 OA
HETATM   15  H12 UNL     1      24.551   4.953  51.911  1.00  0.00     0.158 HD
ENDROOT
BRANCH   9  16
HETATM   16  N3  UNL     1      21.547   3.617  51.898  1.00  0.00    -0.338 N 
HETATM   17  H13 UNL     1      21.062   4.422  52.398  1.00  0.00     0.164 HD
BRANCH  16  18
HETATM   18  C13 UNL     1      20.756   2.459  51.981  1.00  0.00     0.033 A 
HETATM   19  C14 UNL     1      19.660   2.289  51.157  1.00  0.00     0.032 A 
HETATM   20  C15 UNL     1      18.831   1.185  51.163  1.00  0.00     0.046 A 
HETATM   21  C16 UNL     1      19.107   0.189  52.042  1.00  0.00     0.138 A 
HETATM   22  F1  UNL     1      18.420  -0.961  52.204  1.00  0.00    -0.204 F 
HETATM   23  C17 UNL     1      20.193   0.319  52.884  1.00  0.00     0.074 A 
HETATM   24 CL1  UNL     1      20.628  -0.926  54.054  1.00  0.00    -0.081 Cl
HETATM   25  C18 UNL     1      20.997   1.427  52.853  1.00  0.00     0.056 A 
ENDBRANCH  16  18
ENDBRANCH   9  16
BRANCH   1  26
HETATM   26  N1  UNL     1      27.988   1.226  54.559  1.00  0.00    -0.374 N 
HETATM   27  H6  UNL     1      27.432   1.364  55.459  1.00  0.00     0.161 HD
BRANCH  26  28
HETATM   28  C3  UNL     1      29.400   0.971  54.220  1.00  0.00     0.076 C 
HETATM   29  C4  UNL     1      29.361   2.255  54.142  1.00  0.00     0.041 C 
BRANCH  28  30
HETATM   30  C2  UNL     1      29.109  -0.421  54.395  1.00  0.00    -0.004 C 
HETATM   31  C1  UNL     1      29.991  -1.026  53.637  1.00  0.00     0.009 C 
ENDBRANCH  28  30
ENDBRANCH  26  28
ENDBRANCH   1  26
TORSDOF 5
ENDMDL
MODEL 3
REMARK VINA RESULT:      -8.2      5.461      7.623
REMARK  5 active torsions:
REMARK  status: ('A' for Active; 'I' for Inactive)
REMARK    1  A    between atoms: C2_2  and  C3_3 
REMARK    2  A    between atoms: C3_3  and  N1_5 
REMARK    3  A    between atoms: N1_5  and  C5_6 
REMARK    4  A    between atoms: C12_14  and  N3_15 
REMARK    5  A    between atoms: N3_15  and  C13_16 
ROOT
HETATM    1  C5  UNL     1      25.045   7.090  50.304  1.00  0.00     0.029 A 
HETATM    2  C6  UNL     1      25.555   6.300  49.307  1.00  0.00     0.032 A 
HETATM    3  C7  UNL     1      25.392   4.936  49.295  1.00  0.00     0.040 A 
HETATM    4  C8  UNL     1      24.687   4.333  50.322  1.00  0.00     0.086 A 
HETATM    5  C9  UNL     1      24.167   5.134  51.339  1.00  0.00    -0.005 A 
HETATM    6  C10 UNL     1      24.349   6.499  51.321  1.00  0.00     0.040 A 
HETATM    7  C11 UNL     1      23.394   4.715  52.554  1.00  0.00     0.160 C 
HETATM    8  N2  UNL     1      22.348   3.850  52.163  1.00  0.00    -0.367 N 
HETATM    9  C12 UNL     1      22.697   2.476  51.870  1.00  0.00     0.272 A 
HETATM   10  N4  UNL     1      21.429   1.777  51.819  1.00  0.00    -0.223 NA
HETATM   11  C19 UNL     1      21.272   1.292  50.655  1.00  0.00     0.234 A 
HETATM   12  N5  UNL     1      22.388   1.596  49.792  1.00  0.00    -0.216 NA
HETATM   13  C20 UNL     1      23.236   2.301  50.517  1.00  0.00     0.221 A 
HETATM   14  O1  UNL     1      24.505   2.924  50.329  1.00  0.00    -0.290 OA
HETATM   15  H12 UNL     1      21.629   4.239  51.555  1.00  0.00     0.158 HD
ENDROOT
BRANCH   9  16
HETATM   16  N3  UNL     1      23.444   1.864  52.925  1.00  0.00    -0.338 N 
HETATM   17  H13 UNL     1      22.884   1.793  53.828  1.00  0.00     0.164 HD
BRANCH  16  18
HETATM   18  C13 UNL     1      24.715   1.295  53.107  1.00  0.00     0.033 A 
HETATM   19  C14 UNL     1      24.884  -0.077  53.103  1.00  0.00     0.032 A 
HETATM   20  C15 UNL     1      26.092  -0.723  53.267  1.00  0.00     0.046 A 
HETATM   21  C16 UNL     1      27.201   0.038  53.445  1.00  0.00     0.138 A 
HETATM   22  F1  UNL     1      28.465  -0.400  53.624  1.00  0.00    -0.204 F 
HETATM   23  C17 UNL     1      27.076   1.413  53.454  1.00  0.00     0.074 A 
HETATM   24 CL1  UNL     1      28.462   2.480  53.676  1.00  0.00    -0.081 Cl
HETATM   25  C18 UNL     1      25.862   2.025  53.289  1.00  0.00     0.056 A 
ENDBRANCH  16  18
ENDBRANCH   9  16
BRANCH   1  26
HETATM   26  N1  UNL     1      25.207   8.530  50.329  1.00  0.00    -0.374 N 
HETATM   27  H6  UNL     1      24.593   8.751  51.174  1.00  0.00     0.161 HD
BRANCH  26  28
HETATM   28  C3  UNL     1      26.028   9.313  49.388  1.00  0.00     0.076 C 
HETATM   29  C4  UNL     1      24.883   9.352  48.801  1.00  0.00     0.041 C 
BRANCH  28  30
HETATM   30  C2  UNL     1      27.126   9.088  50.280  1.00  0.00    -0.004 C 
HETATM   31  C1  UNL     1      28.174   9.472  49.594  1.00  0.00     0.009 C 
ENDBRANCH  28  30
ENDBRANCH  26  28
ENDBRANCH   1  26
TORSDOF 5
ENDMDL
MODEL 4
REMARK VINA RESULT:      -8.0      3.918      5.487
REMARK  5 active torsions:
REMARK  status: ('A' for Active; 'I' for Inactive)
REMARK    1  A    between atoms: C2_2  and  C3_3 
REMARK    2  A    between atoms: C3_3  and  N1_5 
REMARK    3  A    between atoms: N1_5  and  C5_6 
REMARK    4  A    between atoms: C12_14  and  N3_15 
REMARK    5  A    between atoms: N3_15  and  C13_16 
ROOT
HETATM    1  C5  UNL     1      26.124  -0.059  54.035  1.00  0.00     0.029 A 
HETATM    2  C6  UNL     1      25.003  -0.800  54.304  1.00  0.00     0.032 A 
HETATM    3  C7  UNL     1      23.770  -0.477  53.791  1.00  0.00     0.040 A 
HETATM    4  C8  UNL     1      23.649   0.632  52.973  1.00  0.00     0.086 A 
HETATM    5  C9  UNL     1      24.789   1.388  52.696  1.00  0.00    -0.005 A 
HETATM    6  C10 UNL     1      26.011   1.037  53.227  1.00  0.00     0.040 A 
HETATM    7  C11 UNL     1      24.906   2.629  51.863  1.00  0.00     0.160 C 
HETATM    8  N2  UNL     1      24.268   2.416  50.621  1.00  0.00    -0.367 N 
HETATM    9  C12 UNL     1      22.822   2.495  50.595  1.00  0.00     0.272 A 
HETATM   10  N4  UNL     1      22.482   2.557  49.188  1.00  0.00    -0.223 NA
HETATM   11  C19 UNL     1      21.773   1.546  48.890  1.00  0.00     0.234 A 
HETATM   12  N5  UNL     1      21.550   0.691  50.031  1.00  0.00    -0.216 NA
HETATM   13  C20 UNL     1      22.176   1.257  51.046  1.00  0.00     0.221 A 
HETATM   14  O1  UNL     1      22.384   0.982  52.430  1.00  0.00    -0.290 OA
HETATM   15  H12 UNL     1      24.659   1.695  50.018  1.00  0.00     0.158 HD
ENDROOT
BRANCH   9  16
HETATM   16  N3  UNL     1      22.330   3.705  51.175  1.00  0.00    -0.338 N 
HETATM   17  H13 UNL     1      21.939   3.554  52.154  1.00  0.00     0.164 HD
BRANCH  16  18
HETATM   18  C13 UNL     1      22.240   5.064  50.832  1.00  0.00     0.033 A 
HETATM   19  C14 UNL     1      23.332   5.901  50.961  1.00  0.00     0.032 A 
HETATM   20  C15 UNL     1      23.339   7.244  50.642  1.00  0.00     0.046 A 
HETATM   21  C16 UNL     1      22.191   7.789  50.166  1.00  0.00     0.138 A 
HETATM   22  F1  UNL     1      21.995   9.075  49.804  1.00  0.00    -0.204 F 
HETATM   23  C17 UNL     1      21.077   6.988  50.022  1.00  0.00     0.074 A 
HETATM   24 CL1  UNL     1      19.545   7.610  49.408  1.00  0.00    -0.081 Cl
HETATM   25  C18 UNL     1      21.102   5.658  50.347  1.00  0.00     0.056 A 
ENDBRANCH  16  18
ENDBRANCH   9  16
BRANCH   1  26
HETATM   26  N1  UNL     1      27.432  -0.389  54.566  1.00  0.00    -0.374 N 
HETATM   27  H6  UNL     1      27.138  -0.718  55.538  1.00  0.00     0.161 HD
BRANCH  26  28
HETATM   28  C3  UNL     1      28.707  -0.256  53.838  1.00  0.00     0.076 C 
HETATM   29  C4  UNL     1      28.815   0.702  54.692  1.00  0.00     0.041 C 
BRANCH  28  30
HETATM   30  C2  UNL     1      28.284  -1.376  53.051  1.00  0.00    -0.004 C 
HETATM   31  C1  UNL     1      29.210  -2.279  53.263  1.00  0.00     0.009 C 
ENDBRANCH  28  30
ENDBRANCH  26  28
ENDBRANCH   1  26
TORSDOF 5
ENDMDL
MODEL 5
REMARK VINA RESULT:      -7.9      4.920      5.881
REMARK  5 active torsions:
REMARK  status: ('A' for Active; 'I' for Inactive)
REMARK    1  A    between atoms: C2_2  and  C3_3 
REMARK    2  A    between atoms: C3_3  and  N1_5 
REMARK    3  A    between atoms: N1_5  and  C5_6 
REMARK    4  A    between atoms: C12_14  and  N3_15 
REMARK    5  A    between atoms: N3_15  and  C13_16 
ROOT
HETATM    1  C5  UNL     1      25.886   1.677  52.865  1.00  0.00     0.029 A 
HETATM    2  C6  UNL     1      26.777   1.778  51.827  1.00  0.00     0.032 A 
HETATM    3  C7  UNL     1      26.631   2.704  50.823  1.00  0.00     0.040 A 
HETATM    4  C8  UNL     1      25.551   3.569  50.854  1.00  0.00     0.086 A 
HETATM    5  C9  UNL     1      24.643   3.469  51.909  1.00  0.00    -0.005 A 
HETATM    6  C10 UNL     1      24.818   2.529  52.900  1.00  0.00     0.040 A 
HETATM    7  C11 UNL     1      23.399   4.271  52.149  1.00  0.00     0.160 C 
HETATM    8  N2  UNL     1      23.701   5.646  52.022  1.00  0.00    -0.367 N 
HETATM    9  C12 UNL     1      23.826   6.178  50.681  1.00  0.00     0.272 A 
HETATM   10  N4  UNL     1      23.814   7.616  50.853  1.00  0.00    -0.223 NA
HETATM   11  C19 UNL     1      24.916   8.091  50.434  1.00  0.00     0.234 A 
HETATM   12  N5  UNL     1      25.791   7.057  49.937  1.00  0.00    -0.216 NA
HETATM   13  C20 UNL     1      25.142   5.917  50.086  1.00  0.00     0.221 A 
HETATM   14  O1  UNL     1      25.382   4.535  49.827  1.00  0.00    -0.290 OA
HETATM   15  H12 UNL     1      24.361   6.037  52.692  1.00  0.00     0.158 HD
ENDROOT
BRANCH   9  16
HETATM   16  N3  UNL     1      22.696   5.867  49.863  1.00  0.00    -0.338 N 
HETATM   17  H13 UNL     1      21.782   6.204  50.291  1.00  0.00     0.164 HD
BRANCH  16  18
HETATM   18  C13 UNL     1      22.445   5.261  48.621  1.00  0.00     0.033 A 
HETATM   19  C14 UNL     1      22.147   3.914  48.536  1.00  0.00     0.032 A 
HETATM   20  C15 UNL     1      21.879   3.237  47.364  1.00  0.00     0.046 A 
HETATM   21  C16 UNL     1      21.909   3.940  46.204  1.00  0.00     0.138 A 
HETATM   22  F1  UNL     1      21.681   3.463  44.962  1.00  0.00    -0.204 F 
HETATM   23  C17 UNL     1      22.202   5.288  46.243  1.00  0.00     0.074 A 
HETATM   24 CL1  UNL     1      22.259   6.280  44.786  1.00  0.00    -0.081 Cl
HETATM   25  C18 UNL     1      22.463   5.932  47.423  1.00  0.00     0.056 A 
ENDBRANCH  16  18
ENDBRANCH   9  16
BRANCH   1  26
HETATM   26  N1  UNL     1      26.028   0.708  53.932  1.00  0.00    -0.374 N 
HETATM   27  H6  UNL     1      25.370   1.152  54.647  1.00  0.00     0.161 HD
BRANCH  26  28
HETATM   28  C3  UNL     1      26.874  -0.498  53.884  1.00  0.00     0.076 C 
HETATM   29  C4  UNL     1      25.837  -0.903  53.237  1.00  0.00     0.041 C 
BRANCH  28  30
HETATM   30  C2  UNL     1      27.848   0.250  54.621  1.00  0.00    -0.004 C 
HETATM   31  C1  UNL     1      28.995  -0.199  54.174  1.00  0.00     0.009 C 
ENDBRANCH  28  30
ENDBRANCH  26  28
ENDBRANCH   1  26
TORSDOF 5
ENDMDL
MODEL 6
REMARK VINA RESULT:      -7.8      5.573      7.360
REMARK  5 active torsions:
REMARK  status: ('A' for Active; 'I' for Inactive)
REMARK    1  A    between atoms: C2_2  and  C3_3 
REMARK    2  A    between atoms: C3_3  and  N1_5 
REMARK    3  A    between atoms: N1_5  and  C5_6 
REMARK    4  A    between atoms: C12_14  and  N3_15 
REMARK    5  A    between atoms: N3_15  and  C13_16 
ROOT
HETATM    1  C5  UNL     1      27.105   7.667  49.068  1.00  0.00     0.029 A 
HETATM    2  C6  UNL     1      27.630   6.572  48.432  1.00  0.00     0.032 A 
HETATM    3  C7  UNL     1      27.115   5.310  48.599  1.00  0.00     0.040 A 
HETATM    4  C8  UNL     1      26.027   5.130  49.435  1.00  0.00     0.086 A 
HETATM    5  C9  UNL     1      25.490   6.243  50.083  1.00  0.00    -0.005 A 
HETATM    6  C10 UNL     1      26.031   7.495  49.895  1.00  0.00     0.040 A 
HETATM    7  C11 UNL     1      24.338   6.298  51.042  1.00  0.00     0.160 C 
HETATM    8  N2  UNL     1      23.241   5.599  50.490  1.00  0.00    -0.367 N 
HETATM    9  C12 UNL     1      23.272   4.153  50.559  1.00  0.00     0.272 A 
HETATM   10  N4  UNL     1      21.924   3.740  50.225  1.00  0.00    -0.223 NA
HETATM   11  C19 UNL     1      21.959   3.032  49.171  1.00  0.00     0.234 A 
HETATM   12  N5  UNL     1      23.303   2.881  48.669  1.00  0.00    -0.216 NA
HETATM   13  C20 UNL     1      24.085   3.550  49.497  1.00  0.00     0.221 A 
HETATM   14  O1  UNL     1      25.477   3.833  49.620  1.00  0.00    -0.290 OA
HETATM   15  H12 UNL     1      22.843   5.970  49.629  1.00  0.00     0.158 HD
ENDROOT
BRANCH   9  16
HETATM   16  N3  UNL     1      23.517   3.674  51.883  1.00  0.00    -0.338 N 
HETATM   17  H13 UNL     1      23.295   4.405  52.625  1.00  0.00     0.164 HD
BRANCH  16  18
HETATM   18  C13 UNL     1      23.946   2.487  52.498  1.00  0.00     0.033 A 
HETATM   19  C14 UNL     1      25.207   2.392  53.055  1.00  0.00     0.032 A 
HETATM   20  C15 UNL     1      25.711   1.272  53.684  1.00  0.00     0.046 A 
HETATM   21  C16 UNL     1      24.913   0.178  53.766  1.00  0.00     0.138 A 
HETATM   22  F1  UNL     1      25.220  -1.008  54.335  1.00  0.00    -0.204 F 
HETATM   23  C17 UNL     1      23.645   0.229  53.223  1.00  0.00     0.074 A 
HETATM   24 CL1  UNL     1      22.540  -1.143  53.286  1.00  0.00    -0.081 Cl
HETATM   25  C18 UNL     1      23.174   1.357  52.605  1.00  0.00     0.056 A 
ENDBRANCH  16  18
ENDBRANCH   9  16
BRANCH   1  26
HETATM   26  N1  UNL     1      27.636   9.005  48.901  1.00  0.00    -0.374 N 
HETATM   27  H6  UNL     1      26.891   9.547  49.440  1.00  0.00     0.161 HD
BRANCH  26  28
HETATM   28  C3  UNL     1      28.870   9.349  48.172  1.00  0.00     0.076 C 
HETATM   29  C4  UNL     1      27.998   9.438  47.228  1.00  0.00     0.041 C 
BRANCH  28  30
HETATM   30  C2  UNL     1      29.561   9.173  49.414  1.00  0.00    -0.004 C 
HETATM   31  C1  UNL     1      30.719   8.671  49.063  1.00  0.00     0.009 C 
ENDBRANCH  28  30
ENDBRANCH  26  28
ENDBRANCH   1  26
TORSDOF 5
ENDMDL
MODEL 7
REMARK VINA RESULT:      -7.8      5.874      7.959
REMARK  5 active torsions:
REMARK  status: ('A' for Active; 'I' for Inactive)
REMARK    1  A    between atoms: C2_2  and  C3_3 
REMARK    2  A    between atoms: C3_3  and  N1_5 
REMARK    3  A    between atoms: N1_5  and  C5_6 
REMARK    4  A    between atoms: C12_14  and  N3_15 
REMARK    5  A    between atoms: N3_15  and  C13_16 
ROOT
HETATM    1  C5  UNL     1      25.272   0.208  52.782  1.00  0.00     0.029 A 
HETATM    2  C6  UNL     1      24.066   0.544  53.341  1.00  0.00     0.032 A 
HETATM    3  C7  UNL     1      23.421   1.719  53.041  1.00  0.00     0.040 A 
HETATM    4  C8  UNL     1      24.001   2.597  52.144  1.00  0.00     0.086 A 
HETATM    5  C9  UNL     1      25.229   2.259  51.573  1.00  0.00    -0.005 A 
HETATM    6  C10 UNL     1      25.850   1.073  51.896  1.00  0.00     0.040 A 
HETATM    7  C11 UNL     1      26.055   3.047  50.601  1.00  0.00     0.160 C 
HETATM    8  N2  UNL     1      25.234   3.477  49.535  1.00  0.00    -0.367 N 
HETATM    9  C12 UNL     1      24.373   4.616  49.778  1.00  0.00     0.272 A 
HETATM   10  N4  UNL     1      23.912   5.015  48.464  1.00  0.00    -0.223 NA
HETATM   11  C19 UNL     1      22.647   4.905  48.420  1.00  0.00     0.234 A 
HETATM   12  N5  UNL     1      22.106   4.427  49.669  1.00  0.00    -0.216 NA
HETATM   13  C20 UNL     1      23.135   4.255  50.478  1.00  0.00     0.221 A 
HETATM   14  O1  UNL     1      23.350   3.817  51.818  1.00  0.00    -0.290 OA
HETATM   15  H12 UNL     1      24.818   2.754  48.952  1.00  0.00     0.158 HD
ENDROOT
BRANCH   9  16
HETATM   16  N3  UNL     1      25.086   5.737  50.305  1.00  0.00    -0.338 N 
HETATM   17  H13 UNL     1      24.877   5.900  51.337  1.00  0.00     0.164 HD
BRANCH  16  18
HETATM   18  C13 UNL     1      26.020   6.684  49.854  1.00  0.00     0.033 A 
HETATM   19  C14 UNL     1      26.053   7.958  50.390  1.00  0.00     0.032 A 
HETATM   20  C15 UNL     1      26.938   8.949  50.014  1.00  0.00     0.046 A 
HETATM   21  C16 UNL     1      27.844   8.658  49.048  1.00  0.00     0.138 A 
HETATM   22  F1  UNL     1      28.785   9.485  48.544  1.00  0.00    -0.204 F 
HETATM   23  C17 UNL     1      27.846   7.397  48.486  1.00  0.00     0.074 A 
HETATM   24 CL1  UNL     1      28.989   6.930  47.228  1.00  0.00    -0.081 Cl
HETATM   25  C18 UNL     1      26.955   6.434  48.881  1.00  0.00     0.056 A 
ENDBRANCH  16  18
ENDBRANCH   9  16
BRANCH   1  26
HETATM   26  N1  UNL     1      25.964  -1.028  53.086  1.00  0.00    -0.374 N 
HETATM   27  H6  UNL     1      25.119  -1.640  53.312  1.00  0.00     0.161 HD
BRANCH  26  28
HETATM   28  C3  UNL     1      27.424  -1.222  53.042  1.00  0.00     0.076 C 
HETATM   29  C4  UNL     1      27.035  -2.126  52.211  1.00  0.00     0.041 C 
BRANCH  28  30
HETATM   30  C2  UNL     1      27.518  -0.150  53.987  1.00  0.00    -0.004 C 
HETATM   31  C1  UNL     1      28.784  -0.138  54.327  1.00  0.00     0.009 C 
ENDBRANCH  28  30
ENDBRANCH  26  28
ENDBRANCH   1  26
TORSDOF 5
ENDMDL
MODEL 8
REMARK VINA RESULT:      -7.8      4.455      6.000
REMARK  5 active torsions:
REMARK  status: ('A' for Active; 'I' for Inactive)
REMARK    1  A    between atoms: C2_2  and  C3_3 
REMARK    2  A    between atoms: C3_3  and  N1_5 
REMARK    3  A    between atoms: N1_5  and  C5_6 
REMARK    4  A    between atoms: C12_14  and  N3_15 
REMARK    5  A    between atoms: N3_15  and  C13_16 
ROOT
HETATM    1  C5  UNL     1      26.055   5.571  49.689  1.00  0.00     0.029 A 
HETATM    2  C6  UNL     1      26.524   4.362  49.246  1.00  0.00     0.032 A 
HETATM    3  C7  UNL     1      25.838   3.189  49.452  1.00  0.00     0.040 A 
HETATM    4  C8  UNL     1      24.631   3.223  50.127  1.00  0.00     0.086 A 
HETATM    5  C9  UNL     1      24.151   4.453  50.579  1.00  0.00    -0.005 A 
HETATM    6  C10 UNL     1      24.863   5.610  50.356  1.00  0.00     0.040 A 
HETATM    7  C11 UNL     1      22.892   4.739  51.343  1.00  0.00     0.160 C 
HETATM    8  N2  UNL     1      21.805   4.107  50.700  1.00  0.00    -0.367 N 
HETATM    9  C12 UNL     1      21.647   2.683  50.909  1.00  0.00     0.272 A 
HETATM   10  N4  UNL     1      20.318   2.384  50.416  1.00  0.00    -0.223 NA
HETATM   11  C19 UNL     1      20.411   1.563  49.451  1.00  0.00     0.234 A 
HETATM   12  N5  UNL     1      21.783   1.212  49.175  1.00  0.00    -0.216 NA
HETATM   13  C20 UNL     1      22.519   1.880  50.044  1.00  0.00     0.221 A 
HETATM   14  O1  UNL     1      23.905   2.022  50.348  1.00  0.00    -0.290 OA
HETATM   15  H12 UNL     1      21.579   4.420  49.758  1.00  0.00     0.158 HD
ENDROOT
BRANCH   9  16
HETATM   16  N3  UNL     1      21.645   2.330  52.294  1.00  0.00    -0.338 N 
HETATM   17  H13 UNL     1      21.334   3.137  52.916  1.00  0.00     0.164 HD
BRANCH  16  18
HETATM   18  C13 UNL     1      21.911   1.198  53.082  1.00  0.00     0.033 A 
HETATM   19  C14 UNL     1      20.881   0.458  53.630  1.00  0.00     0.032 A 
HETATM   20  C15 UNL     1      21.046  -0.670  54.408  1.00  0.00     0.046 A 
HETATM   21  C16 UNL     1      22.313  -1.088  54.658  1.00  0.00     0.138 A 
HETATM   22  F1  UNL     1      22.682  -2.159  55.393  1.00  0.00    -0.204 F 
HETATM   23  C17 UNL     1      23.371  -0.378  54.129  1.00  0.00     0.074 A 
HETATM   24 CL1  UNL     1      25.048  -0.850  54.398  1.00  0.00    -0.081 Cl
HETATM   25  C18 UNL     1      23.174   0.738  53.360  1.00  0.00     0.056 A 
ENDBRANCH  16  18
ENDBRANCH   9  16
BRANCH   1  26
HETATM   26  N1  UNL     1      26.765   6.816  49.478  1.00  0.00    -0.374 N 
HETATM   27  H6  UNL     1      26.873   7.120  50.496  1.00  0.00     0.161 HD
BRANCH  26  28
HETATM   28  C3  UNL     1      27.159   7.363  48.167  1.00  0.00     0.076 C 
HETATM   29  C4  UNL     1      26.032   7.958  48.349  1.00  0.00     0.041 C 
BRANCH  28  30
HETATM   30  C2  UNL     1      28.343   6.564  48.276  1.00  0.00    -0.004 C 
HETATM   31  C1  UNL     1      29.168   7.103  47.412  1.00  0.00     0.009 C 
ENDBRANCH  28  30
ENDBRANCH  26  28
ENDBRANCH   1  26
TORSDOF 5
ENDMDL
MODEL 9
REMARK VINA RESULT:      -7.8      2.982      4.662
REMARK  5 active torsions:
REMARK  status: ('A' for Active; 'I' for Inactive)
REMARK    1  A    between atoms: C2_2  and  C3_3 
REMARK    2  A    between atoms: C3_3  and  N1_5 
REMARK    3  A    between atoms: N1_5  and  C5_6 
REMARK    4  A    between atoms: C12_14  and  N3_15 
REMARK    5  A    between atoms: N3_15  and  C13_16 
ROOT
HETATM    1  C5  UNL     1      24.701  -0.842  54.178  1.00  0.00     0.029 A 
HETATM    2  C6  UNL     1      23.859  -1.253  55.179  1.00  0.00     0.032 A 
HETATM    3  C7  UNL     1      22.532  -0.896  55.214  1.00  0.00     0.040 A 
HETATM    4  C8  UNL     1      22.023  -0.096  54.206  1.00  0.00     0.086 A 
HETATM    5  C9  UNL     1      22.878   0.323  53.186  1.00  0.00    -0.005 A 
HETATM    6  C10 UNL     1      24.202  -0.053  53.181  1.00  0.00     0.040 A 
HETATM    7  C11 UNL     1      22.567   1.200  52.010  1.00  0.00     0.160 C 
HETATM    8  N2  UNL     1      21.400   0.724  51.371  1.00  0.00    -0.367 N 
HETATM    9  C12 UNL     1      20.129   1.043  51.987  1.00  0.00     0.272 A 
HETATM   10  N4  UNL     1      19.140   0.720  50.979  1.00  0.00    -0.223 NA
HETATM   11  C19 UNL     1      18.378  -0.193  51.426  1.00  0.00     0.234 A 
HETATM   12  N5  UNL     1      18.747  -0.594  52.762  1.00  0.00    -0.216 NA
HETATM   13  C20 UNL     1      19.791   0.143  53.095  1.00  0.00     0.221 A 
HETATM   14  O1  UNL     1      20.654   0.283  54.222  1.00  0.00    -0.290 OA
HETATM   15  H12 UNL     1      21.445  -0.206  50.961  1.00  0.00     0.158 HD
ENDROOT
BRANCH   9  16
HETATM   16  N3  UNL     1      19.985   2.441  52.251  1.00  0.00    -0.338 N 
HETATM   17  H13 UNL     1      19.546   2.629  53.202  1.00  0.00     0.164 HD
BRANCH  16  18
HETATM   18  C13 UNL     1      20.287   3.657  51.617  1.00  0.00     0.033 A 
HETATM   19  C14 UNL     1      21.408   4.383  51.974  1.00  0.00     0.032 A 
HETATM   20  C15 UNL     1      21.787   5.581  51.403  1.00  0.00     0.046 A 
HETATM   21  C16 UNL     1      21.006   6.090  50.418  1.00  0.00     0.138 A 
HETATM   22  F1  UNL     1      21.203   7.242  49.741  1.00  0.00    -0.204 F 
HETATM   23  C17 UNL     1      19.877   5.397  50.030  1.00  0.00     0.074 A 
HETATM   24 CL1  UNL     1      18.807   5.981  48.757  1.00  0.00    -0.081 Cl
HETATM   25  C18 UNL     1      19.527   4.209  50.616  1.00  0.00     0.056 A 
ENDBRANCH  16  18
ENDBRANCH   9  16
BRANCH   1  26
HETATM   26  N1  UNL     1      26.101  -1.213  54.126  1.00  0.00    -0.374 N 
HETATM   27  H6  UNL     1      26.058  -2.105  54.710  1.00  0.00     0.161 HD
BRANCH  26  28
HETATM   28  C3  UNL     1      27.156  -0.466  53.418  1.00  0.00     0.076 C 
HETATM   29  C4  UNL     1      26.833  -1.336  52.525  1.00  0.00     0.041 C 
BRANCH  28  30
HETATM   30  C2  UNL     1      27.264   0.345  54.594  1.00  0.00    -0.004 C 
HETATM   31  C1  UNL     1      28.551   0.374  54.840  1.00  0.00     0.009 C 
ENDBRANCH  28  30
ENDBRANCH  26  28
ENDBRANCH   1  26
TORSDOF 5
ENDMDL
