MODEL 1
REMARK VINA RESULT:      -8.8      0.000      0.000
REMARK  8 active torsions:
REMARK  status: ('A' for Active; 'I' for Inactive)
REMARK    1  A    between atoms: N1_7  and  C6_8 
REMARK    2  A    between atoms: C6_8  and  C7_9 
REMARK    3  A    between atoms: C7_9  and  C8_10 
REMARK    4  A    between atoms: C8_10  and  O2_11 
REMARK    5  A    between atoms: O2_11  and  C9_12 
REMARK    6  A    between atoms: C10_13  and  O3_14 
REMARK    7  A    between atoms: C15_21  and  N4_22 
REMARK    8  A    between atoms: N4_22  and  C16_23 
ROOT
HETATM    1  C9  UNL     1      21.963   0.350  51.989  1.00  0.00     0.217 A 
HETATM    2  C10 UNL     1      20.521   0.076  52.390  1.00  0.00     0.081 A 
HETATM    3  C12 UNL     1      20.382  -0.517  53.563  1.00  0.00     0.067 A 
HETATM    4  C13 UNL     1      21.751  -0.688  54.029  1.00  0.00     0.073 A 
HETATM    5  N2  UNL     1      22.045  -1.284  55.227  1.00  0.00    -0.241 NA
HETATM    6  C14 UNL     1      23.330  -1.429  55.602  1.00  0.00     0.235 A 
HETATM    7  N3  UNL     1      24.225  -0.966  54.744  1.00  0.00    -0.224 NA
HETATM    8  C15 UNL     1      23.982  -0.380  53.566  1.00  0.00     0.141 A 
HETATM    9  C22 UNL     1      22.690  -0.200  53.127  1.00  0.00     0.052 A 
ENDROOT
BRANCH   1  10
HETATM   10  O2  UNL     1      22.109   1.714  51.772  1.00  0.00    -0.374 OA
BRANCH  10  11
HETATM   11  C8  UNL     1      22.604   2.083  50.553  1.00  0.00     0.170 C 
BRANCH  11  12
HETATM   12  C7  UNL     1      23.898   2.847  50.664  1.00  0.00     0.046 C 
BRANCH  12  13
HETATM   13  C6  UNL     1      24.469   3.380  49.408  1.00  0.00     0.124 C 
BRANCH  13  14
HETATM   14  N1  UNL     1      24.955   4.738  49.459  1.00  0.00    -0.383 N 
HETATM   15  C2  UNL     1      26.220   5.317  49.163  1.00  0.00     0.008 C 
HETATM   16  C1  UNL     1      27.161   4.380  49.027  1.00  0.00     0.060 C 
HETATM   17  C3  UNL     1      26.154   6.807  49.081  1.00  0.00     0.219 C 
HETATM   18  O1  UNL     1      25.599   7.405  50.194  1.00  0.00    -0.384 OA
HETATM   19  C4  UNL     1      24.724   6.595  50.883  1.00  0.00     0.187 C 
HETATM   20  C5  UNL     1      23.934   5.700  49.918  1.00  0.00     0.148 C 
ENDBRANCH  13  14
ENDBRANCH  12  13
ENDBRANCH  11  12
ENDBRANCH  10  11
ENDBRANCH   1  10
BRANCH   2  21
HETATM   21  O3  UNL     1      19.641   0.531  51.389  1.00  0.00    -0.357 OA
HETATM   22  C11 UNL     1      18.358  -0.022  51.188  1.00  0.00     0.209 C 
ENDBRANCH   2  21
BRANCH   8  23
HETATM   23  N4  UNL     1      25.057   0.036  52.737  1.00  0.00    -0.340 N 
HETATM   24  H21 UNL     1      24.853   0.572  51.839  1.00  0.00     0.167 HD
BRANCH  23  25
HETATM   25  C16 UNL     1      26.410  -0.198  52.996  1.00  0.00     0.035 A 
HETATM   26  C17 UNL     1      27.101  -1.374  52.790  1.00  0.00     0.032 A 
HETATM   27  C18 UNL     1      28.445  -1.545  53.043  1.00  0.00     0.046 A 
HETATM   28  C19 UNL     1      29.165  -0.477  53.536  1.00  0.00     0.138 A 
HETATM   29  F1  UNL     1      30.491  -0.625  53.790  1.00  0.00    -0.204 F 
HETATM   30  C20 UNL     1      28.577   0.763  53.785  1.00  0.00     0.074 A 
HETATM   31 CL1  UNL     1      29.440   2.137  54.407  1.00  0.00    -0.081 Cl
HETATM   32  C21 UNL     1      27.242   0.804  53.495  1.00  0.00     0.056 A 
ENDBRANCH  23  25
ENDBRANCH   8  23
TORSDOF 8
ENDMDL
MODEL 2
REMARK VINA RESULT:      -8.5      1.069      1.408
REMARK  8 active torsions:
REMARK  status: ('A' for Active; 'I' for Inactive)
REMARK    1  A    between atoms: N1_7  and  C6_8 
REMARK    2  A    between atoms: C6_8  and  C7_9 
REMARK    3  A    between atoms: C7_9  and  C8_10 
REMARK    4  A    between atoms: C8_10  and  O2_11 
REMARK    5  A    between atoms: O2_11  and  C9_12 
REMARK    6  A    between atoms: C10_13  and  O3_14 
REMARK    7  A    between atoms: C15_21  and  N4_22 
REMARK    8  A    between atoms: N4_22  and  C16_23 
ROOT
HETATM    1  C9  UNL     1      21.565   0.492  52.052  1.00  0.00     0.217 A 
HETATM    2  C10 UNL     1      20.164   0.137  52.529  1.00  0.00     0.081 A 
HETATM    3  C12 UNL     1      20.127  -0.535  53.667  1.00  0.00     0.067 A 
HETATM    4  C13 UNL     1      21.530  -0.681  54.028  1.00  0.00     0.073 A 
HETATM    5  N2  UNL     1      21.927  -1.341  55.161  1.00  0.00    -0.241 NA
HETATM    6  C14 UNL     1      23.239  -1.460  55.439  1.00  0.00     0.235 A 
HETATM    7  N3  UNL     1      24.055  -0.908  54.556  1.00  0.00    -0.224 NA
HETATM    8  C15 UNL     1      23.711  -0.257  53.439  1.00  0.00     0.141 A 
HETATM    9  C22 UNL     1      22.387  -0.100  53.101  1.00  0.00     0.052 A 
ENDROOT
BRANCH   1  10
HETATM   10  O2  UNL     1      21.648   1.873  51.917  1.00  0.00    -0.374 OA
BRANCH  10  11
HETATM   11  C8  UNL     1      21.808   2.347  50.646  1.00  0.00     0.170 C 
BRANCH  11  12
HETATM   12  C7  UNL     1      23.259   2.497  50.265  1.00  0.00     0.046 C 
BRANCH  12  13
HETATM   13  C6  UNL     1      24.070   3.428  51.078  1.00  0.00     0.124 C 
BRANCH  13  14
HETATM   14  N1  UNL     1      24.674   4.529  50.367  1.00  0.00    -0.383 N 
HETATM   15  C2  UNL     1      25.868   4.639  49.601  1.00  0.00     0.008 C 
HETATM   16  C1  UNL     1      26.654   3.574  49.775  1.00  0.00     0.060 C 
HETATM   17  C3  UNL     1      25.919   5.907  48.812  1.00  0.00     0.219 C 
HETATM   18  O1  UNL     1      25.724   7.044  49.568  1.00  0.00    -0.384 OA
HETATM   19  C4  UNL     1      24.986   6.835  50.711  1.00  0.00     0.187 C 
HETATM   20  C5  UNL     1      23.897   5.779  50.471  1.00  0.00     0.148 C 
ENDBRANCH  13  14
ENDBRANCH  12  13
ENDBRANCH  11  12
ENDBRANCH  10  11
ENDBRANCH   1  10
BRANCH   2  21
HETATM   21  O3  UNL     1      19.202   0.621  51.622  1.00  0.00    -0.357 OA
HETATM   22  C11 UNL     1      18.112  -0.157  51.175  1.00  0.00     0.209 C 
ENDBRANCH   2  21
BRANCH   8  23
HETATM   23  N4  UNL     1      24.711   0.252  52.570  1.00  0.00    -0.340 N 
HETATM   24  H21 UNL     1      24.486   0.406  51.540  1.00  0.00     0.167 HD
BRANCH  23  25
HETATM   25  C16 UNL     1      26.014   0.587  52.950  1.00  0.00     0.035 A 
HETATM   26  C17 UNL     1      26.478   1.836  53.307  1.00  0.00     0.032 A 
HETATM   27  C18 UNL     1      27.771   2.107  53.697  1.00  0.00     0.046 A 
HETATM   28  C19 UNL     1      28.679   1.071  53.738  1.00  0.00     0.138 A 
HETATM   29  F1  UNL     1      29.959   1.318  54.120  1.00  0.00    -0.204 F 
HETATM   30  C20 UNL     1      28.330  -0.236  53.400  1.00  0.00     0.074 A 
HETATM   31 CL1  UNL     1      29.437  -1.574  53.434  1.00  0.00    -0.081 Cl
HETATM   32  C21 UNL     1      27.021  -0.375  53.031  1.00  0.00     0.056 A 
ENDBRANCH  23  25
ENDBRANCH   8  23
TORSDOF 8
ENDMDL
MODEL 3
REMARK VINA RESULT:      -8.4      2.106      6.437
REMARK  8 active torsions:
REMARK  status: ('A' for Active; 'I' for Inactive)
REMARK    1  A    between atoms: N1_7  and  C6_8 
REMARK    2  A    between atoms: C6_8  and  C7_9 
REMARK    3  A    between atoms: C7_9  and  C8_10 
REMARK    4  A    between atoms: C8_10  and  O2_11 
REMARK    5  A    between atoms: O2_11  and  C9_12 
REMARK    6  A    between atoms: C10_13  and  O3_14 
REMARK    7  A    between atoms: C15_21  and  N4_22 
REMARK    8  A    between atoms: N4_22  and  C16_23 
ROOT
HETATM    1  C9  UNL     1      23.537   4.709  51.381  1.00  0.00     0.217 A 
HETATM    2  C10 UNL     1      23.039   5.710  50.350  1.00  0.00     0.081 A 
HETATM    3  C12 UNL     1      23.862   5.904  49.333  1.00  0.00     0.067 A 
HETATM    4  C13 UNL     1      24.990   5.032  49.629  1.00  0.00     0.073 A 
HETATM    5  N2  UNL     1      26.082   4.947  48.807  1.00  0.00    -0.241 NA
HETATM    6  C14 UNL     1      27.104   4.135  49.136  1.00  0.00     0.235 A 
HETATM    7  N3  UNL     1      26.953   3.469  50.270  1.00  0.00    -0.224 NA
HETATM    8  C15 UNL     1      25.906   3.523  51.101  1.00  0.00     0.141 A 
HETATM    9  C22 UNL     1      24.830   4.332  50.820  1.00  0.00     0.052 A 
ENDROOT
BRANCH   1  10
HETATM   10  O2  UNL     1      22.600   3.689  51.495  1.00  0.00    -0.374 OA
BRANCH  10  11
HETATM   11  C8  UNL     1      22.738   2.642  50.628  1.00  0.00     0.170 C 
BRANCH  11  12
HETATM   12  C7  UNL     1      22.741   1.309  51.331  1.00  0.00     0.046 C 
BRANCH  12  13
HETATM   13  C6  UNL     1      22.875   1.331  52.803  1.00  0.00     0.124 C 
BRANCH  13  14
HETATM   14  N1  UNL     1      22.410   0.155  53.500  1.00  0.00    -0.383 N 
HETATM   15  C2  UNL     1      21.121  -0.249  53.948  1.00  0.00     0.008 C 
HETATM   16  C1  UNL     1      20.250   0.761  53.889  1.00  0.00     0.060 C 
HETATM   17  C3  UNL     1      21.090  -1.686  54.356  1.00  0.00     0.219 C 
HETATM   18  O1  UNL     1      22.052  -2.024  55.286  1.00  0.00    -0.384 OA
HETATM   19  C4  UNL     1      23.169  -1.220  55.251  1.00  0.00     0.187 C 
HETATM   20  C5  UNL     1      23.492  -0.799  53.810  1.00  0.00     0.148 C 
ENDBRANCH  13  14
ENDBRANCH  12  13
ENDBRANCH  11  12
ENDBRANCH  10  11
ENDBRANCH   1  10
BRANCH   2  21
HETATM   21  O3  UNL     1      21.779   6.214  50.727  1.00  0.00    -0.357 OA
HETATM   22  C11 UNL     1      21.314   7.486  50.332  1.00  0.00     0.209 C 
ENDBRANCH   2  21
BRANCH   8  23
HETATM   23  N4  UNL     1      25.907   2.770  52.305  1.00  0.00    -0.340 N 
HETATM   24  H21 UNL     1      25.124   2.907  53.013  1.00  0.00     0.167 HD
BRANCH  23  25
HETATM   25  C16 UNL     1      26.874   1.826  52.663  1.00  0.00     0.035 A 
HETATM   26  C17 UNL     1      28.097   2.074  53.250  1.00  0.00     0.032 A 
HETATM   27  C18 UNL     1      29.006   1.101  53.604  1.00  0.00     0.046 A 
HETATM   28  C19 UNL     1      28.688  -0.218  53.361  1.00  0.00     0.138 A 
HETATM   29  F1  UNL     1      29.572  -1.192  53.703  1.00  0.00    -0.204 F 
HETATM   30  C20 UNL     1      27.483  -0.596  52.772  1.00  0.00     0.074 A 
HETATM   31 CL1  UNL     1      27.037  -2.242  52.444  1.00  0.00    -0.081 Cl
HETATM   32  C21 UNL     1      26.668   0.460  52.468  1.00  0.00     0.056 A 
ENDBRANCH  23  25
ENDBRANCH   8  23
TORSDOF 8
ENDMDL
MODEL 4
REMARK VINA RESULT:      -8.1      3.592      5.702
REMARK  8 active torsions:
REMARK  status: ('A' for Active; 'I' for Inactive)
REMARK    1  A    between atoms: N1_7  and  C6_8 
REMARK    2  A    between atoms: C6_8  and  C7_9 
REMARK    3  A    between atoms: C7_9  and  C8_10 
REMARK    4  A    between atoms: C8_10  and  O2_11 
REMARK    5  A    between atoms: O2_11  and  C9_12 
REMARK    6  A    between atoms: C10_13  and  O3_14 
REMARK    7  A    between atoms: C15_21  and  N4_22 
REMARK    8  A    between atoms: N4_22  and  C16_23 
ROOT
HETATM    1  C9  UNL     1      24.669   0.597  52.149  1.00  0.00     0.217 A 
HETATM    2  C10 UNL     1      24.482  -0.133  53.471  1.00  0.00     0.081 A 
HETATM    3  C12 UNL     1      25.448   0.069  54.350  1.00  0.00     0.067 A 
HETATM    4  C13 UNL     1      26.367   0.961  53.656  1.00  0.00     0.073 A 
HETATM    5  N2  UNL     1      27.525   1.409  54.234  1.00  0.00    -0.241 NA
HETATM    6  C14 UNL     1      28.346   2.220  53.541  1.00  0.00     0.235 A 
HETATM    7  N3  UNL     1      27.942   2.520  52.317  1.00  0.00    -0.224 NA
HETATM    8  C15 UNL     1      26.822   2.105  51.715  1.00  0.00     0.141 A 
HETATM    9  C22 UNL     1      25.941   1.276  52.371  1.00  0.00     0.052 A 
ENDROOT
BRANCH   1  10
HETATM   10  O2  UNL     1      23.568   1.418  51.938  1.00  0.00    -0.374 OA
BRANCH  10  11
HETATM   11  C8  UNL     1      23.533   2.579  52.656  1.00  0.00     0.170 C 
BRANCH  11  12
HETATM   12  C7  UNL     1      22.485   3.537  52.150  1.00  0.00     0.046 C 
BRANCH  12  13
HETATM   13  C6  UNL     1      21.305   2.946  51.484  1.00  0.00     0.124 C 
BRANCH  13  14
HETATM   14  N1  UNL     1      21.253   3.081  50.048  1.00  0.00    -0.383 N 
HETATM   15  C2  UNL     1      21.072   2.136  49.000  1.00  0.00     0.008 C 
HETATM   16  C1  UNL     1      21.194   0.885  49.450  1.00  0.00     0.060 C 
HETATM   17  C3  UNL     1      20.794   2.794  47.688  1.00  0.00     0.219 C 
HETATM   18  O1  UNL     1      21.729   3.741  47.327  1.00  0.00    -0.384 OA
HETATM   19  C4  UNL     1      22.382   4.316  48.395  1.00  0.00     0.187 C 
HETATM   20  C5  UNL     1      21.434   4.473  49.592  1.00  0.00     0.148 C 
ENDBRANCH  13  14
ENDBRANCH  12  13
ENDBRANCH  11  12
ENDBRANCH  10  11
ENDBRANCH   1  10
BRANCH   2  21
HETATM   21  O3  UNL     1      23.287  -0.878  53.452  1.00  0.00    -0.357 OA
HETATM   22  C11 UNL     1      22.503  -1.096  54.605  1.00  0.00     0.209 C 
ENDBRANCH   2  21
BRANCH   8  23
HETATM   23  N4  UNL     1      26.543   2.488  50.377  1.00  0.00    -0.340 N 
HETATM   24  H21 UNL     1      26.368   1.740  49.640  1.00  0.00     0.167 HD
BRANCH  23  25
HETATM   25  C16 UNL     1      26.469   3.806  49.916  1.00  0.00     0.035 A 
HETATM   26  C17 UNL     1      27.288   4.403  48.980  1.00  0.00     0.032 A 
HETATM   27  C18 UNL     1      27.158   5.703  48.544  1.00  0.00     0.046 A 
HETATM   28  C19 UNL     1      26.144   6.476  49.067  1.00  0.00     0.138 A 
HETATM   29  F1  UNL     1      25.998   7.760  48.649  1.00  0.00    -0.204 F 
HETATM   30  C20 UNL     1      25.251   5.985  50.020  1.00  0.00     0.074 A 
HETATM   31 CL1  UNL     1      23.960   6.919  50.710  1.00  0.00    -0.081 Cl
HETATM   32  C21 UNL     1      25.486   4.685  50.370  1.00  0.00     0.056 A 
ENDBRANCH  23  25
ENDBRANCH   8  23
TORSDOF 8
ENDMDL
MODEL 5
REMARK VINA RESULT:      -8.0      2.074      6.579
REMARK  8 active torsions:
REMARK  status: ('A' for Active; 'I' for Inactive)
REMARK    1  A    between atoms: N1_7  and  C6_8 
REMARK    2  A    between atoms: C6_8  and  C7_9 
REMARK    3  A    between atoms: C7_9  and  C8_10 
REMARK    4  A    between atoms: C8_10  and  O2_11 
REMARK    5  A    between atoms: O2_11  and  C9_12 
REMARK    6  A    between atoms: C10_13  and  O3_14 
REMARK    7  A    between atoms: C15_21  and  N4_22 
REMARK    8  A    between atoms: N4_22  and  C16_23 
ROOT
HETATM    1  C9  UNL     1      23.761   4.628  50.128  1.00  0.00     0.217 A 
HETATM    2  C10 UNL     1      23.462   6.056  49.698  1.00  0.00     0.081 A 
HETATM    3  C12 UNL     1      24.472   6.673  49.108  1.00  0.00     0.067 A 
HETATM    4  C13 UNL     1      25.536   5.678  49.113  1.00  0.00     0.073 A 
HETATM    5  N2  UNL     1      26.776   5.934  48.591  1.00  0.00    -0.241 NA
HETATM    6  C14 UNL     1      27.728   4.983  48.636  1.00  0.00     0.235 A 
HETATM    7  N3  UNL     1      27.362   3.845  49.204  1.00  0.00    -0.224 NA
HETATM    8  C15 UNL     1      26.166   3.554  49.726  1.00  0.00     0.141 A 
HETATM    9  C22 UNL     1      25.151   4.483  49.709  1.00  0.00     0.052 A 
ENDROOT
BRANCH   1  10
HETATM   10  O2  UNL     1      22.847   3.781  49.515  1.00  0.00    -0.374 OA
BRANCH  10  11
HETATM   11  C8  UNL     1      22.003   3.098  50.345  1.00  0.00     0.170 C 
BRANCH  11  12
HETATM   12  C7  UNL     1      22.663   1.899  50.976  1.00  0.00     0.046 C 
BRANCH  12  13
HETATM   13  C6  UNL     1      22.808   1.914  52.447  1.00  0.00     0.124 C 
BRANCH  13  14
HETATM   14  N1  UNL     1      22.068   0.906  53.167  1.00  0.00    -0.383 N 
HETATM   15  C2  UNL     1      22.468  -0.274  53.854  1.00  0.00     0.008 C 
HETATM   16  C1  UNL     1      23.736  -0.588  53.576  1.00  0.00     0.060 C 
HETATM   17  C3  UNL     1      21.372  -0.837  54.698  1.00  0.00     0.219 C 
HETATM   18  O1  UNL     1      20.194  -1.055  54.013  1.00  0.00    -0.384 OA
HETATM   19  C4  UNL     1      20.030  -0.241  52.914  1.00  0.00     0.187 C 
HETATM   20  C5  UNL     1      20.613   1.154  53.177  1.00  0.00     0.148 C 
ENDBRANCH  13  14
ENDBRANCH  12  13
ENDBRANCH  11  12
ENDBRANCH  10  11
ENDBRANCH   1  10
BRANCH   2  21
HETATM   21  O3  UNL     1      22.140   6.402  50.036  1.00  0.00    -0.357 OA
HETATM   22  C11 UNL     1      21.780   7.681  50.509  1.00  0.00     0.209 C 
ENDBRANCH   2  21
BRANCH   8  23
HETATM   23  N4  UNL     1      25.936   2.292  50.335  1.00  0.00    -0.340 N 
HETATM   24  H21 UNL     1      25.189   1.644  49.940  1.00  0.00     0.167 HD
BRANCH  23  25
HETATM   25  C16 UNL     1      26.625   1.798  51.446  1.00  0.00     0.035 A 
HETATM   26  C17 UNL     1      27.259   2.536  52.423  1.00  0.00     0.032 A 
HETATM   27  C18 UNL     1      27.907   1.998  53.513  1.00  0.00     0.046 A 
HETATM   28  C19 UNL     1      27.933   0.626  53.654  1.00  0.00     0.138 A 
HETATM   29  F1  UNL     1      28.566   0.076  54.722  1.00  0.00    -0.204 F 
HETATM   30  C20 UNL     1      27.328  -0.227  52.732  1.00  0.00     0.074 A 
HETATM   31 CL1  UNL     1      27.335  -1.958  52.863  1.00  0.00    -0.081 Cl
HETATM   32  C21 UNL     1      26.720   0.429  51.697  1.00  0.00     0.056 A 
ENDBRANCH  23  25
ENDBRANCH   8  23
TORSDOF 8
ENDMDL
MODEL 6
REMARK VINA RESULT:      -8.0      3.473      7.525
REMARK  8 active torsions:
REMARK  status: ('A' for Active; 'I' for Inactive)
REMARK    1  A    between atoms: N1_7  and  C6_8 
REMARK    2  A    between atoms: C6_8  and  C7_9 
REMARK    3  A    between atoms: C7_9  and  C8_10 
REMARK    4  A    between atoms: C8_10  and  O2_11 
REMARK    5  A    between atoms: O2_11  and  C9_12 
REMARK    6  A    between atoms: C10_13  and  O3_14 
REMARK    7  A    between atoms: C15_21  and  N4_22 
REMARK    8  A    between atoms: N4_22  and  C16_23 
ROOT
HETATM    1  C9  UNL     1      24.306   3.587  49.487  1.00  0.00     0.217 A 
HETATM    2  C10 UNL     1      24.746   4.975  49.044  1.00  0.00     0.081 A 
HETATM    3  C12 UNL     1      23.849   5.630  48.327  1.00  0.00     0.067 A 
HETATM    4  C13 UNL     1      22.732   4.701  48.236  1.00  0.00     0.073 A 
HETATM    5  N2  UNL     1      21.584   5.005  47.554  1.00  0.00    -0.241 NA
HETATM    6  C14 UNL     1      20.587   4.102  47.489  1.00  0.00     0.235 A 
HETATM    7  N3  UNL     1      20.819   2.960  48.115  1.00  0.00    -0.224 NA
HETATM    8  C15 UNL     1      21.923   2.622  48.791  1.00  0.00     0.141 A 
HETATM    9  C22 UNL     1      22.976   3.502  48.895  1.00  0.00     0.052 A 
ENDROOT
BRANCH   1  10
HETATM   10  O2  UNL     1      24.363   3.528  50.874  1.00  0.00    -0.374 OA
BRANCH  10  11
HETATM   11  C8  UNL     1      25.259   2.644  51.405  1.00  0.00     0.170 C 
BRANCH  11  12
HETATM   12  C7  UNL     1      24.796   2.075  52.721  1.00  0.00     0.046 C 
BRANCH  12  13
HETATM   13  C6  UNL     1      25.734   2.173  53.859  1.00  0.00     0.124 C 
BRANCH  13  14
HETATM   14  N1  UNL     1      26.720   1.123  53.960  1.00  0.00    -0.383 N 
HETATM   15  C2  UNL     1      28.143   1.138  53.975  1.00  0.00     0.008 C 
HETATM   16  C1  UNL     1      28.617   2.332  53.609  1.00  0.00     0.060 C 
HETATM   17  C3  UNL     1      28.718  -0.174  54.396  1.00  0.00     0.219 C 
HETATM   18  O1  UNL     1      28.255  -1.248  53.665  1.00  0.00    -0.384 OA
HETATM   19  C4  UNL     1      27.007  -1.054  53.116  1.00  0.00     0.187 C 
HETATM   20  C5  UNL     1      26.122  -0.223  54.056  1.00  0.00     0.148 C 
ENDBRANCH  13  14
ENDBRANCH  12  13
ENDBRANCH  11  12
ENDBRANCH  10  11
ENDBRANCH   1  10
BRANCH   2  21
HETATM   21  O3  UNL     1      26.044   5.249  49.514  1.00  0.00    -0.357 OA
HETATM   22  C11 UNL     1      27.205   4.719  48.911  1.00  0.00     0.209 C 
ENDBRANCH   2  21
BRANCH   8  23
HETATM   23  N4  UNL     1      22.036   1.337  49.384  1.00  0.00    -0.340 N 
HETATM   24  H21 UNL     1      22.747   0.642  49.003  1.00  0.00     0.167 HD
BRANCH  23  25
HETATM   25  C16 UNL     1      21.275   0.879  50.463  1.00  0.00     0.035 A 
HETATM   26  C17 UNL     1      19.901   0.781  50.526  1.00  0.00     0.032 A 
HETATM   27  C18 UNL     1      19.200   0.299  51.610  1.00  0.00     0.046 A 
HETATM   28  C19 UNL     1      19.906  -0.118  52.719  1.00  0.00     0.138 A 
HETATM   29  F1  UNL     1      19.233  -0.596  53.798  1.00  0.00    -0.204 F 
HETATM   30  C20 UNL     1      21.298  -0.068  52.776  1.00  0.00     0.074 A 
HETATM   31 CL1  UNL     1      22.231  -0.579  54.149  1.00  0.00    -0.081 Cl
HETATM   32  C21 UNL     1      21.875   0.429  51.640  1.00  0.00     0.056 A 
ENDBRANCH  23  25
ENDBRANCH   8  23
TORSDOF 8
ENDMDL
MODEL 7
REMARK VINA RESULT:      -8.0      3.237      6.636
REMARK  8 active torsions:
REMARK  status: ('A' for Active; 'I' for Inactive)
REMARK    1  A    between atoms: N1_7  and  C6_8 
REMARK    2  A    between atoms: C6_8  and  C7_9 
REMARK    3  A    between atoms: C7_9  and  C8_10 
REMARK    4  A    between atoms: C8_10  and  O2_11 
REMARK    5  A    between atoms: O2_11  and  C9_12 
REMARK    6  A    between atoms: C10_13  and  O3_14 
REMARK    7  A    between atoms: C15_21  and  N4_22 
REMARK    8  A    between atoms: N4_22  and  C16_23 
ROOT
HETATM    1  C9  UNL     1      21.908   2.281  52.000  1.00  0.00     0.217 A 
HETATM    2  C10 UNL     1      20.891   1.148  51.977  1.00  0.00     0.081 A 
HETATM    3  C12 UNL     1      20.682   0.625  50.781  1.00  0.00     0.067 A 
HETATM    4  C13 UNL     1      21.557   1.394  49.908  1.00  0.00     0.073 A 
HETATM    5  N2  UNL     1      21.630   1.163  48.561  1.00  0.00    -0.241 NA
HETATM    6  C14 UNL     1      22.446   1.915  47.798  1.00  0.00     0.235 A 
HETATM    7  N3  UNL     1      23.128   2.844  48.447  1.00  0.00    -0.224 NA
HETATM    8  C15 UNL     1      23.087   3.103  49.758  1.00  0.00     0.141 A 
HETATM    9  C22 UNL     1      22.275   2.370  50.592  1.00  0.00     0.052 A 
ENDROOT
BRANCH   1  10
HETATM   10  O2  UNL     1      22.929   1.939  52.878  1.00  0.00    -0.374 OA
BRANCH  10  11
HETATM   11  C8  UNL     1      23.786   0.962  52.457  1.00  0.00     0.170 C 
BRANCH  11  12
HETATM   12  C7  UNL     1      25.227   1.296  52.745  1.00  0.00     0.046 C 
BRANCH  12  13
HETATM   13  C6  UNL     1      26.248   0.614  51.921  1.00  0.00     0.124 C 
BRANCH  13  14
HETATM   14  N1  UNL     1      27.389   0.088  52.632  1.00  0.00    -0.383 N 
HETATM   15  C2  UNL     1      27.852  -1.237  52.860  1.00  0.00     0.008 C 
HETATM   16  C1  UNL     1      26.923  -2.137  52.529  1.00  0.00     0.060 C 
HETATM   17  C3  UNL     1      29.243  -1.265  53.402  1.00  0.00     0.219 C 
HETATM   18  O1  UNL     1      29.420  -0.492  54.531  1.00  0.00    -0.384 OA
HETATM   19  C4  UNL     1      28.536   0.560  54.631  1.00  0.00     0.187 C 
HETATM   20  C5  UNL     1      28.223   1.141  53.245  1.00  0.00     0.148 C 
ENDBRANCH  13  14
ENDBRANCH  12  13
ENDBRANCH  11  12
ENDBRANCH  10  11
ENDBRANCH   1  10
BRANCH   2  21
HETATM   21  O3  UNL     1      20.394   0.912  53.273  1.00  0.00    -0.357 OA
HETATM   22  C11 UNL     1      20.380  -0.368  53.866  1.00  0.00     0.209 C 
ENDBRANCH   2  21
BRANCH   8  23
HETATM   23  N4  UNL     1      23.859   4.163  50.304  1.00  0.00    -0.340 N 
HETATM   24  H21 UNL     1      23.888   4.305  51.359  1.00  0.00     0.167 HD
BRANCH  23  25
HETATM   25  C16 UNL     1      24.614   5.075  49.561  1.00  0.00     0.035 A 
HETATM   26  C17 UNL     1      24.173   6.257  49.004  1.00  0.00     0.032 A 
HETATM   27  C18 UNL     1      24.968   7.132  48.297  1.00  0.00     0.046 A 
HETATM   28  C19 UNL     1      26.300   6.821  48.123  1.00  0.00     0.138 A 
HETATM   29  F1  UNL     1      27.100   7.671  47.430  1.00  0.00    -0.204 F 
HETATM   30  C20 UNL     1      26.863   5.654  48.638  1.00  0.00     0.074 A 
HETATM   31 CL1  UNL     1      28.533   5.216  48.445  1.00  0.00    -0.081 Cl
HETATM   32  C21 UNL     1      25.973   4.870  49.318  1.00  0.00     0.056 A 
ENDBRANCH  23  25
ENDBRANCH   8  23
TORSDOF 8
ENDMDL
MODEL 8
REMARK VINA RESULT:      -7.9      3.210      7.326
REMARK  8 active torsions:
REMARK  status: ('A' for Active; 'I' for Inactive)
REMARK    1  A    between atoms: N1_7  and  C6_8 
REMARK    2  A    between atoms: C6_8  and  C7_9 
REMARK    3  A    between atoms: C7_9  and  C8_10 
REMARK    4  A    between atoms: C8_10  and  O2_11 
REMARK    5  A    between atoms: O2_11  and  C9_12 
REMARK    6  A    between atoms: C10_13  and  O3_14 
REMARK    7  A    between atoms: C15_21  and  N4_22 
REMARK    8  A    between atoms: N4_22  and  C16_23 
ROOT
HETATM    1  C9  UNL     1      24.520   3.415  49.643  1.00  0.00     0.217 A 
HETATM    2  C10 UNL     1      25.408   4.651  49.606  1.00  0.00     0.081 A 
HETATM    3  C12 UNL     1      24.794   5.775  49.933  1.00  0.00     0.067 A 
HETATM    4  C13 UNL     1      23.427   5.357  50.208  1.00  0.00     0.073 A 
HETATM    5  N2  UNL     1      22.453   6.245  50.578  1.00  0.00    -0.241 NA
HETATM    6  C14 UNL     1      21.200   5.806  50.806  1.00  0.00     0.235 A 
HETATM    7  N3  UNL     1      21.020   4.505  50.643  1.00  0.00    -0.224 NA
HETATM    8  C15 UNL     1      21.941   3.604  50.283  1.00  0.00     0.141 A 
HETATM    9  C22 UNL     1      23.239   3.990  50.038  1.00  0.00     0.052 A 
ENDROOT
BRANCH   1  10
HETATM   10  O2  UNL     1      25.076   2.498  50.526  1.00  0.00    -0.374 OA
BRANCH  10  11
HETATM   11  C8  UNL     1      25.125   2.875  51.838  1.00  0.00     0.170 C 
BRANCH  11  12
HETATM   12  C7  UNL     1      25.726   1.812  52.721  1.00  0.00     0.046 C 
BRANCH  12  13
HETATM   13  C6  UNL     1      26.335   0.648  52.044  1.00  0.00     0.124 C 
BRANCH  13  14
HETATM   14  N1  UNL     1      27.431   0.014  52.736  1.00  0.00    -0.383 N 
HETATM   15  C2  UNL     1      27.830  -1.346  52.865  1.00  0.00     0.008 C 
HETATM   16  C1  UNL     1      26.872  -2.172  52.437  1.00  0.00     0.060 C 
HETATM   17  C3  UNL     1      29.203  -1.482  53.436  1.00  0.00     0.219 C 
HETATM   18  O1  UNL     1      29.382  -0.812  54.629  1.00  0.00    -0.384 OA
HETATM   19  C4  UNL     1      28.543   0.267  54.794  1.00  0.00     0.187 C 
HETATM   20  C5  UNL     1      28.293   0.974  53.454  1.00  0.00     0.148 C 
ENDBRANCH  13  14
ENDBRANCH  12  13
ENDBRANCH  11  12
ENDBRANCH  10  11
ENDBRANCH   1  10
BRANCH   2  21
HETATM   21  O3  UNL     1      26.716   4.301  49.222  1.00  0.00    -0.357 OA
HETATM   22  C11 UNL     1      27.594   5.204  48.585  1.00  0.00     0.209 C 
ENDBRANCH   2  21
BRANCH   8  23
HETATM   23  N4  UNL     1      21.583   2.240  50.116  1.00  0.00    -0.340 N 
HETATM   24  H21 UNL     1      21.557   1.818  49.139  1.00  0.00     0.167 HD
BRANCH  23  25
HETATM   25  C16 UNL     1      21.252   1.363  51.153  1.00  0.00     0.035 A 
HETATM   26  C17 UNL     1      19.987   0.945  51.511  1.00  0.00     0.032 A 
HETATM   27  C18 UNL     1      19.717   0.058  52.530  1.00  0.00     0.046 A 
HETATM   28  C19 UNL     1      20.771  -0.458  53.253  1.00  0.00     0.138 A 
HETATM   29  F1  UNL     1      20.525  -1.334  54.261  1.00  0.00    -0.204 F 
HETATM   30  C20 UNL     1      22.095  -0.111  52.986  1.00  0.00     0.074 A 
HETATM   31 CL1  UNL     1      23.457  -0.731  53.868  1.00  0.00    -0.081 Cl
HETATM   32  C21 UNL     1      22.231   0.775  51.953  1.00  0.00     0.056 A 
ENDBRANCH  23  25
ENDBRANCH   8  23
TORSDOF 8
ENDMDL
MODEL 9
REMARK VINA RESULT:      -7.9      3.945      6.424
REMARK  8 active torsions:
REMARK  status: ('A' for Active; 'I' for Inactive)
REMARK    1  A    between atoms: N1_7  and  C6_8 
REMARK    2  A    between atoms: C6_8  and  C7_9 
REMARK    3  A    between atoms: C7_9  and  C8_10 
REMARK    4  A    between atoms: C8_10  and  O2_11 
REMARK    5  A    between atoms: O2_11  and  C9_12 
REMARK    6  A    between atoms: C10_13  and  O3_14 
REMARK    7  A    between atoms: C15_21  and  N4_22 
REMARK    8  A    between atoms: N4_22  and  C16_23 
ROOT
HETATM    1  C9  UNL     1      22.763   0.286  53.525  1.00  0.00     0.217 A 
HETATM    2  C10 UNL     1      23.072  -0.918  54.404  1.00  0.00     0.081 A 
HETATM    3  C12 UNL     1      22.038  -1.710  54.631  1.00  0.00     0.067 A 
HETATM    4  C13 UNL     1      20.947  -1.070  53.909  1.00  0.00     0.073 A 
HETATM    5  N2  UNL     1      19.678  -1.585  53.900  1.00  0.00    -0.241 NA
HETATM    6  C14 UNL     1      18.703  -0.944  53.227  1.00  0.00     0.235 A 
HETATM    7  N3  UNL     1      19.077   0.168  52.615  1.00  0.00    -0.224 NA
HETATM    8  C15 UNL     1      20.302   0.705  52.598  1.00  0.00     0.141 A 
HETATM    9  C22 UNL     1      21.341   0.097  53.264  1.00  0.00     0.052 A 
ENDROOT
BRANCH   1  10
HETATM   10  O2  UNL     1      23.598   0.247  52.416  1.00  0.00    -0.374 OA
BRANCH  10  11
HETATM   11  C8  UNL     1      24.243   1.411  52.103  1.00  0.00     0.170 C 
BRANCH  11  12
HETATM   12  C7  UNL     1      25.528   1.174  51.354  1.00  0.00     0.046 C 
BRANCH  12  13
HETATM   13  C6  UNL     1      26.757   1.755  51.935  1.00  0.00     0.124 C 
BRANCH  13  14
HETATM   14  N1  UNL     1      27.444   0.943  52.909  1.00  0.00    -0.383 N 
HETATM   15  C2  UNL     1      28.378   1.256  53.936  1.00  0.00     0.008 C 
HETATM   16  C1  UNL     1      28.842   2.501  53.803  1.00  0.00     0.060 C 
HETATM   17  C3  UNL     1      28.582   0.118  54.881  1.00  0.00     0.219 C 
HETATM   18  O1  UNL     1      28.925  -1.067  54.264  1.00  0.00    -0.384 OA
HETATM   19  C4  UNL     1      28.481  -1.168  52.964  1.00  0.00     0.187 C 
HETATM   20  C5  UNL     1      27.112  -0.492  52.802  1.00  0.00     0.148 C 
ENDBRANCH  13  14
ENDBRANCH  12  13
ENDBRANCH  11  12
ENDBRANCH  10  11
ENDBRANCH   1  10
BRANCH   2  21
HETATM   21  O3  UNL     1      24.428  -0.910  54.785  1.00  0.00    -0.357 OA
HETATM   22  C11 UNL     1      24.847  -1.032  56.127  1.00  0.00     0.209 C 
ENDBRANCH   2  21
BRANCH   8  23
HETATM   23  N4  UNL     1      20.539   1.929  51.920  1.00  0.00    -0.340 N 
HETATM   24  H21 UNL     1      20.310   2.851  52.401  1.00  0.00     0.167 HD
BRANCH  23  25
HETATM   25  C16 UNL     1      21.067   2.046  50.631  1.00  0.00     0.035 A 
HETATM   26  C17 UNL     1      21.191   1.042  49.693  1.00  0.00     0.032 A 
HETATM   27  C18 UNL     1      21.699   1.216  48.424  1.00  0.00     0.046 A 
HETATM   28  C19 UNL     1      22.119   2.475  48.049  1.00  0.00     0.138 A 
HETATM   29  F1  UNL     1      22.623   2.667  46.802  1.00  0.00    -0.204 F 
HETATM   30  C20 UNL     1      22.045   3.570  48.909  1.00  0.00     0.074 A 
HETATM   31 CL1  UNL     1      22.561   5.173  48.484  1.00  0.00    -0.081 Cl
HETATM   32  C21 UNL     1      21.523   3.268  50.136  1.00  0.00     0.056 A 
ENDBRANCH  23  25
ENDBRANCH   8  23
TORSDOF 8
ENDMDL
