MODEL 1
REMARK VINA RESULT:      -8.9      0.000      0.000
REMARK  4 active torsions:
REMARK  status: ('A' for Active; 'I' for Inactive)
REMARK    1  A    between atoms: N1_1  and  C1_2 
REMARK    2  A    between atoms: C2_4  and  N3_5 
REMARK    3  A    between atoms: N3_5  and  C3_6 
REMARK    4  A    between atoms: C10_14  and  C11_15 
ROOT
HETATM    1  C1  UNL     1      28.341   1.539  54.074  1.00  0.00     0.719 A 
HETATM    2  N2  UNL     1      27.571   2.135  53.216  1.00  0.00    -0.075 NA
HETATM    3  C2  UNL     1      26.211   1.766  52.983  1.00  0.00     0.265 A 
HETATM    4  C9  UNL     1      25.833   0.638  53.865  1.00  0.00     0.060 A 
HETATM    5  C10 UNL     1      24.911  -0.227  54.283  1.00  0.00     0.058 A 
HETATM    6  N4  UNL     1      25.710  -0.914  55.239  1.00  0.00    -0.339 N 
HETATM    7  C17 UNL     1      26.736  -0.000  54.821  1.00  0.00     0.159 A 
HETATM    8  N5  UNL     1      27.941   0.436  54.918  1.00  0.00    -0.045 NA
HETATM    9  H13 UNL     1      25.576  -1.714  55.915  1.00  0.00     0.167 HD
ENDROOT
BRANCH   3  10
HETATM   10  N3  UNL     1      25.306   2.882  53.088  1.00  0.00    -0.363 N 
HETATM   11  H4  UNL     1      25.320   3.554  53.889  1.00  0.00     0.162 HD
BRANCH  10  12
HETATM   12  C3  UNL     1      24.369   3.063  52.064  1.00  0.00     0.031 A 
HETATM   13  C4  UNL     1      24.755   2.928  50.749  1.00  0.00     0.029 A 
HETATM   14  C5  UNL     1      23.824   3.099  49.727  1.00  0.00     0.004 A 
HETATM   15  C6  UNL     1      22.509   3.404  49.973  1.00  0.00     0.019 A 
HETATM   16  C7  UNL     1      22.124   3.540  51.312  1.00  0.00     0.013 A 
HETATM   17 BR1  UNL     1      20.281   3.963  51.574  1.00  0.00    -0.051 Br
HETATM   18  C8  UNL     1      23.052   3.369  52.326  1.00  0.00     0.048 A 
ENDBRANCH  10  12
ENDBRANCH   3  10
BRANCH   1  19
HETATM   19  N1  UNL     1      29.659   2.021  54.188  1.00  0.00    -0.231 N 
HETATM   20  H1  UNL     1      29.932   2.391  55.131  1.00  0.00     0.174 HD
HETATM   21  H2  UNL     1      30.610   2.401  54.373  1.00  0.00     0.174 HD
ENDBRANCH   1  19
BRANCH   5  22
HETATM   22  C11 UNL     1      23.534  -0.311  53.799  1.00  0.00    -0.009 A 
HETATM   23  C12 UNL     1      23.032  -0.042  52.543  1.00  0.00     0.015 A 
HETATM   24  C13 UNL     1      21.658  -0.165  52.293  1.00  0.00     0.024 A 
HETATM   25  C14 UNL     1      20.797  -0.560  53.304  1.00  0.00     0.034 A 
HETATM   26 CL1  UNL     1      19.087  -0.691  52.926  1.00  0.00    -0.084 Cl
HETATM   27  C15 UNL     1      21.286  -0.833  54.566  1.00  0.00     0.024 A 
HETATM   28  C16 UNL     1      22.635  -0.709  54.803  1.00  0.00     0.015 A 
ENDBRANCH   5  22
TORSDOF 4
ENDMDL
MODEL 2
REMARK VINA RESULT:      -8.8      1.666      4.118
REMARK  4 active torsions:
REMARK  status: ('A' for Active; 'I' for Inactive)
REMARK    1  A    between atoms: N1_1  and  C1_2 
REMARK    2  A    between atoms: C2_4  and  N3_5 
REMARK    3  A    between atoms: N3_5  and  C3_6 
REMARK    4  A    between atoms: C10_14  and  C11_15 
ROOT
HETATM    1  C1  UNL     1      27.912   0.183  54.113  1.00  0.00     0.719 A 
HETATM    2  N2  UNL     1      26.690  -0.197  54.325  1.00  0.00    -0.075 NA
HETATM    3  C2  UNL     1      25.554   0.408  53.706  1.00  0.00     0.265 A 
HETATM    4  C9  UNL     1      25.989   1.497  52.801  1.00  0.00     0.060 A 
HETATM    5  C10 UNL     1      25.675   2.459  51.936  1.00  0.00     0.058 A 
HETATM    6  N4  UNL     1      26.995   2.915  51.666  1.00  0.00    -0.339 N 
HETATM    7  C17 UNL     1      27.383   1.888  52.592  1.00  0.00     0.159 A 
HETATM    8  N5  UNL     1      28.304   1.255  53.225  1.00  0.00    -0.045 NA
HETATM    9  H13 UNL     1      27.440   3.660  51.064  1.00  0.00     0.167 HD
ENDROOT
BRANCH   3  10
HETATM   10  N3  UNL     1      24.700  -0.550  53.052  1.00  0.00    -0.363 N 
HETATM   11  H4  UNL     1      25.057  -1.271  52.385  1.00  0.00     0.162 HD
BRANCH  10  12
HETATM   12  C3  UNL     1      23.329  -0.503  53.333  1.00  0.00     0.031 A 
HETATM   13  C4  UNL     1      22.873  -0.856  54.584  1.00  0.00     0.029 A 
HETATM   14  C5  UNL     1      21.510  -0.802  54.871  1.00  0.00     0.004 A 
HETATM   15  C6  UNL     1      20.579  -0.405  53.944  1.00  0.00     0.019 A 
HETATM   16  C7  UNL     1      21.050  -0.048  52.676  1.00  0.00     0.013 A 
HETATM   17 BR1  UNL     1      19.696   0.494  51.444  1.00  0.00    -0.051 Br
HETATM   18  C8  UNL     1      22.405  -0.102  52.394  1.00  0.00     0.048 A 
ENDBRANCH  10  12
ENDBRANCH   3  10
BRANCH   1  19
HETATM   19  N1  UNL     1      28.924  -0.516  54.800  1.00  0.00    -0.231 N 
HETATM   20  H1  UNL     1      29.613  -1.032  54.200  1.00  0.00     0.174 HD
HETATM   21  H2  UNL     1      29.707  -1.064  55.212  1.00  0.00     0.174 HD
ENDBRANCH   1  19
BRANCH   5  22
HETATM   22  C11 UNL     1      24.324   2.811  51.500  1.00  0.00    -0.009 A 
HETATM   23  C12 UNL     1      23.741   2.665  50.260  1.00  0.00     0.015 A 
HETATM   24  C13 UNL     1      22.424   3.094  50.046  1.00  0.00     0.024 A 
HETATM   25  C14 UNL     1      21.699   3.665  51.080  1.00  0.00     0.034 A 
HETATM   26 CL1  UNL     1      20.056   4.185  50.745  1.00  0.00    -0.084 Cl
HETATM   27  C15 UNL     1      22.271   3.817  52.328  1.00  0.00     0.024 A 
HETATM   28  C16 UNL     1      23.563   3.393  52.528  1.00  0.00     0.015 A 
ENDBRANCH   5  22
TORSDOF 4
ENDMDL
MODEL 3
REMARK VINA RESULT:      -8.5      1.811      2.472
REMARK  4 active torsions:
REMARK  status: ('A' for Active; 'I' for Inactive)
REMARK    1  A    between atoms: N1_1  and  C1_2 
REMARK    2  A    between atoms: C2_4  and  N3_5 
REMARK    3  A    between atoms: N3_5  and  C3_6 
REMARK    4  A    between atoms: C10_14  and  C11_15 
ROOT
HETATM    1  C1  UNL     1      26.770   0.041  54.327  1.00  0.00     0.719 A 
HETATM    2  N2  UNL     1      26.749   0.980  53.432  1.00  0.00    -0.075 NA
HETATM    3  C2  UNL     1      25.580   1.349  52.699  1.00  0.00     0.265 A 
HETATM    4  C9  UNL     1      24.430   0.519  53.126  1.00  0.00     0.060 A 
HETATM    5  C10 UNL     1      23.140   0.210  53.015  1.00  0.00     0.058 A 
HETATM    6  N4  UNL     1      23.105  -0.827  53.988  1.00  0.00    -0.339 N 
HETATM    7  C17 UNL     1      24.501  -0.528  54.144  1.00  0.00     0.159 A 
HETATM    8  N5  UNL     1      25.628  -0.755  54.718  1.00  0.00    -0.045 NA
HETATM    9  H13 UNL     1      22.379  -1.485  54.381  1.00  0.00     0.167 HD
ENDROOT
BRANCH   3  10
HETATM   10  N3  UNL     1      25.303   2.761  52.767  1.00  0.00    -0.363 N 
HETATM   11  H4  UNL     1      25.590   3.360  53.574  1.00  0.00     0.162 HD
BRANCH  10  12
HETATM   12  C3  UNL     1      24.617   3.346  51.696  1.00  0.00     0.031 A 
HETATM   13  C4  UNL     1      24.889   2.945  50.407  1.00  0.00     0.029 A 
HETATM   14  C5  UNL     1      24.202   3.518  49.338  1.00  0.00     0.004 A 
HETATM   15  C6  UNL     1      23.246   4.486  49.513  1.00  0.00     0.019 A 
HETATM   16  C7  UNL     1      22.975   4.888  50.825  1.00  0.00     0.013 A 
HETATM   17 BR1  UNL     1      21.633   6.236  50.987  1.00  0.00    -0.051 Br
HETATM   18  C8  UNL     1      23.659   4.317  51.886  1.00  0.00     0.048 A 
ENDBRANCH  10  12
ENDBRANCH   3  10
BRANCH   1  19
HETATM   19  N1  UNL     1      28.002  -0.204  54.963  1.00  0.00    -0.231 N 
HETATM   20  H1  UNL     1      28.033  -1.043  55.594  1.00  0.00     0.174 HD
HETATM   21  H2  UNL     1      28.865  -0.468  55.481  1.00  0.00     0.174 HD
ENDBRANCH   1  19
BRANCH   5  22
HETATM   22  C11 UNL     1      22.181   0.846  52.112  1.00  0.00    -0.009 A 
HETATM   23  C12 UNL     1      22.025   0.685  50.752  1.00  0.00     0.015 A 
HETATM   24  C13 UNL     1      21.047   1.418  50.064  1.00  0.00     0.024 A 
HETATM   25  C14 UNL     1      20.230   2.304  50.747  1.00  0.00     0.034 A 
HETATM   26 CL1  UNL     1      19.028   3.193  49.827  1.00  0.00    -0.084 Cl
HETATM   27  C15 UNL     1      20.375   2.474  52.110  1.00  0.00     0.024 A 
HETATM   28  C16 UNL     1      21.338   1.752  52.776  1.00  0.00     0.015 A 
ENDBRANCH   5  22
TORSDOF 4
ENDMDL
MODEL 4
REMARK VINA RESULT:      -8.2      3.452      5.250
REMARK  4 active torsions:
REMARK  status: ('A' for Active; 'I' for Inactive)
REMARK    1  A    between atoms: N1_1  and  C1_2 
REMARK    2  A    between atoms: C2_4  and  N3_5 
REMARK    3  A    between atoms: N3_5  and  C3_6 
REMARK    4  A    between atoms: C10_14  and  C11_15 
ROOT
HETATM    1  C1  UNL     1      21.082   1.925  52.644  1.00  0.00     0.719 A 
HETATM    2  N2  UNL     1      22.103   2.467  52.056  1.00  0.00    -0.075 NA
HETATM    3  C2  UNL     1      23.441   1.986  52.188  1.00  0.00     0.265 A 
HETATM    4  C9  UNL     1      23.468   0.794  53.068  1.00  0.00     0.060 A 
HETATM    5  C10 UNL     1      24.163  -0.173  53.662  1.00  0.00     0.058 A 
HETATM    6  N4  UNL     1      23.079  -0.809  54.329  1.00  0.00    -0.339 N 
HETATM    7  C17 UNL     1      22.287   0.216  53.708  1.00  0.00     0.159 A 
HETATM    8  N5  UNL     1      21.142   0.763  53.502  1.00  0.00    -0.045 NA
HETATM    9  H13 UNL     1      22.955  -1.638  54.971  1.00  0.00     0.167 HD
ENDROOT
BRANCH   3  10
HETATM   10  N3  UNL     1      24.077   1.751  50.916  1.00  0.00    -0.363 N 
HETATM   11  H4  UNL     1      24.062   0.825  50.433  1.00  0.00     0.162 HD
BRANCH  10  12
HETATM   12  C3  UNL     1      24.741   2.825  50.310  1.00  0.00     0.031 A 
HETATM   13  C4  UNL     1      26.117   2.852  50.282  1.00  0.00     0.029 A 
HETATM   14  C5  UNL     1      26.783   3.913  49.671  1.00  0.00     0.004 A 
HETATM   15  C6  UNL     1      26.115   4.958  49.083  1.00  0.00     0.019 A 
HETATM   16  C7  UNL     1      24.717   4.923  49.116  1.00  0.00     0.013 A 
HETATM   17 BR1  UNL     1      23.861   6.409  48.277  1.00  0.00    -0.051 Br
HETATM   18  C8  UNL     1      24.058   3.867  49.723  1.00  0.00     0.048 A 
ENDBRANCH  10  12
ENDBRANCH   3  10
BRANCH   1  19
HETATM   19  N1  UNL     1      19.826   2.517  52.414  1.00  0.00    -0.231 N 
HETATM   20  H1  UNL     1      19.459   2.447  51.433  1.00  0.00     0.174 HD
HETATM   21  H2  UNL     1      18.908   2.925  52.142  1.00  0.00     0.174 HD
ENDBRANCH   1  19
BRANCH   5  22
HETATM   22  C11 UNL     1      25.606  -0.379  53.555  1.00  0.00    -0.009 A 
HETATM   23  C12 UNL     1      26.310  -1.211  52.709  1.00  0.00     0.015 A 
HETATM   24  C13 UNL     1      27.708  -1.276  52.788  1.00  0.00     0.024 A 
HETATM   25  C14 UNL     1      28.392  -0.504  53.713  1.00  0.00     0.034 A 
HETATM   26 CL1  UNL     1      30.142  -0.635  53.762  1.00  0.00    -0.084 Cl
HETATM   27  C15 UNL     1      27.700   0.334  54.565  1.00  0.00     0.024 A 
HETATM   28  C16 UNL     1      26.329   0.391  54.482  1.00  0.00     0.015 A 
ENDBRANCH   5  22
TORSDOF 4
ENDMDL
MODEL 5
REMARK VINA RESULT:      -7.7      1.663      2.398
REMARK  4 active torsions:
REMARK  status: ('A' for Active; 'I' for Inactive)
REMARK    1  A    between atoms: N1_1  and  C1_2 
REMARK    2  A    between atoms: C2_4  and  N3_5 
REMARK    3  A    between atoms: N3_5  and  C3_6 
REMARK    4  A    between atoms: C10_14  and  C11_15 
ROOT
HETATM    1  C1  UNL     1      26.395   0.597  54.292  1.00  0.00     0.719 A 
HETATM    2  N2  UNL     1      25.891   1.408  53.414  1.00  0.00    -0.075 NA
HETATM    3  C2  UNL     1      24.557   1.305  52.914  1.00  0.00     0.265 A 
HETATM    4  C9  UNL     1      23.862   0.164  53.555  1.00  0.00     0.060 A 
HETATM    5  C10 UNL     1      22.763  -0.573  53.692  1.00  0.00     0.058 A 
HETATM    6  N4  UNL     1      23.263  -1.489  54.659  1.00  0.00    -0.339 N 
HETATM    7  C17 UNL     1      24.472  -0.722  54.546  1.00  0.00     0.159 A 
HETATM    8  N5  UNL     1      25.690  -0.511  54.897  1.00  0.00    -0.045 NA
HETATM    9  H13 UNL     1      22.892  -2.326  55.185  1.00  0.00     0.167 HD
ENDROOT
BRANCH   3  10
HETATM   10  N3  UNL     1      23.823   2.538  53.027  1.00  0.00    -0.363 N 
HETATM   11  H4  UNL     1      23.888   3.167  53.860  1.00  0.00     0.162 HD
BRANCH  10  12
HETATM   12  C3  UNL     1      22.987   2.902  51.964  1.00  0.00     0.031 A 
HETATM   13  C4  UNL     1      21.898   3.711  52.194  1.00  0.00     0.029 A 
HETATM   14  C5  UNL     1      21.068   4.083  51.138  1.00  0.00     0.004 A 
HETATM   15  C6  UNL     1      21.290   3.670  49.848  1.00  0.00     0.019 A 
HETATM   16  C7  UNL     1      22.400   2.847  49.622  1.00  0.00     0.013 A 
HETATM   17 BR1  UNL     1      22.643   2.316  47.805  1.00  0.00    -0.051 Br
HETATM   18  C8  UNL     1      23.222   2.480  50.674  1.00  0.00     0.048 A 
ENDBRANCH  10  12
ENDBRANCH   3  10
BRANCH   1  19
HETATM   19  N1  UNL     1      27.727   0.832  54.685  1.00  0.00    -0.231 N 
HETATM   20  H1  UNL     1      28.173   1.699  54.298  1.00  0.00     0.174 HD
HETATM   21  H2  UNL     1      28.708   1.093  54.914  1.00  0.00     0.174 HD
ENDBRANCH   1  19
BRANCH   5  22
HETATM   22  C11 UNL     1      21.500  -0.367  52.984  1.00  0.00    -0.009 A 
HETATM   23  C12 UNL     1      21.282   0.097  51.704  1.00  0.00     0.015 A 
HETATM   24  C13 UNL     1      19.974   0.244  51.222  1.00  0.00     0.024 A 
HETATM   25  C14 UNL     1      18.893  -0.080  52.025  1.00  0.00     0.034 A 
HETATM   26 CL1  UNL     1      17.281   0.130  51.362  1.00  0.00    -0.084 Cl
HETATM   27  C15 UNL     1      19.096  -0.547  53.309  1.00  0.00     0.024 A 
HETATM   28  C16 UNL     1      20.383  -0.687  53.775  1.00  0.00     0.015 A 
ENDBRANCH   5  22
TORSDOF 4
ENDMDL
MODEL 6
REMARK VINA RESULT:      -7.7      2.608      4.980
REMARK  4 active torsions:
REMARK  status: ('A' for Active; 'I' for Inactive)
REMARK    1  A    between atoms: N1_1  and  C1_2 
REMARK    2  A    between atoms: C2_4  and  N3_5 
REMARK    3  A    between atoms: N3_5  and  C3_6 
REMARK    4  A    between atoms: C10_14  and  C11_15 
ROOT
HETATM    1  C1  UNL     1      26.697   4.440  49.511  1.00  0.00     0.719 A 
HETATM    2  N2  UNL     1      26.776   3.564  50.464  1.00  0.00    -0.075 NA
HETATM    3  C2  UNL     1      25.642   2.914  51.039  1.00  0.00     0.265 A 
HETATM    4  C9  UNL     1      24.401   3.380  50.378  1.00  0.00     0.060 A 
HETATM    5  C10 UNL     1      23.075   3.327  50.267  1.00  0.00     0.058 A 
HETATM    6  N4  UNL     1      22.930   4.279  49.220  1.00  0.00    -0.339 N 
HETATM    7  C17 UNL     1      24.362   4.369  49.302  1.00  0.00     0.159 A 
HETATM    8  N5  UNL     1      25.467   4.877  48.888  1.00  0.00    -0.045 NA
HETATM    9  H13 UNL     1      22.132   4.697  48.670  1.00  0.00     0.167 HD
ENDROOT
BRANCH   3  10
HETATM   10  N3  UNL     1      25.765   1.479  51.043  1.00  0.00    -0.363 N 
HETATM   11  H4  UNL     1      25.905   0.917  50.173  1.00  0.00     0.162 HD
BRANCH  10  12
HETATM   12  C3  UNL     1      25.692   0.820  52.276  1.00  0.00     0.031 A 
HETATM   13  C4  UNL     1      26.826   0.673  53.043  1.00  0.00     0.029 A 
HETATM   14  C5  UNL     1      26.757   0.025  54.275  1.00  0.00     0.004 A 
HETATM   15  C6  UNL     1      25.584  -0.486  54.772  1.00  0.00     0.019 A 
HETATM   16  C7  UNL     1      24.436  -0.333  53.987  1.00  0.00     0.013 A 
HETATM   17 BR1  UNL     1      22.846  -1.068  54.745  1.00  0.00    -0.051 Br
HETATM   18  C8  UNL     1      24.508   0.312  52.763  1.00  0.00     0.048 A 
ENDBRANCH  10  12
ENDBRANCH   3  10
BRANCH   1  19
HETATM   19  N1  UNL     1      27.908   4.991  49.050  1.00  0.00    -0.231 N 
HETATM   20  H1  UNL     1      28.704   4.985  49.734  1.00  0.00     0.174 HD
HETATM   21  H2  UNL     1      28.843   5.378  48.806  1.00  0.00     0.174 HD
ENDBRANCH   1  19
BRANCH   5  22
HETATM   22  C11 UNL     1      22.183   2.485  51.062  1.00  0.00    -0.009 A 
HETATM   23  C12 UNL     1      21.632   2.726  52.303  1.00  0.00     0.015 A 
HETATM   24  C13 UNL     1      20.811   1.764  52.907  1.00  0.00     0.024 A 
HETATM   25  C14 UNL     1      20.544   0.568  52.260  1.00  0.00     0.034 A 
HETATM   26 CL1  UNL     1      19.511  -0.596  53.072  1.00  0.00    -0.084 Cl
HETATM   27  C15 UNL     1      21.088   0.314  51.016  1.00  0.00     0.024 A 
HETATM   28  C16 UNL     1      21.894   1.263  50.432  1.00  0.00     0.015 A 
ENDBRANCH   5  22
TORSDOF 4
ENDMDL
MODEL 7
REMARK VINA RESULT:      -7.6      4.277      6.287
REMARK  4 active torsions:
REMARK  status: ('A' for Active; 'I' for Inactive)
REMARK    1  A    between atoms: N1_1  and  C1_2 
REMARK    2  A    between atoms: C2_4  and  N3_5 
REMARK    3  A    between atoms: N3_5  and  C3_6 
REMARK    4  A    between atoms: C10_14  and  C11_15 
ROOT
HETATM    1  C1  UNL     1      19.604   4.942  50.233  1.00  0.00     0.719 A 
HETATM    2  N2  UNL     1      20.825   5.096  49.824  1.00  0.00    -0.075 NA
HETATM    3  C2  UNL     1      21.937   4.374  50.358  1.00  0.00     0.265 A 
HETATM    4  C9  UNL     1      21.476   3.439  51.411  1.00  0.00     0.060 A 
HETATM    5  C10 UNL     1      21.761   2.504  52.313  1.00  0.00     0.058 A 
HETATM    6  N4  UNL     1      20.441   2.292  52.798  1.00  0.00    -0.339 N 
HETATM    7  C17 UNL     1      20.084   3.297  51.836  1.00  0.00     0.159 A 
HETATM    8  N5  UNL     1      19.187   4.022  51.267  1.00  0.00    -0.045 NA
HETATM    9  H13 UNL     1      19.980   1.679  53.524  1.00  0.00     0.167 HD
ENDROOT
BRANCH   3  10
HETATM   10  N3  UNL     1      22.718   3.722  49.339  1.00  0.00    -0.363 N 
HETATM   11  H4  UNL     1      22.302   3.088  48.620  1.00  0.00     0.162 HD
BRANCH  10  12
HETATM   12  C3  UNL     1      24.098   3.959  49.321  1.00  0.00     0.031 A 
HETATM   13  C4  UNL     1      24.973   2.942  49.630  1.00  0.00     0.029 A 
HETATM   14  C5  UNL     1      26.347   3.171  49.605  1.00  0.00     0.004 A 
HETATM   15  C6  UNL     1      26.883   4.392  49.279  1.00  0.00     0.019 A 
HETATM   16  C7  UNL     1      25.988   5.421  48.967  1.00  0.00     0.013 A 
HETATM   17 BR1  UNL     1      26.808   7.087  48.524  1.00  0.00    -0.051 Br
HETATM   18  C8  UNL     1      24.622   5.190  48.992  1.00  0.00     0.048 A 
ENDBRANCH  10  12
ENDBRANCH   3  10
BRANCH   1  19
HETATM   19  N1  UNL     1      18.619   5.728  49.606  1.00  0.00    -0.231 N 
HETATM   20  H1  UNL     1      18.923   6.243  48.743  1.00  0.00     0.174 HD
HETATM   21  H2  UNL     1      17.966   6.338  49.072  1.00  0.00     0.174 HD
ENDBRANCH   1  19
BRANCH   5  22
HETATM   22  C11 UNL     1      23.091   1.965  52.597  1.00  0.00    -0.009 A 
HETATM   23  C12 UNL     1      23.545   0.667  52.502  1.00  0.00     0.015 A 
HETATM   24  C13 UNL     1      24.868   0.357  52.848  1.00  0.00     0.024 A 
HETATM   25  C14 UNL     1      25.727   1.352  53.285  1.00  0.00     0.034 A 
HETATM   26 CL1  UNL     1      27.369   0.897  53.707  1.00  0.00    -0.084 Cl
HETATM   27  C15 UNL     1      25.285   2.657  53.384  1.00  0.00     0.024 A 
HETATM   28  C16 UNL     1      23.986   2.952  53.043  1.00  0.00     0.015 A 
ENDBRANCH   5  22
TORSDOF 4
ENDMDL
MODEL 8
REMARK VINA RESULT:      -7.5      3.420      5.880
REMARK  4 active torsions:
REMARK  status: ('A' for Active; 'I' for Inactive)
REMARK    1  A    between atoms: N1_1  and  C1_2 
REMARK    2  A    between atoms: C2_4  and  N3_5 
REMARK    3  A    between atoms: N3_5  and  C3_6 
REMARK    4  A    between atoms: C10_14  and  C11_15 
ROOT
HETATM    1  C1  UNL     1      21.562   4.643  50.707  1.00  0.00     0.719 A 
HETATM    2  N2  UNL     1      21.945   3.631  49.993  1.00  0.00    -0.075 NA
HETATM    3  C2  UNL     1      23.032   2.775  50.351  1.00  0.00     0.265 A 
HETATM    4  C9  UNL     1      23.620   3.214  51.639  1.00  0.00     0.060 A 
HETATM    5  C10 UNL     1      24.523   3.040  52.601  1.00  0.00     0.058 A 
HETATM    6  N4  UNL     1      24.143   4.137  53.423  1.00  0.00    -0.339 N 
HETATM    7  C17 UNL     1      23.149   4.363  52.411  1.00  0.00     0.159 A 
HETATM    8  N5  UNL     1      22.160   5.048  51.959  1.00  0.00    -0.045 NA
HETATM    9  H13 UNL     1      24.464   4.556  54.338  1.00  0.00     0.167 HD
ENDROOT
BRANCH   3  10
HETATM   10  N3  UNL     1      22.667   1.382  50.353  1.00  0.00    -0.363 N 
HETATM   11  H4  UNL     1      22.962   0.714  49.605  1.00  0.00     0.162 HD
BRANCH  10  12
HETATM   12  C3  UNL     1      21.881   0.913  51.412  1.00  0.00     0.031 A 
HETATM   13  C4  UNL     1      20.526   1.158  51.422  1.00  0.00     0.029 A 
HETATM   14  C5  UNL     1      19.738   0.686  52.470  1.00  0.00     0.004 A 
HETATM   15  C6  UNL     1      20.261  -0.029  53.518  1.00  0.00     0.019 A 
HETATM   16  C7  UNL     1      21.638  -0.275  53.501  1.00  0.00     0.013 A 
HETATM   17 BR1  UNL     1      22.290  -1.276  54.990  1.00  0.00    -0.051 Br
HETATM   18  C8  UNL     1      22.419   0.196  52.458  1.00  0.00     0.048 A 
ENDBRANCH  10  12
ENDBRANCH   3  10
BRANCH   1  19
HETATM   19  N1  UNL     1      20.473   5.390  50.218  1.00  0.00    -0.231 N 
HETATM   20  H1  UNL     1      20.632   6.423  50.119  1.00  0.00     0.174 HD
HETATM   21  H2  UNL     1      19.729   6.029  49.867  1.00  0.00     0.174 HD
ENDBRANCH   1  19
BRANCH   5  22
HETATM   22  C11 UNL     1      25.534   1.985  52.646  1.00  0.00    -0.009 A 
HETATM   23  C12 UNL     1      25.930   1.112  51.654  1.00  0.00     0.015 A 
HETATM   24  C13 UNL     1      26.913   0.148  51.916  1.00  0.00     0.024 A 
HETATM   25  C14 UNL     1      27.495   0.067  53.171  1.00  0.00     0.034 A 
HETATM   26 CL1  UNL     1      28.718  -1.165  53.434  1.00  0.00    -0.084 Cl
HETATM   27  C15 UNL     1      27.109   0.936  54.173  1.00  0.00     0.024 A 
HETATM   28  C16 UNL     1      26.143   1.878  53.908  1.00  0.00     0.015 A 
ENDBRANCH   5  22
TORSDOF 4
ENDMDL
MODEL 9
REMARK VINA RESULT:      -7.4      3.180      5.325
REMARK  4 active torsions:
REMARK  status: ('A' for Active; 'I' for Inactive)
REMARK    1  A    between atoms: N1_1  and  C1_2 
REMARK    2  A    between atoms: C2_4  and  N3_5 
REMARK    3  A    between atoms: N3_5  and  C3_6 
REMARK    4  A    between atoms: C10_14  and  C11_15 
ROOT
HETATM    1  C1  UNL     1      21.976  -0.894  53.629  1.00  0.00     0.719 A 
HETATM    2  N2  UNL     1      21.393  -0.141  52.749  1.00  0.00    -0.075 NA
HETATM    3  C2  UNL     1      22.044   0.936  52.073  1.00  0.00     0.265 A 
HETATM    4  C9  UNL     1      23.454   1.036  52.518  1.00  0.00     0.060 A 
HETATM    5  C10 UNL     1      24.637   1.640  52.438  1.00  0.00     0.058 A 
HETATM    6  N4  UNL     1      25.326   0.843  53.393  1.00  0.00    -0.339 N 
HETATM    7  C17 UNL     1      24.069   0.159  53.512  1.00  0.00     0.159 A 
HETATM    8  N5  UNL     1      23.355  -0.768  54.045  1.00  0.00    -0.045 NA
HETATM    9  H13 UNL     1      26.301   0.804  53.798  1.00  0.00     0.167 HD
ENDROOT
BRANCH   3  10
HETATM   10  N3  UNL     1      21.918   0.852  50.640  1.00  0.00    -0.363 N 
HETATM   11  H4  UNL     1      21.820  -0.055  50.129  1.00  0.00     0.162 HD
BRANCH  10  12
HETATM   12  C3  UNL     1      21.926   2.047  49.911  1.00  0.00     0.031 A 
HETATM   13  C4  UNL     1      22.664   2.139  48.753  1.00  0.00     0.029 A 
HETATM   14  C5  UNL     1      22.669   3.324  48.020  1.00  0.00     0.004 A 
HETATM   15  C6  UNL     1      21.955   4.431  48.407  1.00  0.00     0.019 A 
HETATM   16  C7  UNL     1      21.206   4.329  49.585  1.00  0.00     0.013 A 
HETATM   17 BR1  UNL     1      20.241   5.907  50.056  1.00  0.00    -0.051 Br
HETATM   18  C8  UNL     1      21.204   3.150  50.312  1.00  0.00     0.048 A 
ENDBRANCH  10  12
ENDBRANCH   3  10
BRANCH   1  19
HETATM   19  N1  UNL     1      21.198  -1.916  54.207  1.00  0.00    -0.231 N 
HETATM   20  H1  UNL     1      21.730  -2.725  54.610  1.00  0.00     0.174 HD
HETATM   21  H2  UNL     1      20.714  -2.721  54.655  1.00  0.00     0.174 HD
ENDBRANCH   1  19
BRANCH   5  22
HETATM   22  C11 UNL     1      24.964   2.773  51.573  1.00  0.00    -0.009 A 
HETATM   23  C12 UNL     1      24.415   4.038  51.548  1.00  0.00     0.015 A 
HETATM   24  C13 UNL     1      24.863   4.981  50.611  1.00  0.00     0.024 A 
HETATM   25  C14 UNL     1      25.859   4.648  49.707  1.00  0.00     0.034 A 
HETATM   26 CL1  UNL     1      26.371   5.873  48.558  1.00  0.00    -0.084 Cl
HETATM   27  C15 UNL     1      26.418   3.385  49.722  1.00  0.00     0.024 A 
HETATM   28  C16 UNL     1      25.972   2.467  50.644  1.00  0.00     0.015 A 
ENDBRANCH   5  22
TORSDOF 4
ENDMDL
