MODEL 1
REMARK VINA RESULT:      -9.0      0.000      0.000
REMARK  5 active torsions:
REMARK  status: ('A' for Active; 'I' for Inactive)
REMARK    1  A    between atoms: O1_2  and  C2_3 
REMARK    2  A    between atoms: C7_8  and  C8_9 
REMARK       I    between atoms: C8_9  and  N1_11 
REMARK    3  A    between atoms: N1_11  and  C9_12 
REMARK    4  A    between atoms: N2_17  and  C13_18 
REMARK    5  A    between atoms: C16_22  and  C17_23 
ROOT
HETATM    1  C9  UNL     1      23.163  -0.195  53.213  1.00  0.00     0.052 C 
HETATM    2  C10 UNL     1      22.352   0.540  53.956  1.00  0.00     0.164 C 
HETATM    3  O3  UNL     1      21.037   0.912  53.711  1.00  0.00    -0.335 OA
HETATM    4  C11 UNL     1      20.482   0.542  52.464  1.00  0.00     0.242 C 
HETATM    5  C12 UNL     1      19.522   1.661  52.096  1.00  0.00     0.064 C 
HETATM    6  N2  UNL     1      21.575   0.456  51.516  1.00  0.00    -0.182 N 
HETATM    7  C22 UNL     1      22.433  -0.622  51.965  1.00  0.00     0.203 C 
ENDROOT
BRANCH   1   8
HETATM    8  N1  UNL     1      24.498  -0.589  53.434  1.00  0.00    -0.323 N 
HETATM    9  C8  UNL     1      25.707  -0.182  52.859  1.00  0.00     0.258 C 
HETATM   10  O2  UNL     1      25.549   0.709  51.979  1.00  0.00    -0.267 OA
HETATM   11  H8  UNL     1      24.587  -1.326  54.167  1.00  0.00     0.169 HD
BRANCH   9  12
HETATM   12  C7  UNL     1      27.059  -0.632  53.134  1.00  0.00     0.065 A 
HETATM   13  C2  UNL     1      28.086   0.043  53.746  1.00  0.00     0.084 A 
HETATM   14  C3  UNL     1      29.340  -0.486  53.959  1.00  0.00     0.038 A 
HETATM   15  C4  UNL     1      29.613  -1.764  53.545  1.00  0.00     0.003 A 
HETATM   16  C5  UNL     1      28.632  -2.495  52.926  1.00  0.00     0.001 A 
HETATM   17  C6  UNL     1      27.397  -1.931  52.734  1.00  0.00     0.020 A 
BRANCH  13  18
HETATM   18  O1  UNL     1      27.833   1.316  54.165  1.00  0.00    -0.355 OA
HETATM   19  C1  UNL     1      28.513   2.406  53.621  1.00  0.00     0.210 C 
ENDBRANCH  13  18
ENDBRANCH   9  12
ENDBRANCH   1   8
BRANCH   6  20
HETATM   20  C13 UNL     1      21.858   1.215  50.349  1.00  0.00     0.727 A 
HETATM   21  N3  UNL     1      21.067   1.021  49.278  1.00  0.00    -0.075 NA
HETATM   22  C14 UNL     1      21.274   1.701  48.145  1.00  0.00     0.139 A 
HETATM   23  C15 UNL     1      22.304   2.599  48.093  1.00  0.00     0.053 A 
HETATM   24  C16 UNL     1      23.133   2.823  49.172  1.00  0.00     0.089 A 
HETATM   25  N5  UNL     1      22.849   2.095  50.266  1.00  0.00    -0.062 NA
BRANCH  24  26
HETATM   26  C17 UNL     1      24.245   3.764  49.178  1.00  0.00     0.011 A 
HETATM   27  C18 UNL     1      25.494   3.280  49.507  1.00  0.00     0.017 A 
HETATM   28  C19 UNL     1      26.601   4.125  49.531  1.00  0.00     0.020 A 
HETATM   29  C20 UNL     1      26.364   5.464  49.211  1.00  0.00     0.116 A 
HETATM   30  N4  UNL     1      25.155   5.947  48.890  1.00  0.00    -0.272 NA
HETATM   31  C21 UNL     1      24.088   5.099  48.873  1.00  0.00     0.130 A 
ENDBRANCH  24  26
ENDBRANCH   6  20
TORSDOF 5
ENDMDL
MODEL 2
REMARK VINA RESULT:      -8.9      2.084      6.036
REMARK  5 active torsions:
REMARK  status: ('A' for Active; 'I' for Inactive)
REMARK    1  A    between atoms: O1_2  and  C2_3 
REMARK    2  A    between atoms: C7_8  and  C8_9 
REMARK       I    between atoms: C8_9  and  N1_11 
REMARK    3  A    between atoms: N1_11  and  C9_12 
REMARK    4  A    between atoms: N2_17  and  C13_18 
REMARK    5  A    between atoms: C16_22  and  C17_23 
ROOT
HETATM    1  C9  UNL     1      21.516   2.822  50.452  1.00  0.00     0.052 C 
HETATM    2  C10 UNL     1      20.705   2.028  49.772  1.00  0.00     0.164 C 
HETATM    3  O3  UNL     1      19.645   1.258  50.232  1.00  0.00    -0.335 OA
HETATM    4  C11 UNL     1      19.427   1.228  51.630  1.00  0.00     0.242 C 
HETATM    5  C12 UNL     1      18.901  -0.165  51.930  1.00  0.00     0.064 C 
HETATM    6  N2  UNL     1      20.707   1.455  52.269  1.00  0.00    -0.182 N 
HETATM    7  C22 UNL     1      21.123   2.795  51.908  1.00  0.00     0.203 C 
ENDROOT
BRANCH   1   8
HETATM    8  N1  UNL     1      22.596   3.614  50.015  1.00  0.00    -0.323 N 
HETATM    9  C8  UNL     1      23.983   3.440  50.092  1.00  0.00     0.258 C 
HETATM   10  O2  UNL     1      24.305   2.362  50.664  1.00  0.00    -0.267 OA
HETATM   11  H8  UNL     1      22.291   4.495  49.548  1.00  0.00     0.169 HD
BRANCH   9  12
HETATM   12  C7  UNL     1      25.050   4.302  49.618  1.00  0.00     0.065 A 
HETATM   13  C2  UNL     1      25.026   5.654  49.380  1.00  0.00     0.084 A 
HETATM   14  C3  UNL     1      26.107   6.378  48.927  1.00  0.00     0.038 A 
HETATM   15  C4  UNL     1      27.296   5.739  48.689  1.00  0.00     0.003 A 
HETATM   16  C5  UNL     1      27.389   4.389  48.906  1.00  0.00     0.001 A 
HETATM   17  C6  UNL     1      26.289   3.705  49.358  1.00  0.00     0.020 A 
BRANCH  13  18
HETATM   18  O1  UNL     1      23.851   6.308  49.611  1.00  0.00    -0.355 OA
HETATM   19  C1  UNL     1      23.698   7.156  50.707  1.00  0.00     0.210 C 
ENDBRANCH  13  18
ENDBRANCH   9  12
ENDBRANCH   1   8
BRANCH   6  20
HETATM   20  C13 UNL     1      21.494   0.615  53.102  1.00  0.00     0.727 A 
HETATM   21  N3  UNL     1      20.843  -0.163  53.987  1.00  0.00    -0.075 NA
HETATM   22  C14 UNL     1      21.519  -0.980  54.803  1.00  0.00     0.139 A 
HETATM   23  C15 UNL     1      22.883  -1.011  54.724  1.00  0.00     0.053 A 
HETATM   24  C16 UNL     1      23.582  -0.227  53.829  1.00  0.00     0.089 A 
HETATM   25  N5  UNL     1      22.820   0.561  53.051  1.00  0.00    -0.062 NA
BRANCH  24  26
HETATM   26  C17 UNL     1      25.033  -0.215  53.698  1.00  0.00     0.011 A 
HETATM   27  C18 UNL     1      25.562  -0.171  52.425  1.00  0.00     0.017 A 
HETATM   28  C19 UNL     1      26.940  -0.158  52.228  1.00  0.00     0.020 A 
HETATM   29  C20 UNL     1      27.731  -0.193  53.380  1.00  0.00     0.116 A 
HETATM   30  N4  UNL     1      27.229  -0.235  54.622  1.00  0.00    -0.272 NA
HETATM   31  C21 UNL     1      25.876  -0.248  54.788  1.00  0.00     0.130 A 
ENDBRANCH  24  26
ENDBRANCH   6  20
TORSDOF 5
ENDMDL
MODEL 3
REMARK VINA RESULT:      -8.8      2.575      6.426
REMARK  5 active torsions:
REMARK  status: ('A' for Active; 'I' for Inactive)
REMARK    1  A    between atoms: O1_2  and  C2_3 
REMARK    2  A    between atoms: C7_8  and  C8_9 
REMARK       I    between atoms: C8_9  and  N1_11 
REMARK    3  A    between atoms: N1_11  and  C9_12 
REMARK    4  A    between atoms: N2_17  and  C13_18 
REMARK    5  A    between atoms: C16_22  and  C17_23 
ROOT
HETATM    1  C9  UNL     1      23.008   4.392  50.599  1.00  0.00     0.052 C 
HETATM    2  C10 UNL     1      21.934   3.862  50.036  1.00  0.00     0.164 C 
HETATM    3  O3  UNL     1      20.880   3.181  50.631  1.00  0.00    -0.335 OA
HETATM    4  C11 UNL     1      20.976   2.925  52.019  1.00  0.00     0.242 C 
HETATM    5  C12 UNL     1      20.283   1.591  52.237  1.00  0.00     0.064 C 
HETATM    6  N2  UNL     1      22.386   2.844  52.343  1.00  0.00    -0.182 N 
HETATM    7  C22 UNL     1      22.951   4.153  52.088  1.00  0.00     0.203 C 
ENDROOT
BRANCH   1   8
HETATM    8  N1  UNL     1      24.091   5.086  50.026  1.00  0.00    -0.323 N 
HETATM    9  C8  UNL     1      25.327   4.658  49.528  1.00  0.00     0.258 C 
HETATM   10  O2  UNL     1      25.480   3.408  49.618  1.00  0.00    -0.267 OA
HETATM   11  H8  UNL     1      23.929   6.115  49.968  1.00  0.00     0.169 HD
BRANCH   9  12
HETATM   12  C7  UNL     1      26.407   5.433  48.945  1.00  0.00     0.065 A 
HETATM   13  C2  UNL     1      26.419   6.755  48.574  1.00  0.00     0.084 A 
HETATM   14  C3  UNL     1      27.509   7.395  48.026  1.00  0.00     0.038 A 
HETATM   15  C4  UNL     1      28.671   6.695  47.826  1.00  0.00     0.003 A 
HETATM   16  C5  UNL     1      28.729   5.371  48.174  1.00  0.00     0.001 A 
HETATM   17  C6  UNL     1      27.620   4.772  48.717  1.00  0.00     0.020 A 
BRANCH  13  18
HETATM   18  O1  UNL     1      25.271   7.467  48.766  1.00  0.00    -0.355 OA
HETATM   19  C1  UNL     1      25.247   8.595  49.587  1.00  0.00     0.210 C 
ENDBRANCH  13  18
ENDBRANCH   9  12
ENDBRANCH   1   8
BRANCH   6  20
HETATM   20  C13 UNL     1      23.170   1.760  52.823  1.00  0.00     0.727 A 
HETATM   21  N3  UNL     1      22.558   0.569  52.964  1.00  0.00    -0.075 NA
HETATM   22  C14 UNL     1      23.233  -0.496  53.411  1.00  0.00     0.139 A 
HETATM   23  C15 UNL     1      24.558  -0.355  53.721  1.00  0.00     0.053 A 
HETATM   24  C16 UNL     1      25.215   0.850  53.588  1.00  0.00     0.089 A 
HETATM   25  N5  UNL     1      24.457   1.863  53.133  1.00  0.00    -0.062 NA
BRANCH  24  26
HETATM   26  C17 UNL     1      26.622   1.063  53.902  1.00  0.00     0.011 A 
HETATM   27  C18 UNL     1      27.259   2.130  53.303  1.00  0.00     0.017 A 
HETATM   28  C19 UNL     1      28.603   2.390  53.560  1.00  0.00     0.020 A 
HETATM   29  C20 UNL     1      29.245   1.518  54.443  1.00  0.00     0.116 A 
HETATM   30  N4  UNL     1      28.637   0.478  55.031  1.00  0.00    -0.272 NA
HETATM   31  C21 UNL     1      27.321   0.245  54.763  1.00  0.00     0.130 A 
ENDBRANCH  24  26
ENDBRANCH   6  20
TORSDOF 5
ENDMDL
MODEL 4
REMARK VINA RESULT:      -8.7      3.211      8.087
REMARK  5 active torsions:
REMARK  status: ('A' for Active; 'I' for Inactive)
REMARK    1  A    between atoms: O1_2  and  C2_3 
REMARK    2  A    between atoms: C7_8  and  C8_9 
REMARK       I    between atoms: C8_9  and  N1_11 
REMARK    3  A    between atoms: N1_11  and  C9_12 
REMARK    4  A    between atoms: N2_17  and  C13_18 
REMARK    5  A    between atoms: C16_22  and  C17_23 
ROOT
HETATM    1  C9  UNL     1      20.186   0.996  52.021  1.00  0.00     0.052 C 
HETATM    2  C10 UNL     1      20.281   2.260  52.402  1.00  0.00     0.164 C 
HETATM    3  O3  UNL     1      21.386   3.100  52.378  1.00  0.00    -0.335 OA
HETATM    4  C11 UNL     1      22.619   2.536  51.975  1.00  0.00     0.242 C 
HETATM    5  C12 UNL     1      23.683   3.264  52.777  1.00  0.00     0.064 C 
HETATM    6  N2  UNL     1      22.578   1.127  52.314  1.00  0.00    -0.182 N 
HETATM    7  C22 UNL     1      21.528   0.535  51.511  1.00  0.00     0.203 C 
ENDROOT
BRANCH   1   8
HETATM    8  N1  UNL     1      19.083   0.119  52.033  1.00  0.00    -0.323 N 
HETATM    9  C8  UNL     1      18.682  -0.877  52.931  1.00  0.00     0.258 C 
HETATM   10  O2  UNL     1      19.472  -0.996  53.908  1.00  0.00    -0.267 OA
HETATM   11  H8  UNL     1      18.454   0.247  51.211  1.00  0.00     0.169 HD
BRANCH   9  12
HETATM   12  C7  UNL     1      17.525  -1.752  52.883  1.00  0.00     0.065 A 
HETATM   13  C2  UNL     1      16.291  -1.522  52.325  1.00  0.00     0.084 A 
HETATM   14  C3  UNL     1      15.256  -2.430  52.338  1.00  0.00     0.038 A 
HETATM   15  C4  UNL     1      15.436  -3.651  52.937  1.00  0.00     0.003 A 
HETATM   16  C5  UNL     1      16.644  -3.946  53.514  1.00  0.00     0.001 A 
HETATM   17  C6  UNL     1      17.648  -3.013  53.479  1.00  0.00     0.020 A 
BRANCH  13  18
HETATM   18  O1  UNL     1      16.094  -0.313  51.725  1.00  0.00    -0.355 OA
HETATM   19  C1  UNL     1      15.310   0.674  52.323  1.00  0.00     0.210 C 
ENDBRANCH  13  18
ENDBRANCH   9  12
ENDBRANCH   1   8
BRANCH   6  20
HETATM   20  C13 UNL     1      23.355   0.368  53.229  1.00  0.00     0.727 A 
HETATM   21  N3  UNL     1      22.694  -0.350  54.156  1.00  0.00    -0.075 NA
HETATM   22  C14 UNL     1      23.360  -1.089  55.050  1.00  0.00     0.139 A 
HETATM   23  C15 UNL     1      24.726  -1.103  55.007  1.00  0.00     0.053 A 
HETATM   24  C16 UNL     1      25.436  -0.380  54.071  1.00  0.00     0.089 A 
HETATM   25  N5  UNL     1      24.682   0.332  53.215  1.00  0.00    -0.062 NA
BRANCH  24  26
HETATM   26  C17 UNL     1      26.889  -0.354  53.974  1.00  0.00     0.011 A 
HETATM   27  C18 UNL     1      27.499  -1.325  53.207  1.00  0.00     0.017 A 
HETATM   28  C19 UNL     1      28.884  -1.358  53.073  1.00  0.00     0.020 A 
HETATM   29  C20 UNL     1      29.597  -0.367  53.752  1.00  0.00     0.116 A 
HETATM   30  N4  UNL     1      29.016   0.582  54.501  1.00  0.00    -0.272 NA
HETATM   31  C21 UNL     1      27.658   0.592  54.617  1.00  0.00     0.130 A 
ENDBRANCH  24  26
ENDBRANCH   6  20
TORSDOF 5
ENDMDL
MODEL 5
REMARK VINA RESULT:      -8.6      2.448      5.570
REMARK  5 active torsions:
REMARK  status: ('A' for Active; 'I' for Inactive)
REMARK    1  A    between atoms: O1_2  and  C2_3 
REMARK    2  A    between atoms: C7_8  and  C8_9 
REMARK       I    between atoms: C8_9  and  N1_11 
REMARK    3  A    between atoms: N1_11  and  C9_12 
REMARK    4  A    between atoms: N2_17  and  C13_18 
REMARK    5  A    between atoms: C16_22  and  C17_23 
ROOT
HETATM    1  C9  UNL     1      24.460   1.976  51.927  1.00  0.00     0.052 C 
HETATM    2  C10 UNL     1      23.985   2.344  50.747  1.00  0.00     0.164 C 
HETATM    3  O3  UNL     1      22.770   2.941  50.440  1.00  0.00    -0.335 OA
HETATM    4  C11 UNL     1      21.851   3.120  51.501  1.00  0.00     0.242 C 
HETATM    5  C12 UNL     1      20.475   2.960  50.879  1.00  0.00     0.064 C 
HETATM    6  N2  UNL     1      22.111   2.078  52.474  1.00  0.00    -0.182 N 
HETATM    7  C22 UNL     1      23.444   2.312  52.990  1.00  0.00     0.203 C 
ENDROOT
BRANCH   1   8
HETATM    8  N1  UNL     1      25.684   1.370  52.270  1.00  0.00    -0.323 N 
HETATM    9  C8  UNL     1      25.999   0.104  52.776  1.00  0.00     0.258 C 
HETATM   10  O2  UNL     1      24.977  -0.617  52.951  1.00  0.00    -0.267 OA
HETATM   11  H8  UNL     1      26.504   1.995  52.112  1.00  0.00     0.169 HD
BRANCH   9  12
HETATM   12  C7  UNL     1      27.292  -0.462  53.111  1.00  0.00     0.065 A 
HETATM   13  C2  UNL     1      28.334   0.111  53.799  1.00  0.00     0.084 A 
HETATM   14  C3  UNL     1      29.528  -0.523  54.062  1.00  0.00     0.038 A 
HETATM   15  C4  UNL     1      29.721  -1.808  53.624  1.00  0.00     0.003 A 
HETATM   16  C5  UNL     1      28.722  -2.440  52.930  1.00  0.00     0.001 A 
HETATM   17  C6  UNL     1      27.548  -1.773  52.689  1.00  0.00     0.020 A 
BRANCH  13  18
HETATM   18  O1  UNL     1      28.160   1.389  54.243  1.00  0.00    -0.355 OA
HETATM   19  C1  UNL     1      28.866   2.453  53.682  1.00  0.00     0.210 C 
ENDBRANCH  13  18
ENDBRANCH   9  12
ENDBRANCH   1   8
BRANCH   6  20
HETATM   20  C13 UNL     1      21.305   0.996  52.917  1.00  0.00     0.727 A 
HETATM   21  N3  UNL     1      21.781   0.240  53.924  1.00  0.00    -0.075 NA
HETATM   22  C14 UNL     1      21.075  -0.795  54.393  1.00  0.00     0.139 A 
HETATM   23  C15 UNL     1      19.860  -1.074  53.831  1.00  0.00     0.053 A 
HETATM   24  C16 UNL     1      19.343  -0.321  52.797  1.00  0.00     0.089 A 
HETATM   25  N5  UNL     1      20.121   0.698  52.394  1.00  0.00    -0.062 NA
BRANCH  24  26
HETATM   26  C17 UNL     1      18.057  -0.568  52.158  1.00  0.00     0.011 A 
HETATM   27  C18 UNL     1      17.884  -0.114  50.867  1.00  0.00     0.017 A 
HETATM   28  C19 UNL     1      16.680  -0.318  50.198  1.00  0.00     0.020 A 
HETATM   29  C20 UNL     1      15.684  -0.994  50.906  1.00  0.00     0.116 A 
HETATM   30  N4  UNL     1      15.840  -1.440  52.161  1.00  0.00    -0.272 NA
HETATM   31  C21 UNL     1      17.028  -1.228  52.794  1.00  0.00     0.130 A 
ENDBRANCH  24  26
ENDBRANCH   6  20
TORSDOF 5
ENDMDL
MODEL 6
REMARK VINA RESULT:      -8.5      4.570      7.783
REMARK  5 active torsions:
REMARK  status: ('A' for Active; 'I' for Inactive)
REMARK    1  A    between atoms: O1_2  and  C2_3 
REMARK    2  A    between atoms: C7_8  and  C8_9 
REMARK       I    between atoms: C8_9  and  N1_11 
REMARK    3  A    between atoms: N1_11  and  C9_12 
REMARK    4  A    between atoms: N2_17  and  C13_18 
REMARK    5  A    between atoms: C16_22  and  C17_23 
ROOT
HETATM    1  C9  UNL     1      26.496   5.135  49.681  1.00  0.00     0.052 C 
HETATM    2  C10 UNL     1      25.824   6.275  49.652  1.00  0.00     0.164 C 
HETATM    3  O3  UNL     1      25.884   7.303  48.721  1.00  0.00    -0.335 OA
HETATM    4  C11 UNL     1      26.849   7.189  47.692  1.00  0.00     0.242 C 
HETATM    5  C12 UNL     1      27.294   8.609  47.391  1.00  0.00     0.064 C 
HETATM    6  N2  UNL     1      27.943   6.396  48.217  1.00  0.00    -0.182 N 
HETATM    7  C22 UNL     1      27.411   5.075  48.484  1.00  0.00     0.203 C 
ENDROOT
BRANCH   1   8
HETATM    8  N1  UNL     1      26.457   4.076  50.608  1.00  0.00    -0.323 N 
HETATM    9  C8  UNL     1      25.549   3.029  50.805  1.00  0.00     0.258 C 
HETATM   10  O2  UNL     1      24.591   3.057  49.983  1.00  0.00    -0.267 OA
HETATM   11  H8  UNL     1      27.264   4.086  51.270  1.00  0.00     0.169 HD
BRANCH   9  12
HETATM   12  C7  UNL     1      25.569   1.961  51.788  1.00  0.00     0.065 A 
HETATM   13  C2  UNL     1      26.618   1.509  52.552  1.00  0.00     0.084 A 
HETATM   14  C3  UNL     1      26.524   0.480  53.462  1.00  0.00     0.038 A 
HETATM   15  C4  UNL     1      25.322  -0.154  53.642  1.00  0.00     0.003 A 
HETATM   16  C5  UNL     1      24.234   0.246  52.911  1.00  0.00     0.001 A 
HETATM   17  C6  UNL     1      24.370   1.275  52.015  1.00  0.00     0.020 A 
BRANCH  13  18
HETATM   18  O1  UNL     1      27.822   2.129  52.386  1.00  0.00    -0.355 OA
HETATM   19  C1  UNL     1      28.606   2.493  53.482  1.00  0.00     0.210 C 
ENDBRANCH  13  18
ENDBRANCH   9  12
ENDBRANCH   1   8
BRANCH   6  20
HETATM   20  C13 UNL     1      29.301   6.732  48.464  1.00  0.00     0.727 A 
HETATM   21  N3  UNL     1      29.557   7.964  48.940  1.00  0.00    -0.075 NA
HETATM   22  C14 UNL     1      30.812   8.350  49.196  1.00  0.00     0.139 A 
HETATM   23  C15 UNL     1      31.832   7.469  48.965  1.00  0.00     0.053 A 
HETATM   24  C16 UNL     1      31.606   6.199  48.478  1.00  0.00     0.089 A 
HETATM   25  N5  UNL     1      30.315   5.901  48.251  1.00  0.00    -0.062 NA
BRANCH  24  26
HETATM   26  C17 UNL     1      32.650   5.218  48.211  1.00  0.00     0.011 A 
HETATM   27  C18 UNL     1      32.277   4.029  47.621  1.00  0.00     0.017 A 
HETATM   28  C19 UNL     1      33.224   3.048  47.339  1.00  0.00     0.020 A 
HETATM   29  C20 UNL     1      34.544   3.343  47.688  1.00  0.00     0.116 A 
HETATM   30  N4  UNL     1      34.919   4.495  48.262  1.00  0.00    -0.272 NA
HETATM   31  C21 UNL     1      33.972   5.439  48.528  1.00  0.00     0.130 A 
ENDBRANCH  24  26
ENDBRANCH   6  20
TORSDOF 5
ENDMDL
MODEL 7
REMARK VINA RESULT:      -8.4      2.153      7.283
REMARK  5 active torsions:
REMARK  status: ('A' for Active; 'I' for Inactive)
REMARK    1  A    between atoms: O1_2  and  C2_3 
REMARK    2  A    between atoms: C7_8  and  C8_9 
REMARK       I    between atoms: C8_9  and  N1_11 
REMARK    3  A    between atoms: N1_11  and  C9_12 
REMARK    4  A    between atoms: N2_17  and  C13_18 
REMARK    5  A    between atoms: C16_22  and  C17_23 
ROOT
HETATM    1  C9  UNL     1      26.770   2.041  51.646  1.00  0.00     0.052 C 
HETATM    2  C10 UNL     1      27.622   2.402  52.592  1.00  0.00     0.164 C 
HETATM    3  O3  UNL     1      28.266   1.613  53.536  1.00  0.00    -0.335 OA
HETATM    4  C11 UNL     1      27.923   0.241  53.576  1.00  0.00     0.242 C 
HETATM    5  C12 UNL     1      28.032  -0.165  55.035  1.00  0.00     0.064 C 
HETATM    6  N2  UNL     1      26.559   0.126  53.099  1.00  0.00    -0.182 N 
HETATM    7  C22 UNL     1      26.563   0.549  51.714  1.00  0.00     0.203 C 
ENDROOT
BRANCH   1   8
HETATM    8  N1  UNL     1      26.102   2.815  50.676  1.00  0.00    -0.323 N 
HETATM    9  C8  UNL     1      24.771   3.233  50.558  1.00  0.00     0.258 C 
HETATM   10  O2  UNL     1      24.050   2.831  51.513  1.00  0.00    -0.267 OA
HETATM   11  H8  UNL     1      26.729   3.128  49.904  1.00  0.00     0.169 HD
BRANCH   9  12
HETATM   12  C7  UNL     1      24.143   4.035  49.525  1.00  0.00     0.065 A 
HETATM   13  C2  UNL     1      24.458   5.305  49.106  1.00  0.00     0.084 A 
HETATM   14  C3  UNL     1      23.790   5.978  48.107  1.00  0.00     0.038 A 
HETATM   15  C4  UNL     1      22.740   5.369  47.470  1.00  0.00     0.003 A 
HETATM   16  C5  UNL     1      22.372   4.101  47.838  1.00  0.00     0.001 A 
HETATM   17  C6  UNL     1      23.064   3.466  48.838  1.00  0.00     0.020 A 
BRANCH  13  18
HETATM   18  O1  UNL     1      25.501   5.926  49.729  1.00  0.00    -0.355 OA
HETATM   19  C1  UNL     1      25.317   7.113  50.439  1.00  0.00     0.210 C 
ENDBRANCH  13  18
ENDBRANCH   9  12
ENDBRANCH   1   8
BRANCH   6  20
HETATM   20  C13 UNL     1      25.376  -0.301  53.758  1.00  0.00     0.727 A 
HETATM   21  N3  UNL     1      25.514  -0.882  54.964  1.00  0.00    -0.075 NA
HETATM   22  C14 UNL     1      24.444  -1.309  55.644  1.00  0.00     0.139 A 
HETATM   23  C15 UNL     1      23.204  -1.145  55.091  1.00  0.00     0.053 A 
HETATM   24  C16 UNL     1      23.026  -0.554  53.858  1.00  0.00     0.089 A 
HETATM   25  N5  UNL     1      24.157  -0.157  53.251  1.00  0.00    -0.062 NA
BRANCH  24  26
HETATM   26  C17 UNL     1      21.732  -0.353  53.218  1.00  0.00     0.011 A 
HETATM   27  C18 UNL     1      21.722   0.183  51.947  1.00  0.00     0.017 A 
HETATM   28  C19 UNL     1      20.520   0.402  51.277  1.00  0.00     0.020 A 
HETATM   29  C20 UNL     1      19.356   0.052  51.965  1.00  0.00     0.116 A 
HETATM   30  N4  UNL     1      19.353  -0.469  53.200  1.00  0.00    -0.272 NA
HETATM   31  C21 UNL     1      20.543  -0.674  53.834  1.00  0.00     0.130 A 
ENDBRANCH  24  26
ENDBRANCH   6  20
TORSDOF 5
ENDMDL
MODEL 8
REMARK VINA RESULT:      -8.4      2.493      3.860
REMARK  5 active torsions:
REMARK  status: ('A' for Active; 'I' for Inactive)
REMARK    1  A    between atoms: O1_2  and  C2_3 
REMARK    2  A    between atoms: C7_8  and  C8_9 
REMARK       I    between atoms: C8_9  and  N1_11 
REMARK    3  A    between atoms: N1_11  and  C9_12 
REMARK    4  A    between atoms: N2_17  and  C13_18 
REMARK    5  A    between atoms: C16_22  and  C17_23 
ROOT
HETATM    1  C9  UNL     1      24.022   3.319  51.946  1.00  0.00     0.052 C 
HETATM    2  C10 UNL     1      23.376   4.114  52.784  1.00  0.00     0.164 C 
HETATM    3  O3  UNL     1      22.317   4.975  52.533  1.00  0.00    -0.335 OA
HETATM    4  C11 UNL     1      21.899   5.112  51.188  1.00  0.00     0.242 C 
HETATM    5  C12 UNL     1      21.433   6.550  51.049  1.00  0.00     0.064 C 
HETATM    6  N2  UNL     1      23.053   4.850  50.352  1.00  0.00    -0.182 N 
HETATM    7  C22 UNL     1      23.423   3.467  50.570  1.00  0.00     0.203 C 
ENDROOT
BRANCH   1   8
HETATM    8  N1  UNL     1      25.097   2.437  52.170  1.00  0.00    -0.323 N 
HETATM    9  C8  UNL     1      25.154   1.129  52.665  1.00  0.00     0.258 C 
HETATM   10  O2  UNL     1      24.015   0.671  52.959  1.00  0.00    -0.267 OA
HETATM   11  H8  UNL     1      26.021   2.850  51.915  1.00  0.00     0.169 HD
BRANCH   9  12
HETATM   12  C7  UNL     1      26.305   0.269  52.872  1.00  0.00     0.065 A 
HETATM   13  C2  UNL     1      27.522   0.574  53.432  1.00  0.00     0.084 A 
HETATM   14  C3  UNL     1      28.552  -0.328  53.581  1.00  0.00     0.038 A 
HETATM   15  C4  UNL     1      28.385  -1.620  53.153  1.00  0.00     0.003 A 
HETATM   16  C5  UNL     1      27.195  -1.992  52.584  1.00  0.00     0.001 A 
HETATM   17  C6  UNL     1      26.195  -1.063  52.455  1.00  0.00     0.020 A 
BRANCH  13  18
HETATM   18  O1  UNL     1      27.706   1.855  53.863  1.00  0.00    -0.355 OA
HETATM   19  C1  UNL     1      28.961   2.463  53.815  1.00  0.00     0.210 C 
ENDBRANCH  13  18
ENDBRANCH   9  12
ENDBRANCH   1   8
BRANCH   6  20
HETATM   20  C13 UNL     1      23.765   5.695  49.459  1.00  0.00     0.727 A 
HETATM   21  N3  UNL     1      23.056   6.612  48.775  1.00  0.00    -0.075 NA
HETATM   22  C14 UNL     1      23.660   7.441  47.917  1.00  0.00     0.139 A 
HETATM   23  C15 UNL     1      25.013   7.341  47.745  1.00  0.00     0.053 A 
HETATM   24  C16 UNL     1      25.771   6.413  48.428  1.00  0.00     0.089 A 
HETATM   25  N5  UNL     1      25.078   5.624  49.268  1.00  0.00    -0.062 NA
BRANCH  24  26
HETATM   26  C17 UNL     1      27.213   6.258  48.288  1.00  0.00     0.011 A 
HETATM   27  C18 UNL     1      27.934   7.345  47.838  1.00  0.00     0.017 A 
HETATM   28  C19 UNL     1      29.315   7.265  47.681  1.00  0.00     0.020 A 
HETATM   29  C20 UNL     1      29.905   6.039  48.000  1.00  0.00     0.116 A 
HETATM   30  N4  UNL     1      29.215   4.976  48.437  1.00  0.00    -0.272 NA
HETATM   31  C21 UNL     1      27.864   5.080  48.582  1.00  0.00     0.130 A 
ENDBRANCH  24  26
ENDBRANCH   6  20
TORSDOF 5
ENDMDL
MODEL 9
REMARK VINA RESULT:      -8.3      2.679      6.694
REMARK  5 active torsions:
REMARK  status: ('A' for Active; 'I' for Inactive)
REMARK    1  A    between atoms: O1_2  and  C2_3 
REMARK    2  A    between atoms: C7_8  and  C8_9 
REMARK       I    between atoms: C8_9  and  N1_11 
REMARK    3  A    between atoms: N1_11  and  C9_12 
REMARK    4  A    between atoms: N2_17  and  C13_18 
REMARK    5  A    between atoms: C16_22  and  C17_23 
ROOT
HETATM    1  C9  UNL     1      25.696   2.268  52.544  1.00  0.00     0.052 C 
HETATM    2  C10 UNL     1      26.251   2.221  53.745  1.00  0.00     0.164 C 
HETATM    3  O3  UNL     1      26.419   1.132  54.589  1.00  0.00    -0.335 OA
HETATM    4  C11 UNL     1      25.856  -0.099  54.177  1.00  0.00     0.242 C 
HETATM    5  C12 UNL     1      25.425  -0.799  55.454  1.00  0.00     0.064 C 
HETATM    6  N2  UNL     1      24.716   0.210  53.337  1.00  0.00    -0.182 N 
HETATM    7  C22 UNL     1      25.231   0.884  52.164  1.00  0.00     0.203 C 
ENDROOT
BRANCH   1   8
HETATM    8  N1  UNL     1      25.511   3.354  51.666  1.00  0.00    -0.323 N 
HETATM    9  C8  UNL     1      26.083   3.672  50.428  1.00  0.00     0.258 C 
HETATM   10  O2  UNL     1      26.920   2.809  50.044  1.00  0.00    -0.267 OA
HETATM   11  H8  UNL     1      24.814   4.045  52.017  1.00  0.00     0.169 HD
BRANCH   9  12
HETATM   12  C7  UNL     1      25.845   4.817  49.569  1.00  0.00     0.065 A 
HETATM   13  C2  UNL     1      24.652   5.393  49.206  1.00  0.00     0.084 A 
HETATM   14  C3  UNL     1      24.542   6.487  48.377  1.00  0.00     0.038 A 
HETATM   15  C4  UNL     1      25.676   7.062  47.865  1.00  0.00     0.003 A 
HETATM   16  C5  UNL     1      26.900   6.538  48.185  1.00  0.00     0.001 A 
HETATM   17  C6  UNL     1      26.966   5.447  49.015  1.00  0.00     0.020 A 
BRANCH  13  18
HETATM   18  O1  UNL     1      23.513   4.834  49.707  1.00  0.00    -0.355 OA
HETATM   19  C1  UNL     1      22.726   5.507  50.642  1.00  0.00     0.210 C 
ENDBRANCH  13  18
ENDBRANCH   9  12
ENDBRANCH   1   8
BRANCH   6  20
HETATM   20  C13 UNL     1      23.330  -0.044  53.520  1.00  0.00     0.727 A 
HETATM   21  N3  UNL     1      22.989  -1.115  54.259  1.00  0.00    -0.075 NA
HETATM   22  C14 UNL     1      21.703  -1.416  54.473  1.00  0.00     0.139 A 
HETATM   23  C15 UNL     1      20.739  -0.615  53.927  1.00  0.00     0.053 A 
HETATM   24  C16 UNL     1      21.053   0.491  53.164  1.00  0.00     0.089 A 
HETATM   25  N5  UNL     1      22.369   0.713  53.003  1.00  0.00    -0.062 NA
BRANCH  24  26
HETATM   26  C17 UNL     1      20.072   1.380  52.555  1.00  0.00     0.011 A 
HETATM   27  C18 UNL     1      18.979   0.806  51.940  1.00  0.00     0.017 A 
HETATM   28  C19 UNL     1      18.004   1.598  51.339  1.00  0.00     0.020 A 
HETATM   29  C20 UNL     1      18.205   2.979  51.399  1.00  0.00     0.116 A 
HETATM   30  N4  UNL     1      19.262   3.549  51.994  1.00  0.00    -0.272 NA
HETATM   31  C21 UNL     1      20.203   2.751  52.575  1.00  0.00     0.130 A 
ENDBRANCH  24  26
ENDBRANCH   6  20
TORSDOF 5
ENDMDL
