MODEL 1
REMARK VINA RESULT:      -7.9      0.000      0.000
REMARK  4 active torsions:
REMARK  status: ('A' for Active; 'I' for Inactive)
REMARK    1  A    between atoms: N1_2  and  C2_3 
REMARK    2  A    between atoms: C2_3  and  C3_4 
REMARK    3  A    between atoms: C12_16  and  C13_17 
REMARK    4  A    between atoms: N5_26  and  O1_27 
ROOT
HETATM    1  C3  UNL     1      20.822   3.251  48.689  1.00  0.00    -0.002 C 
HETATM    2  C4  UNL     1      20.451   3.140  50.002  1.00  0.00    -0.042 C 
HETATM    3  C5  UNL     1      21.725   3.278  50.786  1.00  0.00     0.141 C 
HETATM    4 CL1  UNL     1      21.502   4.138  52.334  1.00  0.00    -0.118 Cl
HETATM    5  C6  UNL     1      22.534   2.017  50.916  1.00  0.00     0.153 C 
HETATM    6  C7  UNL     1      21.904   1.072  49.873  1.00  0.00     0.001 C 
HETATM    7  C8  UNL     1      20.642   0.568  50.026  1.00  0.00     0.014 C 
HETATM    8  C9  UNL     1      19.581   0.909  51.052  1.00  0.00     0.207 C 
HETATM    9  N2  UNL     1      19.228  -0.100  51.933  1.00  0.00    -0.363 N 
HETATM   10  C10 UNL     1      20.010  -0.043  53.165  1.00  0.00     0.198 C 
HETATM   11  N3  UNL     1      20.822   0.029  54.148  1.00  0.00    -0.279 NA
HETATM   12  C11 UNL     1      22.222   0.217  54.185  1.00  0.00     0.209 C 
HETATM   13  C12 UNL     1      22.882   0.821  53.031  1.00  0.00     0.060 C 
HETATM   14  N4  UNL     1      22.196   1.354  52.152  1.00  0.00    -0.281 NA
HETATM   15  N5  UNL     1      18.545   1.592  50.339  1.00  0.00    -0.164 NA
HETATM   16  C20 UNL     1      18.966   2.953  50.022  1.00  0.00     0.115 C 
HETATM   17  C21 UNL     1      18.273   3.870  51.004  1.00  0.00     0.033 C 
HETATM   18  H13 UNL     1      18.623  -0.921  52.117  1.00  0.00     0.162 HD
ENDROOT
BRANCH  13  19
HETATM   19  C13 UNL     1      24.339   0.760  53.024  1.00  0.00    -0.001 A 
HETATM   20  C14 UNL     1      24.759  -0.546  52.766  1.00  0.00     0.056 A 
HETATM   21  C15 UNL     1      26.118  -0.856  52.708  1.00  0.00     0.117 A 
HETATM   22  F1  UNL     1      26.597  -2.094  52.463  1.00  0.00    -0.206 F 
HETATM   23  C16 UNL     1      27.059   0.134  52.909  1.00  0.00     0.043 A 
HETATM   24  C17 UNL     1      26.623   1.403  53.160  1.00  0.00     0.011 A 
HETATM   25  C18 UNL     1      25.288   1.740  53.223  1.00  0.00    -0.050 A 
HETATM   26  C19 UNL     1      24.695   3.069  53.485  1.00  0.00     0.049 C 
ENDBRANCH  13  19
BRANCH   1  27
HETATM   27  C2  UNL     1      21.974   3.450  47.757  1.00  0.00     0.141 C 
BRANCH  27  28
HETATM   28  N1  UNL     1      22.299   4.793  47.469  1.00  0.00    -0.422 N 
HETATM   29  C1  UNL     1      23.315   5.418  48.227  1.00  0.00     0.140 C 
HETATM   30  H4  UNL     1      21.741   5.330  46.822  1.00  0.00     0.153 HD
ENDBRANCH  27  28
ENDBRANCH   1  27
BRANCH  15  31
HETATM   31  O1  UNL     1      18.026   0.934  49.302  1.00  0.00    -0.310 OA
HETATM   32  H23 UNL     1      18.058   1.419  48.459  1.00  0.00     0.237 HD
ENDBRANCH  15  31
TORSDOF 4
ENDMDL
MODEL 2
REMARK VINA RESULT:      -7.8      2.279      3.097
REMARK  4 active torsions:
REMARK  status: ('A' for Active; 'I' for Inactive)
REMARK    1  A    between atoms: N1_2  and  C2_3 
REMARK    2  A    between atoms: C2_3  and  C3_4 
REMARK    3  A    between atoms: C12_16  and  C13_17 
REMARK    4  A    between atoms: N5_26  and  O1_27 
ROOT
HETATM    1  C3  UNL     1      24.557   5.539  49.281  1.00  0.00    -0.002 C 
HETATM    2  C4  UNL     1      23.626   5.075  50.170  1.00  0.00    -0.042 C 
HETATM    3  C5  UNL     1      24.419   4.468  51.292  1.00  0.00     0.141 C 
HETATM    4 CL1  UNL     1      23.658   4.703  52.890  1.00  0.00    -0.118 Cl
HETATM    5  C6  UNL     1      24.885   3.058  51.056  1.00  0.00     0.153 C 
HETATM    6  C7  UNL     1      24.655   2.848  49.546  1.00  0.00     0.001 C 
HETATM    7  C8  UNL     1      23.399   2.782  49.010  1.00  0.00     0.014 C 
HETATM    8  C9  UNL     1      22.054   3.048  49.656  1.00  0.00     0.207 C 
HETATM    9  N2  UNL     1      21.197   1.965  49.767  1.00  0.00    -0.363 N 
HETATM   10  C10 UNL     1      21.344   1.287  51.052  1.00  0.00     0.198 C 
HETATM   11  N3  UNL     1      21.631   0.705  52.152  1.00  0.00    -0.279 NA
HETATM   12  C11 UNL     1      22.875   0.380  52.735  1.00  0.00     0.209 C 
HETATM   13  C12 UNL     1      24.064   1.112  52.308  1.00  0.00     0.060 C 
HETATM   14  N4  UNL     1      23.933   2.135  51.626  1.00  0.00    -0.281 NA
HETATM   15  N5  UNL     1      21.563   4.255  49.066  1.00  0.00    -0.164 NA
HETATM   16  C20 UNL     1      22.280   5.407  49.605  1.00  0.00     0.115 C 
HETATM   17  C21 UNL     1      21.366   6.063  50.616  1.00  0.00     0.033 C 
HETATM   18  H13 UNL     1      20.459   1.392  49.320  1.00  0.00     0.162 HD
ENDROOT
BRANCH  13  19
HETATM   19  C13 UNL     1      25.343   0.571  52.755  1.00  0.00    -0.001 A 
HETATM   20  C14 UNL     1      25.535  -0.702  52.212  1.00  0.00     0.056 A 
HETATM   21  C15 UNL     1      26.693  -1.426  52.495  1.00  0.00     0.117 A 
HETATM   22  F1  UNL     1      26.947  -2.659  52.007  1.00  0.00    -0.206 F 
HETATM   23  C16 UNL     1      27.659  -0.885  53.319  1.00  0.00     0.043 A 
HETATM   24  C17 UNL     1      27.448   0.361  53.838  1.00  0.00     0.011 A 
HETATM   25  C18 UNL     1      26.314   1.100  53.576  1.00  0.00    -0.050 A 
HETATM   26  C19 UNL     1      25.973   2.451  54.073  1.00  0.00     0.049 C 
ENDBRANCH  13  19
BRANCH   1  27
HETATM   27  C2  UNL     1      26.020   5.672  49.000  1.00  0.00     0.141 C 
BRANCH  27  28
HETATM   28  N1  UNL     1      26.669   6.743  49.653  1.00  0.00    -0.422 N 
HETATM   29  C1  UNL     1      25.895   7.853  50.058  1.00  0.00     0.140 C 
HETATM   30  H4  UNL     1      27.675   6.770  49.721  1.00  0.00     0.153 HD
ENDBRANCH  27  28
ENDBRANCH   1  27
BRANCH  15  31
HETATM   31  O1  UNL     1      21.471   4.253  47.736  1.00  0.00    -0.310 OA
HETATM   32  H23 UNL     1      21.920   3.507  47.301  1.00  0.00     0.237 HD
ENDBRANCH  15  31
TORSDOF 4
ENDMDL
MODEL 3
REMARK VINA RESULT:      -7.7      9.473     12.428
REMARK  4 active torsions:
REMARK  status: ('A' for Active; 'I' for Inactive)
REMARK    1  A    between atoms: N1_2  and  C2_3 
REMARK    2  A    between atoms: C2_3  and  C3_4 
REMARK    3  A    between atoms: C12_16  and  C13_17 
REMARK    4  A    between atoms: N5_26  and  O1_27 
ROOT
HETATM    1  C3  UNL     1      27.736   7.964  48.081  1.00  0.00    -0.002 C 
HETATM    2  C4  UNL     1      28.551   8.722  47.284  1.00  0.00    -0.042 C 
HETATM    3  C5  UNL     1      29.541   7.756  46.697  1.00  0.00     0.141 C 
HETATM    4 CL1  UNL     1      30.001   8.163  45.021  1.00  0.00    -0.118 Cl
HETATM    5  C6  UNL     1      30.716   7.433  47.577  1.00  0.00     0.153 C 
HETATM    6  C7  UNL     1      30.297   7.975  48.957  1.00  0.00     0.001 C 
HETATM    7  C8  UNL     1      30.174   9.316  49.198  1.00  0.00     0.014 C 
HETATM    8  C9  UNL     1      30.235  10.483  48.235  1.00  0.00     0.207 C 
HETATM    9  N2  UNL     1      31.293  11.363  48.396  1.00  0.00    -0.363 N 
HETATM   10  C10 UNL     1      32.433  11.000  47.559  1.00  0.00     0.198 C 
HETATM   11  N3  UNL     1      33.405  10.532  46.876  1.00  0.00    -0.279 NA
HETATM   12  C11 UNL     1      33.903   9.216  46.749  1.00  0.00     0.209 C 
HETATM   13  C12 UNL     1      33.027   8.097  47.080  1.00  0.00     0.060 C 
HETATM   14  N4  UNL     1      31.819   8.302  47.245  1.00  0.00    -0.281 NA
HETATM   15  N5  UNL     1      28.907  11.011  48.168  1.00  0.00    -0.164 NA
HETATM   16  C20 UNL     1      28.056  10.132  47.370  1.00  0.00     0.115 C 
HETATM   17  C21 UNL     1      27.898  10.782  46.014  1.00  0.00     0.033 C 
HETATM   18  H13 UNL     1      31.654  12.210  48.872  1.00  0.00     0.162 HD
ENDROOT
BRANCH  13  19
HETATM   19  C13 UNL     1      33.666   6.789  47.170  1.00  0.00    -0.001 A 
HETATM   20  C14 UNL     1      34.312   6.660  48.402  1.00  0.00     0.056 A 
HETATM   21  C15 UNL     1      34.998   5.488  48.723  1.00  0.00     0.117 A 
HETATM   22  F1  UNL     1      35.644   5.292  49.892  1.00  0.00    -0.206 F 
HETATM   23  C16 UNL     1      35.042   4.446  47.819  1.00  0.00     0.043 A 
HETATM   24  C17 UNL     1      34.403   4.598  46.622  1.00  0.00     0.011 A 
HETATM   25  C18 UNL     1      33.718   5.742  46.276  1.00  0.00    -0.050 A 
HETATM   26  C19 UNL     1      32.990   6.023  45.019  1.00  0.00     0.049 C 
ENDBRANCH  13  19
BRANCH   1  27
HETATM   27  C2  UNL     1      27.458   6.583  48.582  1.00  0.00     0.141 C 
BRANCH  27  28
HETATM   28  N1  UNL     1      26.608   6.504  49.708  1.00  0.00    -0.422 N 
HETATM   29  C1  UNL     1      25.879   7.655  50.083  1.00  0.00     0.140 C 
HETATM   30  H4  UNL     1      26.612   5.687  50.298  1.00  0.00     0.153 HD
ENDBRANCH  27  28
ENDBRANCH   1  27
BRANCH  15  31
HETATM   31  O1  UNL     1      28.367  11.370  49.332  1.00  0.00    -0.310 OA
HETATM   32  H23 UNL     1      28.818  11.008  50.115  1.00  0.00     0.237 HD
ENDBRANCH  15  31
TORSDOF 4
ENDMDL
MODEL 4
REMARK VINA RESULT:      -7.6     10.283     13.624
REMARK  4 active torsions:
REMARK  status: ('A' for Active; 'I' for Inactive)
REMARK    1  A    between atoms: N1_2  and  C2_3 
REMARK    2  A    between atoms: C2_3  and  C3_4 
REMARK    3  A    between atoms: C12_16  and  C13_17 
REMARK    4  A    between atoms: N5_26  and  O1_27 
ROOT
HETATM    1  C3  UNL     1      33.915   6.901  48.224  1.00  0.00    -0.002 C 
HETATM    2  C4  UNL     1      32.769   6.510  47.587  1.00  0.00    -0.042 C 
HETATM    3  C5  UNL     1      32.554   7.524  46.500  1.00  0.00     0.141 C 
HETATM    4 CL1  UNL     1      31.857   6.818  45.016  1.00  0.00    -0.118 Cl
HETATM    5  C6  UNL     1      31.871   8.792  46.934  1.00  0.00     0.153 C 
HETATM    6  C7  UNL     1      31.937   8.730  48.473  1.00  0.00     0.001 C 
HETATM    7  C8  UNL     1      31.221   7.811  49.189  1.00  0.00     0.014 C 
HETATM    8  C9  UNL     1      30.408   6.627  48.707  1.00  0.00     0.207 C 
HETATM    9  N2  UNL     1      29.042   6.683  48.935  1.00  0.00    -0.363 N 
HETATM   10  C10 UNL     1      28.326   7.256  47.797  1.00  0.00     0.198 C 
HETATM   11  N3  UNL     1      27.814   7.869  46.801  1.00  0.00    -0.279 NA
HETATM   12  C11 UNL     1      28.224   9.034  46.117  1.00  0.00     0.209 C 
HETATM   13  C12 UNL     1      29.619   9.454  46.215  1.00  0.00     0.060 C 
HETATM   14  N4  UNL     1      30.452   8.679  46.698  1.00  0.00    -0.281 NA
HETATM   15  N5  UNL     1      31.126   5.460  49.118  1.00  0.00    -0.164 NA
HETATM   16  C20 UNL     1      32.296   5.263  48.267  1.00  0.00     0.115 C 
HETATM   17  C21 UNL     1      31.953   4.158  47.294  1.00  0.00     0.033 C 
HETATM   18  H13 UNL     1      28.261   6.488  49.587  1.00  0.00     0.162 HD
ENDROOT
BRANCH  13  19
HETATM   19  C13 UNL     1      29.925  10.784  45.700  1.00  0.00    -0.001 A 
HETATM   20  C14 UNL     1      29.629  11.747  46.668  1.00  0.00     0.056 A 
HETATM   21  C15 UNL     1      29.840  13.101  46.408  1.00  0.00     0.117 A 
HETATM   22  F1  UNL     1      29.578  14.086  47.293  1.00  0.00    -0.206 F 
HETATM   23  C16 UNL     1      30.342  13.497  45.185  1.00  0.00     0.043 A 
HETATM   24  C17 UNL     1      30.622  12.537  44.256  1.00  0.00     0.011 A 
HETATM   25  C18 UNL     1      30.425  11.192  44.483  1.00  0.00    -0.050 A 
HETATM   26  C19 UNL     1      30.689  10.064  43.564  1.00  0.00     0.049 C 
ENDBRANCH  13  19
BRANCH   1  27
HETATM   27  C2  UNL     1      35.009   7.921  48.256  1.00  0.00     0.141 C 
BRANCH  27  28
HETATM   28  N1  UNL     1      36.255   7.462  48.736  1.00  0.00    -0.422 N 
HETATM   29  C1  UNL     1      36.334   6.151  49.256  1.00  0.00     0.140 C 
HETATM   30  H4  UNL     1      37.038   8.092  48.816  1.00  0.00     0.153 HD
ENDBRANCH  27  28
ENDBRANCH   1  27
BRANCH  15  31
HETATM   31  O1  UNL     1      31.388   5.371  50.422  1.00  0.00    -0.310 OA
HETATM   32  H23 UNL     1      32.047   6.009  50.746  1.00  0.00     0.237 HD
ENDBRANCH  15  31
TORSDOF 4
ENDMDL
MODEL 5
REMARK VINA RESULT:      -7.5      3.309      5.441
REMARK  4 active torsions:
REMARK  status: ('A' for Active; 'I' for Inactive)
REMARK    1  A    between atoms: N1_2  and  C2_3 
REMARK    2  A    between atoms: C2_3  and  C3_4 
REMARK    3  A    between atoms: C12_16  and  C13_17 
REMARK    4  A    between atoms: N5_26  and  O1_27 
ROOT
HETATM    1  C3  UNL     1      21.279   5.929  49.873  1.00  0.00    -0.002 C 
HETATM    2  C4  UNL     1      22.244   4.959  49.875  1.00  0.00    -0.042 C 
HETATM    3  C5  UNL     1      21.498   3.658  49.790  1.00  0.00     0.141 C 
HETATM    4 CL1  UNL     1      22.353   2.425  48.822  1.00  0.00    -0.118 Cl
HETATM    5  C6  UNL     1      20.978   3.133  51.099  1.00  0.00     0.153 C 
HETATM    6  C7  UNL     1      21.117   4.336  52.053  1.00  0.00     0.001 C 
HETATM    7  C8  UNL     1      22.339   4.805  52.448  1.00  0.00     0.014 C 
HETATM    8  C9  UNL     1      23.725   4.428  51.965  1.00  0.00     0.207 C 
HETATM    9  N2  UNL     1      24.554   3.812  52.888  1.00  0.00    -0.363 N 
HETATM   10  C10 UNL     1      24.459   2.356  52.817  1.00  0.00     0.198 C 
HETATM   11  N3  UNL     1      24.217   1.105  52.749  1.00  0.00    -0.279 NA
HETATM   12  C11 UNL     1      22.997   0.397  52.668  1.00  0.00     0.209 C 
HETATM   13  C12 UNL     1      21.809   1.096  52.189  1.00  0.00     0.060 C 
HETATM   14  N4  UNL     1      21.932   2.206  51.658  1.00  0.00    -0.281 NA
HETATM   15  N5  UNL     1      24.218   5.564  51.248  1.00  0.00    -0.164 NA
HETATM   16  C20 UNL     1      23.566   5.658  49.945  1.00  0.00     0.115 C 
HETATM   17  C21 UNL     1      24.554   5.149  48.919  1.00  0.00     0.033 C 
HETATM   18  H13 UNL     1      25.250   3.932  53.647  1.00  0.00     0.162 HD
ENDROOT
BRANCH  13  19
HETATM   19  C13 UNL     1      20.541   0.395  52.362  1.00  0.00    -0.001 A 
HETATM   20  C14 UNL     1      19.804   0.448  51.177  1.00  0.00     0.056 A 
HETATM   21  C15 UNL     1      18.550  -0.157  51.094  1.00  0.00     0.117 A 
HETATM   22  F1  UNL     1      17.782  -0.147  49.984  1.00  0.00    -0.206 F 
HETATM   23  C16 UNL     1      18.028  -0.812  52.192  1.00  0.00     0.043 A 
HETATM   24  C17 UNL     1      18.768  -0.849  53.339  1.00  0.00     0.011 A 
HETATM   25  C18 UNL     1      20.010  -0.262  53.450  1.00  0.00    -0.050 A 
HETATM   26  C19 UNL     1      20.902  -0.234  54.629  1.00  0.00     0.049 C 
ENDBRANCH  13  19
BRANCH   1  27
HETATM   27  C2  UNL     1      19.808   6.190  49.821  1.00  0.00     0.141 C 
BRANCH  27  28
HETATM   28  N1  UNL     1      19.436   7.523  49.542  1.00  0.00    -0.422 N 
HETATM   29  C1  UNL     1      20.350   8.556  49.850  1.00  0.00     0.140 C 
HETATM   30  H4  UNL     1      18.498   7.744  49.244  1.00  0.00     0.153 HD
ENDBRANCH  27  28
ENDBRANCH   1  27
BRANCH  15  31
HETATM   31  O1  UNL     1      24.236   6.712  51.925  1.00  0.00    -0.310 OA
HETATM   32  H23 UNL     1      24.240   7.509  51.367  1.00  0.00     0.237 HD
ENDBRANCH  15  31
TORSDOF 4
ENDMDL
MODEL 6
REMARK VINA RESULT:      -7.5      4.100      6.327
REMARK  4 active torsions:
REMARK  status: ('A' for Active; 'I' for Inactive)
REMARK    1  A    between atoms: N1_2  and  C2_3 
REMARK    2  A    between atoms: C2_3  and  C3_4 
REMARK    3  A    between atoms: C12_16  and  C13_17 
REMARK    4  A    between atoms: N5_26  and  O1_27 
ROOT
HETATM    1  C3  UNL     1      22.170   8.073  49.515  1.00  0.00    -0.002 C 
HETATM    2  C4  UNL     1      23.016   7.271  48.798  1.00  0.00    -0.042 C 
HETATM    3  C5  UNL     1      22.519   5.871  49.024  1.00  0.00     0.141 C 
HETATM    4 CL1  UNL     1      22.699   4.828  47.587  1.00  0.00    -0.118 Cl
HETATM    5  C6  UNL     1      22.993   5.222  50.295  1.00  0.00     0.153 C 
HETATM    6  C7  UNL     1      23.575   6.396  51.106  1.00  0.00     0.001 C 
HETATM    7  C8  UNL     1      24.718   7.041  50.722  1.00  0.00     0.014 C 
HETATM    8  C9  UNL     1      25.523   6.908  49.446  1.00  0.00     0.207 C 
HETATM    9  N2  UNL     1      26.806   6.401  49.575  1.00  0.00    -0.363 N 
HETATM   10  C10 UNL     1      26.837   4.952  49.391  1.00  0.00     0.198 C 
HETATM   11  N3  UNL     1      26.736   3.681  49.326  1.00  0.00    -0.279 NA
HETATM   12  C11 UNL     1      25.816   2.790  49.921  1.00  0.00     0.209 C 
HETATM   13  C12 UNL     1      24.526   3.306  50.369  1.00  0.00     0.060 C 
HETATM   14  N4  UNL     1      24.175   4.440  50.024  1.00  0.00    -0.281 NA
HETATM   15  N5  UNL     1      25.339   8.134  48.731  1.00  0.00    -0.164 NA
HETATM   16  C20 UNL     1      24.008   8.170  48.130  1.00  0.00     0.115 C 
HETATM   17  C21 UNL     1      24.180   7.864  46.660  1.00  0.00     0.033 C 
HETATM   18  H13 UNL     1      27.807   6.603  49.754  1.00  0.00     0.162 HD
ENDROOT
BRANCH  13  19
HETATM   19  C13 UNL     1      23.728   2.405  51.193  1.00  0.00    -0.001 A 
HETATM   20  C14 UNL     1      22.821   1.707  50.392  1.00  0.00     0.056 A 
HETATM   21  C15 UNL     1      21.945   0.780  50.955  1.00  0.00     0.117 A 
HETATM   22  F1  UNL     1      21.044   0.069  50.244  1.00  0.00    -0.206 F 
HETATM   23  C16 UNL     1      21.969   0.548  52.315  1.00  0.00     0.043 A 
HETATM   24  C17 UNL     1      22.865   1.243  53.077  1.00  0.00     0.011 A 
HETATM   25  C18 UNL     1      23.743   2.165  52.549  1.00  0.00    -0.050 A 
HETATM   26  C19 UNL     1      24.752   2.974  53.265  1.00  0.00     0.049 C 
ENDBRANCH  13  19
BRANCH   1  27
HETATM   27  C2  UNL     1      20.974   8.096  50.413  1.00  0.00     0.141 C 
BRANCH  27  28
HETATM   28  N1  UNL     1      19.742   8.366  49.779  1.00  0.00    -0.422 N 
HETATM   29  C1  UNL     1      19.253   9.692  49.795  1.00  0.00     0.140 C 
HETATM   30  H4  UNL     1      19.168   7.615  49.429  1.00  0.00     0.153 HD
ENDBRANCH  27  28
ENDBRANCH   1  27
BRANCH  15  31
HETATM   31  O1  UNL     1      25.659   9.245  49.395  1.00  0.00    -0.310 OA
HETATM   32  H23 UNL     1      25.905   9.997  48.828  1.00  0.00     0.237 HD
ENDBRANCH  15  31
TORSDOF 4
ENDMDL
MODEL 7
REMARK VINA RESULT:      -7.3      2.621      4.230
REMARK  4 active torsions:
REMARK  status: ('A' for Active; 'I' for Inactive)
REMARK    1  A    between atoms: N1_2  and  C2_3 
REMARK    2  A    between atoms: C2_3  and  C3_4 
REMARK    3  A    between atoms: C12_16  and  C13_17 
REMARK    4  A    between atoms: N5_26  and  O1_27 
ROOT
HETATM    1  C3  UNL     1      23.285   6.909  50.400  1.00  0.00    -0.002 C 
HETATM    2  C4  UNL     1      22.259   6.057  50.091  1.00  0.00    -0.042 C 
HETATM    3  C5  UNL     1      22.197   5.081  51.232  1.00  0.00     0.141 C 
HETATM    4 CL1  UNL     1      20.532   4.573  51.625  1.00  0.00    -0.118 Cl
HETATM    5  C6  UNL     1      23.166   3.934  51.144  1.00  0.00     0.153 C 
HETATM    6  C7  UNL     1      24.144   4.369  50.034  1.00  0.00     0.001 C 
HETATM    7  C8  UNL     1      23.756   4.461  48.726  1.00  0.00     0.014 C 
HETATM    8  C9  UNL     1      22.375   4.348  48.115  1.00  0.00     0.207 C 
HETATM    9  N2  UNL     1      22.159   3.271  47.271  1.00  0.00    -0.363 N 
HETATM   10  C10 UNL     1      21.609   2.122  47.987  1.00  0.00     0.198 C 
HETATM   11  N3  UNL     1      21.239   1.148  48.725  1.00  0.00    -0.279 NA
HETATM   12  C11 UNL     1      21.729   0.683  49.964  1.00  0.00     0.209 C 
HETATM   13  C12 UNL     1      22.498   1.597  50.805  1.00  0.00     0.060 C 
HETATM   14  N4  UNL     1      22.515   2.802  50.530  1.00  0.00    -0.281 NA
HETATM   15  N5  UNL     1      22.036   5.660  47.654  1.00  0.00    -0.164 NA
HETATM   16  C20 UNL     1      21.690   6.516  48.785  1.00  0.00     0.115 C 
HETATM   17  C21 UNL     1      20.182   6.627  48.809  1.00  0.00     0.033 C 
HETATM   18  H13 UNL     1      22.217   2.897  46.306  1.00  0.00     0.162 HD
ENDROOT
BRANCH  13  19
HETATM   19  C13 UNL     1      23.183   0.994  51.943  1.00  0.00    -0.001 A 
HETATM   20  C14 UNL     1      24.553   0.914  51.684  1.00  0.00     0.056 A 
HETATM   21  C15 UNL     1      25.423   0.373  52.630  1.00  0.00     0.117 A 
HETATM   22  F1  UNL     1      26.757   0.263  52.450  1.00  0.00    -0.206 F 
HETATM   23  C16 UNL     1      24.930  -0.091  53.834  1.00  0.00     0.043 A 
HETATM   24  C17 UNL     1      23.587  -0.001  54.062  1.00  0.00     0.011 A 
HETATM   25  C18 UNL     1      22.703   0.529  53.147  1.00  0.00    -0.050 A 
HETATM   26  C19 UNL     1      21.237   0.680  53.279  1.00  0.00     0.049 C 
ENDBRANCH  13  19
BRANCH   1  27
HETATM   27  C2  UNL     1      24.341   7.235  51.407  1.00  0.00     0.141 C 
BRANCH  27  28
HETATM   28  N1  UNL     1      25.660   7.299  50.906  1.00  0.00    -0.422 N 
HETATM   29  C1  UNL     1      25.970   8.292  49.950  1.00  0.00     0.140 C 
HETATM   30  H4  UNL     1      26.331   6.582  51.133  1.00  0.00     0.153 HD
ENDBRANCH  27  28
ENDBRANCH   1  27
BRANCH  15  31
HETATM   31  O1  UNL     1      22.900   6.215  46.804  1.00  0.00    -0.310 OA
HETATM   32  H23 UNL     1      23.818   6.246  47.124  1.00  0.00     0.237 HD
ENDBRANCH  15  31
TORSDOF 4
ENDMDL
MODEL 8
REMARK VINA RESULT:      -7.3      8.887     12.149
REMARK  4 active torsions:
REMARK  status: ('A' for Active; 'I' for Inactive)
REMARK    1  A    between atoms: N1_2  and  C2_3 
REMARK    2  A    between atoms: C2_3  and  C3_4 
REMARK    3  A    between atoms: C12_16  and  C13_17 
REMARK    4  A    between atoms: N5_26  and  O1_27 
ROOT
HETATM    1  C3  UNL     1      27.238   6.819  48.719  1.00  0.00    -0.002 C 
HETATM    2  C4  UNL     1      27.341   8.055  48.140  1.00  0.00    -0.042 C 
HETATM    3  C5  UNL     1      28.118   7.835  46.873  1.00  0.00     0.141 C 
HETATM    4 CL1  UNL     1      27.581   8.887  45.535  1.00  0.00    -0.118 Cl
HETATM    5  C6  UNL     1      29.612   7.795  47.038  1.00  0.00     0.153 C 
HETATM    6  C7  UNL     1      29.805   7.658  48.561  1.00  0.00     0.001 C 
HETATM    7  C8  UNL     1      29.492   8.674  49.422  1.00  0.00     0.014 C 
HETATM    8  C9  UNL     1      28.783   9.986  49.156  1.00  0.00     0.207 C 
HETATM    9  N2  UNL     1      29.531  11.139  49.333  1.00  0.00    -0.363 N 
HETATM   10  C10 UNL     1      30.162  11.572  48.089  1.00  0.00     0.198 C 
HETATM   11  N3  UNL     1      30.755  11.797  46.981  1.00  0.00    -0.279 NA
HETATM   12  C11 UNL     1      31.432  10.930  46.096  1.00  0.00     0.209 C 
HETATM   13  C12 UNL     1      31.136   9.501  46.148  1.00  0.00     0.060 C 
HETATM   14  N4  UNL     1      30.157   9.108  46.792  1.00  0.00    -0.281 NA
HETATM   15  N5  UNL     1      27.510   9.887  49.802  1.00  0.00    -0.164 NA
HETATM   16  C20 UNL     1      26.623   9.017  49.034  1.00  0.00     0.115 C 
HETATM   17  C21 UNL     1      25.666   9.914  48.283  1.00  0.00     0.033 C 
HETATM   18  H13 UNL     1      29.859  11.869  49.990  1.00  0.00     0.162 HD
ENDROOT
BRANCH  13  19
HETATM   19  C13 UNL     1      32.036   8.634  45.394  1.00  0.00    -0.001 A 
HETATM   20  C14 UNL     1      31.669   8.625  44.047  1.00  0.00     0.056 A 
HETATM   21  C15 UNL     1      32.385   7.866  43.122  1.00  0.00     0.117 A 
HETATM   22  F1  UNL     1      32.089   7.809  41.806  1.00  0.00    -0.206 F 
HETATM   23  C16 UNL     1      33.465   7.113  43.538  1.00  0.00     0.043 A 
HETATM   24  C17 UNL     1      33.804   7.139  44.860  1.00  0.00     0.011 A 
HETATM   25  C18 UNL     1      33.116   7.880  45.797  1.00  0.00    -0.050 A 
HETATM   26  C19 UNL     1      33.384   7.989  47.248  1.00  0.00     0.049 C 
ENDBRANCH  13  19
BRANCH   1  27
HETATM   27  C2  UNL     1      27.590   5.371  48.582  1.00  0.00     0.141 C 
BRANCH  27  28
HETATM   28  N1  UNL     1      27.165   4.540  49.642  1.00  0.00    -0.422 N 
HETATM   29  C1  UNL     1      25.779   4.327  49.815  1.00  0.00     0.140 C 
HETATM   30  H4  UNL     1      27.823   4.204  50.327  1.00  0.00     0.153 HD
ENDBRANCH  27  28
ENDBRANCH   1  27
BRANCH  15  31
HETATM   31  O1  UNL     1      27.542   9.608  51.104  1.00  0.00    -0.310 OA
HETATM   32  H23 UNL     1      26.672   9.431  51.501  1.00  0.00     0.237 HD
ENDBRANCH  15  31
TORSDOF 4
ENDMDL
MODEL 9
REMARK VINA RESULT:      -7.1      9.913     13.302
REMARK  4 active torsions:
REMARK  status: ('A' for Active; 'I' for Inactive)
REMARK    1  A    between atoms: N1_2  and  C2_3 
REMARK    2  A    between atoms: C2_3  and  C3_4 
REMARK    3  A    between atoms: C12_16  and  C13_17 
REMARK    4  A    between atoms: N5_26  and  O1_27 
ROOT
HETATM    1  C3  UNL     1      28.551   7.233  48.512  1.00  0.00    -0.002 C 
HETATM    2  C4  UNL     1      28.006   8.389  48.022  1.00  0.00    -0.042 C 
HETATM    3  C5  UNL     1      28.714   8.639  46.721  1.00  0.00     0.141 C 
HETATM    4 CL1  UNL     1      27.654   9.360  45.478  1.00  0.00    -0.118 Cl
HETATM    5  C6  UNL     1      30.046   9.327  46.840  1.00  0.00     0.153 C 
HETATM    6  C7  UNL     1      30.372   9.227  48.343  1.00  0.00     0.001 C 
HETATM    7  C8  UNL     1      29.658   9.916  49.284  1.00  0.00     0.014 C 
HETATM    8  C9  UNL     1      28.386  10.725  49.134  1.00  0.00     0.207 C 
HETATM    9  N2  UNL     1      28.488  12.086  49.373  1.00  0.00    -0.363 N 
HETATM   10  C10 UNL     1      28.754  12.834  48.147  1.00  0.00     0.198 C 
HETATM   11  N3  UNL     1      29.094  13.375  47.041  1.00  0.00    -0.279 NA
HETATM   12  C11 UNL     1      30.053  12.994  46.077  1.00  0.00     0.209 C 
HETATM   13  C12 UNL     1      30.493  11.602  46.034  1.00  0.00     0.060 C 
HETATM   14  N4  UNL     1      29.869  10.750  46.675  1.00  0.00    -0.281 NA
HETATM   15  N5  UNL     1      27.363   9.985  49.807  1.00  0.00    -0.164 NA
HETATM   16  C20 UNL     1      26.966   8.831  49.003  1.00  0.00     0.115 C 
HETATM   17  C21 UNL     1      25.651   9.182  48.346  1.00  0.00     0.033 C 
HETATM   18  H13 UNL     1      28.458  12.850  50.072  1.00  0.00     0.162 HD
ENDROOT
BRANCH  13  19
HETATM   19  C13 UNL     1      31.654  11.324  45.194  1.00  0.00    -0.001 A 
HETATM   20  C14 UNL     1      31.256  11.201  43.861  1.00  0.00     0.056 A 
HETATM   21  C15 UNL     1      32.194  10.935  42.863  1.00  0.00     0.117 A 
HETATM   22  F1  UNL     1      31.884  10.803  41.556  1.00  0.00    -0.206 F 
HETATM   23  C16 UNL     1      33.527  10.790  43.193  1.00  0.00     0.043 A 
HETATM   24  C17 UNL     1      33.889  10.914  44.503  1.00  0.00     0.011 A 
HETATM   25  C18 UNL     1      32.986  11.177  45.511  1.00  0.00    -0.050 A 
HETATM   26  C19 UNL     1      33.254  11.335  46.957  1.00  0.00     0.049 C 
ENDBRANCH  13  19
BRANCH   1  27
HETATM   27  C2  UNL     1      29.553   6.151  48.262  1.00  0.00     0.141 C 
BRANCH  27  28
HETATM   28  N1  UNL     1      30.459   5.905  49.317  1.00  0.00    -0.422 N 
HETATM   29  C1  UNL     1      31.833   5.785  49.011  1.00  0.00     0.140 C 
HETATM   30  H4  UNL     1      30.122   5.701  50.245  1.00  0.00     0.153 HD
ENDBRANCH  27  28
ENDBRANCH   1  27
BRANCH  15  31
HETATM   31  O1  UNL     1      27.605   9.693  51.084  1.00  0.00    -0.310 OA
HETATM   32  H23 UNL     1      28.017  10.414  51.592  1.00  0.00     0.237 HD
ENDBRANCH  15  31
TORSDOF 4
ENDMDL
