MODEL 1
REMARK VINA RESULT:      -8.8      0.000      0.000
REMARK  1 active torsions:
REMARK  status: ('A' for Active; 'I' for Inactive)
REMARK    1  A    between atoms: C4_5  and  C5_6 
ROOT
HETATM    1  C5  UNL     1      24.120   0.870  52.839  1.00  0.00     0.057 C 
HETATM    2  C6  UNL     1      24.288  -0.631  52.713  1.00  0.00     0.062 C 
HETATM    3  C7  UNL     1      25.678  -1.021  52.930  1.00  0.00     0.112 C 
HETATM    4  N1  UNL     1      26.670  -1.698  52.375  1.00  0.00    -0.189 NA
HETATM    5  N2  UNL     1      27.845  -1.663  53.186  1.00  0.00    -0.256 N 
HETATM    6  C8  UNL     1      28.150  -0.168  53.452  1.00  0.00     0.187 A 
HETATM    7  N3  UNL     1      27.481   0.569  52.916  1.00  0.00    -0.222 NA
HETATM    8  C9  UNL     1      27.307   1.822  52.798  1.00  0.00     0.077 A 
HETATM    9  C10 UNL     1      28.303   2.555  53.635  1.00  0.00     0.086 A 
HETATM   10  S1  UNL     1      29.219   1.085  54.358  1.00  0.00    -0.060 SA
HETATM   11  C11 UNL     1      26.210   2.083  51.888  1.00  0.00     0.000 A 
HETATM   12  C12 UNL     1      26.743   2.876  50.899  1.00  0.00     0.016 A 
HETATM   13  C13 UNL     1      25.990   3.341  49.809  1.00  0.00     0.025 A 
HETATM   14  C14 UNL     1      24.664   2.962  49.772  1.00  0.00     0.034 A 
HETATM   15 CL1  UNL     1      23.641   3.488  48.455  1.00  0.00    -0.084 Cl
HETATM   16  C15 UNL     1      24.205   2.167  50.801  1.00  0.00     0.032 A 
HETATM   17  C16 UNL     1      24.906   1.673  51.912  1.00  0.00    -0.035 A 
HETATM   18  H7  UNL     1      28.649  -1.980  53.728  1.00  0.00     0.191 HD
ENDROOT
BRANCH   1  19
HETATM   19  C4  UNL     1      22.659   1.207  52.705  1.00  0.00    -0.049 A 
HETATM   20  C3  UNL     1      21.829   0.108  52.452  1.00  0.00     0.011 A 
HETATM   21  C2  UNL     1      20.477   0.172  52.286  1.00  0.00     0.043 A 
HETATM   22  C1  UNL     1      19.862   1.396  52.367  1.00  0.00     0.116 A 
HETATM   23  F1  UNL     1      18.521   1.575  52.218  1.00  0.00    -0.206 F 
HETATM   24  C18 UNL     1      20.657   2.493  52.615  1.00  0.00     0.043 A 
HETATM   25  C17 UNL     1      22.015   2.433  52.783  1.00  0.00     0.011 A 
ENDBRANCH   1  19
TORSDOF 1
ENDMDL
MODEL 2
REMARK VINA RESULT:      -8.7      2.449      4.426
REMARK  1 active torsions:
REMARK  status: ('A' for Active; 'I' for Inactive)
REMARK    1  A    between atoms: C4_5  and  C5_6 
ROOT
HETATM    1  C5  UNL     1      26.048   1.927  51.315  1.00  0.00     0.057 C 
HETATM    2  C6  UNL     1      26.990   2.828  52.090  1.00  0.00     0.062 C 
HETATM    3  C7  UNL     1      27.911   2.042  52.905  1.00  0.00     0.112 C 
HETATM    4  N1  UNL     1      28.350   1.907  54.146  1.00  0.00    -0.189 NA
HETATM    5  N2  UNL     1      29.314   0.858  54.248  1.00  0.00    -0.256 N 
HETATM    6  C8  UNL     1      28.650  -0.408  53.655  1.00  0.00     0.187 A 
HETATM    7  N3  UNL     1      27.565  -0.294  53.353  1.00  0.00    -0.222 NA
HETATM    8  C9  UNL     1      26.618  -0.971  52.845  1.00  0.00     0.077 A 
HETATM    9  C10 UNL     1      27.085  -2.359  52.551  1.00  0.00     0.086 A 
HETATM   10  S1  UNL     1      28.856  -2.208  53.151  1.00  0.00    -0.060 SA
HETATM   11  C11 UNL     1      25.428  -0.151  52.742  1.00  0.00     0.000 A 
HETATM   12  C12 UNL     1      24.462  -0.831  53.447  1.00  0.00     0.016 A 
HETATM   13  C13 UNL     1      23.151  -0.350  53.594  1.00  0.00     0.025 A 
HETATM   14  C14 UNL     1      22.866   0.856  52.990  1.00  0.00     0.034 A 
HETATM   15 CL1  UNL     1      21.262   1.541  53.116  1.00  0.00    -0.084 Cl
HETATM   16  C15 UNL     1      23.889   1.475  52.301  1.00  0.00     0.032 A 
HETATM   17  C16 UNL     1      25.212   1.046  52.120  1.00  0.00    -0.035 A 
HETATM   18  H7  UNL     1      30.184   0.369  54.460  1.00  0.00     0.191 HD
ENDROOT
BRANCH   1  19
HETATM   19  C4  UNL     1      25.189   2.779  50.419  1.00  0.00    -0.049 A 
HETATM   20  C3  UNL     1      25.669   4.080  50.218  1.00  0.00     0.011 A 
HETATM   21  C2  UNL     1      25.056   5.029  49.455  1.00  0.00     0.043 A 
HETATM   22  C1  UNL     1      23.879   4.708  48.828  1.00  0.00     0.116 A 
HETATM   23  F1  UNL     1      23.185   5.578  48.043  1.00  0.00    -0.206 F 
HETATM   24  C18 UNL     1      23.386   3.436  49.010  1.00  0.00     0.043 A 
HETATM   25  C17 UNL     1      23.998   2.479  49.776  1.00  0.00     0.011 A 
ENDBRANCH   1  19
TORSDOF 1
ENDMDL
MODEL 3
REMARK VINA RESULT:      -8.4      3.800      5.402
REMARK  1 active torsions:
REMARK  status: ('A' for Active; 'I' for Inactive)
REMARK    1  A    between atoms: C4_5  and  C5_6 
ROOT
HETATM    1  C5  UNL     1      25.037   3.385  51.054  1.00  0.00     0.057 C 
HETATM    2  C6  UNL     1      26.458   3.041  50.657  1.00  0.00     0.062 C 
HETATM    3  C7  UNL     1      27.069   4.132  49.904  1.00  0.00     0.112 C 
HETATM    4  N1  UNL     1      27.697   4.392  48.769  1.00  0.00    -0.189 NA
HETATM    5  N2  UNL     1      28.032   5.775  48.662  1.00  0.00    -0.256 N 
HETATM    6  C8  UNL     1      26.717   6.564  48.871  1.00  0.00     0.187 A 
HETATM    7  N3  UNL     1      25.782   5.935  48.972  1.00  0.00    -0.222 NA
HETATM    8  C9  UNL     1      24.531   6.068  49.154  1.00  0.00     0.077 A 
HETATM    9  C10 UNL     1      24.186   7.517  49.270  1.00  0.00     0.086 A 
HETATM   10  S1  UNL     1      25.901   8.247  49.063  1.00  0.00    -0.060 SA
HETATM   11  C11 UNL     1      23.896   4.766  49.174  1.00  0.00     0.000 A 
HETATM   12  C12 UNL     1      22.944   4.815  48.183  1.00  0.00     0.016 A 
HETATM   13  C13 UNL     1      22.111   3.728  47.876  1.00  0.00     0.025 A 
HETATM   14  C14 UNL     1      22.290   2.585  48.627  1.00  0.00     0.034 A 
HETATM   15 CL1  UNL     1      21.303   1.174  48.322  1.00  0.00    -0.084 Cl
HETATM   16  C15 UNL     1      23.264   2.615  49.603  1.00  0.00     0.032 A 
HETATM   17  C16 UNL     1      24.124   3.667  49.954  1.00  0.00    -0.035 A 
HETATM   18  H7  UNL     1      28.585   6.624  48.535  1.00  0.00     0.191 HD
ENDROOT
BRANCH   1  19
HETATM   19  C4  UNL     1      24.489   2.274  51.909  1.00  0.00    -0.049 A 
HETATM   20  C3  UNL     1      25.353   1.184  52.071  1.00  0.00     0.011 A 
HETATM   21  C2  UNL     1      25.069   0.062  52.792  1.00  0.00     0.043 A 
HETATM   22  C1  UNL     1      23.850  -0.027  53.416  1.00  0.00     0.116 A 
HETATM   23  F1  UNL     1      23.464  -1.099  54.161  1.00  0.00    -0.206 F 
HETATM   24  C18 UNL     1      22.983   1.032  53.272  1.00  0.00     0.043 A 
HETATM   25  C17 UNL     1      23.263   2.161  52.548  1.00  0.00     0.011 A 
ENDBRANCH   1  19
TORSDOF 1
ENDMDL
MODEL 4
REMARK VINA RESULT:      -8.3      2.686      4.238
REMARK  1 active torsions:
REMARK  status: ('A' for Active; 'I' for Inactive)
REMARK    1  A    between atoms: C4_5  and  C5_6 
ROOT
HETATM    1  C5  UNL     1      23.507   1.639  51.398  1.00  0.00     0.057 C 
HETATM    2  C6  UNL     1      23.979   2.946  52.002  1.00  0.00     0.062 C 
HETATM    3  C7  UNL     1      25.186   2.747  52.799  1.00  0.00     0.112 C 
HETATM    4  N1  UNL     1      25.689   2.968  54.002  1.00  0.00    -0.189 NA
HETATM    5  N2  UNL     1      27.022   2.469  54.112  1.00  0.00    -0.256 N 
HETATM    6  C8  UNL     1      26.968   0.979  53.695  1.00  0.00     0.187 A 
HETATM    7  N3  UNL     1      25.936   0.569  53.482  1.00  0.00    -0.222 NA
HETATM    8  C9  UNL     1      25.370  -0.510  53.123  1.00  0.00     0.077 A 
HETATM    9  C10 UNL     1      26.394  -1.577  52.913  1.00  0.00     0.086 A 
HETATM   10  S1  UNL     1      27.935  -0.594  53.338  1.00  0.00    -0.060 SA
HETATM   11  C11 UNL     1      23.936  -0.314  53.054  1.00  0.00     0.000 A 
HETATM   12  C12 UNL     1      23.403  -1.259  53.900  1.00  0.00     0.016 A 
HETATM   13  C13 UNL     1      22.022  -1.388  54.120  1.00  0.00     0.025 A 
HETATM   14  C14 UNL     1      21.206  -0.510  53.438  1.00  0.00     0.034 A 
HETATM   15 CL1  UNL     1      19.471  -0.588  53.645  1.00  0.00    -0.084 Cl
HETATM   16  C15 UNL     1      21.817   0.407  52.609  1.00  0.00     0.032 A 
HETATM   17  C16 UNL     1      23.185   0.583  52.349  1.00  0.00    -0.035 A 
HETATM   18  H7  UNL     1      28.027   2.440  54.288  1.00  0.00     0.191 HD
ENDROOT
BRANCH   1  19
HETATM   19  C4  UNL     1      22.323   1.914  50.510  1.00  0.00    -0.049 A 
HETATM   20  C3  UNL     1      21.759   3.186  50.670  1.00  0.00     0.011 A 
HETATM   21  C2  UNL     1      20.678   3.653  49.982  1.00  0.00     0.043 A 
HETATM   22  C1  UNL     1      20.082   2.832  49.059  1.00  0.00     0.116 A 
HETATM   23  F1  UNL     1      19.000   3.196  48.317  1.00  0.00    -0.206 F 
HETATM   24  C18 UNL     1      20.618   1.577  48.882  1.00  0.00     0.043 A 
HETATM   25  C17 UNL     1      21.704   1.102  49.571  1.00  0.00     0.011 A 
ENDBRANCH   1  19
TORSDOF 1
ENDMDL
MODEL 5
REMARK VINA RESULT:      -8.0      4.441      6.396
REMARK  1 active torsions:
REMARK  status: ('A' for Active; 'I' for Inactive)
REMARK    1  A    between atoms: C4_5  and  C5_6 
ROOT
HETATM    1  C5  UNL     1      23.261   0.590  52.508  1.00  0.00     0.057 C 
HETATM    2  C6  UNL     1      22.831  -0.168  53.749  1.00  0.00     0.062 C 
HETATM    3  C7  UNL     1      21.396  -0.432  53.728  1.00  0.00     0.112 C 
HETATM    4  N1  UNL     1      20.297  -0.282  54.449  1.00  0.00    -0.189 NA
HETATM    5  N2  UNL     1      19.152  -0.799  53.771  1.00  0.00    -0.256 N 
HETATM    6  C8  UNL     1      19.116  -0.113  52.383  1.00  0.00     0.187 A 
HETATM    7  N3  UNL     1      19.900   0.684  52.213  1.00  0.00    -0.222 NA
HETATM    8  C9  UNL     1      20.291   1.492  51.314  1.00  0.00     0.077 A 
HETATM    9  C10 UNL     1      19.443   1.342  50.093  1.00  0.00     0.086 A 
HETATM   10  S1  UNL     1      18.289  -0.007  50.698  1.00  0.00    -0.060 SA
HETATM   11  C11 UNL     1      21.410   2.270  51.804  1.00  0.00     0.000 A 
HETATM   12  C12 UNL     1      21.017   3.582  51.682  1.00  0.00     0.016 A 
HETATM   13  C13 UNL     1      21.834   4.658  52.067  1.00  0.00     0.025 A 
HETATM   14  C14 UNL     1      23.072   4.336  52.582  1.00  0.00     0.034 A 
HETATM   15 CL1  UNL     1      24.163   5.604  53.093  1.00  0.00    -0.084 Cl
HETATM   16  C15 UNL     1      23.392   2.998  52.671  1.00  0.00     0.032 A 
HETATM   17  C16 UNL     1      22.622   1.883  52.304  1.00  0.00    -0.035 A 
HETATM   18  H7  UNL     1      18.308  -1.343  53.585  1.00  0.00     0.191 HD
ENDROOT
BRANCH   1  19
HETATM   19  C4  UNL     1      24.757   0.750  52.532  1.00  0.00    -0.049 A 
HETATM   20  C3  UNL     1      25.378   0.253  53.685  1.00  0.00     0.011 A 
HETATM   21  C2  UNL     1      26.719   0.297  53.931  1.00  0.00     0.043 A 
HETATM   22  C1  UNL     1      27.541   0.865  52.992  1.00  0.00     0.116 A 
HETATM   23  F1  UNL     1      28.891   0.960  53.134  1.00  0.00    -0.206 F 
HETATM   24  C18 UNL     1      26.955   1.361  51.849  1.00  0.00     0.043 A 
HETATM   25  C17 UNL     1      25.609   1.321  51.597  1.00  0.00     0.011 A 
ENDBRANCH   1  19
TORSDOF 1
ENDMDL
MODEL 6
REMARK VINA RESULT:      -8.0      4.813      7.057
REMARK  1 active torsions:
REMARK  status: ('A' for Active; 'I' for Inactive)
REMARK    1  A    between atoms: C4_5  and  C5_6 
ROOT
HETATM    1  C5  UNL     1      23.055   2.253  51.459  1.00  0.00     0.057 C 
HETATM    2  C6  UNL     1      23.278   1.830  50.021  1.00  0.00     0.062 C 
HETATM    3  C7  UNL     1      22.064   2.010  49.231  1.00  0.00     0.112 C 
HETATM    4  N1  UNL     1      21.241   1.363  48.422  1.00  0.00    -0.189 NA
HETATM    5  N2  UNL     1      20.174   2.204  47.980  1.00  0.00    -0.256 N 
HETATM    6  C8  UNL     1      19.512   2.780  49.255  1.00  0.00     0.187 A 
HETATM    7  N3  UNL     1      19.913   2.383  50.235  1.00  0.00    -0.222 NA
HETATM    8  C9  UNL     1      19.740   2.517  51.487  1.00  0.00     0.077 A 
HETATM    9  C10 UNL     1      18.664   3.521  51.746  1.00  0.00     0.086 A 
HETATM   10  S1  UNL     1      18.235   3.959  49.973  1.00  0.00    -0.060 SA
HETATM   11  C11 UNL     1      20.644   1.643  52.206  1.00  0.00     0.000 A 
HETATM   12  C12 UNL     1      19.835   0.855  52.991  1.00  0.00     0.016 A 
HETATM   13  C13 UNL     1      20.340  -0.141  53.841  1.00  0.00     0.025 A 
HETATM   14  C14 UNL     1      21.710  -0.301  53.856  1.00  0.00     0.034 A 
HETATM   15 CL1  UNL     1      22.438  -1.517  54.880  1.00  0.00    -0.084 Cl
HETATM   16  C15 UNL     1      22.452   0.528  53.041  1.00  0.00     0.032 A 
HETATM   17  C16 UNL     1      22.006   1.538  52.174  1.00  0.00    -0.035 A 
HETATM   18  H7  UNL     1      19.534   2.697  47.358  1.00  0.00     0.191 HD
ENDROOT
BRANCH   1  19
HETATM   19  C4  UNL     1      24.358   2.141  52.205  1.00  0.00    -0.049 A 
HETATM   20  C3  UNL     1      25.308   1.312  51.596  1.00  0.00     0.011 A 
HETATM   21  C2  UNL     1      26.552   1.053  52.091  1.00  0.00     0.043 A 
HETATM   22  C1  UNL     1      26.922   1.638  53.276  1.00  0.00     0.116 A 
HETATM   23  F1  UNL     1      28.137   1.450  53.859  1.00  0.00    -0.206 F 
HETATM   24  C18 UNL     1      26.006   2.458  53.895  1.00  0.00     0.043 A 
HETATM   25  C17 UNL     1      24.755   2.721  53.401  1.00  0.00     0.011 A 
ENDBRANCH   1  19
TORSDOF 1
ENDMDL
MODEL 7
REMARK VINA RESULT:      -7.9      6.072      7.774
REMARK  1 active torsions:
REMARK  status: ('A' for Active; 'I' for Inactive)
REMARK    1  A    between atoms: C4_5  and  C5_6 
ROOT
HETATM    1  C5  UNL     1      25.069   7.754  48.288  1.00  0.00     0.057 C 
HETATM    2  C6  UNL     1      25.110   8.826  49.359  1.00  0.00     0.062 C 
HETATM    3  C7  UNL     1      26.482   9.245  49.627  1.00  0.00     0.112 C 
HETATM    4  N1  UNL     1      27.352   9.398  50.612  1.00  0.00    -0.189 NA
HETATM    5  N2  UNL     1      28.609   9.872  50.129  1.00  0.00    -0.256 N 
HETATM    6  C8  UNL     1      29.053   8.889  49.019  1.00  0.00     0.187 A 
HETATM    7  N3  UNL     1      28.386   7.988  48.870  1.00  0.00    -0.222 NA
HETATM    8  C9  UNL     1      28.294   6.951  48.141  1.00  0.00     0.077 A 
HETATM    9  C10 UNL     1      29.430   6.909  47.172  1.00  0.00     0.086 A 
HETATM   10  S1  UNL     1      30.307   8.489  47.677  1.00  0.00    -0.060 SA
HETATM   11  C11 UNL     1      27.125   6.184  48.521  1.00  0.00     0.000 A 
HETATM   12  C12 UNL     1      27.603   4.935  48.842  1.00  0.00     0.016 A 
HETATM   13  C13 UNL     1      26.770   3.892  49.275  1.00  0.00     0.025 A 
HETATM   14  C14 UNL     1      25.424   4.178  49.367  1.00  0.00     0.034 A 
HETATM   15 CL1  UNL     1      24.302   2.946  49.898  1.00  0.00    -0.084 Cl
HETATM   16  C15 UNL     1      25.023   5.453  49.026  1.00  0.00     0.032 A 
HETATM   17  C16 UNL     1      25.805   6.533  48.588  1.00  0.00    -0.035 A 
HETATM   18  H7  UNL     1      29.443  10.452  50.025  1.00  0.00     0.191 HD
ENDROOT
BRANCH   1  19
HETATM   19  C4  UNL     1      23.632   7.429  47.981  1.00  0.00    -0.049 A 
HETATM   20  C3  UNL     1      22.713   7.901  48.927  1.00  0.00     0.011 A 
HETATM   21  C2  UNL     1      21.363   7.719  48.863  1.00  0.00     0.043 A 
HETATM   22  C1  UNL     1      20.844   7.024  47.800  1.00  0.00     0.116 A 
HETATM   23  F1  UNL     1      19.513   6.785  47.637  1.00  0.00    -0.206 F 
HETATM   24  C18 UNL     1      21.726   6.550  46.856  1.00  0.00     0.043 A 
HETATM   25  C17 UNL     1      23.083   6.729  46.916  1.00  0.00     0.011 A 
ENDBRANCH   1  19
TORSDOF 1
ENDMDL
MODEL 8
REMARK VINA RESULT:      -7.8      4.331      6.468
REMARK  1 active torsions:
REMARK  status: ('A' for Active; 'I' for Inactive)
REMARK    1  A    between atoms: C4_5  and  C5_6 
ROOT
HETATM    1  C5  UNL     1      25.094   2.506  51.822  1.00  0.00     0.057 C 
HETATM    2  C6  UNL     1      25.417   2.398  50.345  1.00  0.00     0.062 C 
HETATM    3  C7  UNL     1      24.541   3.259  49.555  1.00  0.00     0.112 C 
HETATM    4  N1  UNL     1      23.709   3.238  48.527  1.00  0.00    -0.189 NA
HETATM    5  N2  UNL     1      23.148   4.528  48.282  1.00  0.00    -0.256 N 
HETATM    6  C8  UNL     1      22.517   4.993  49.617  1.00  0.00     0.187 A 
HETATM    7  N3  UNL     1      22.538   4.236  50.456  1.00  0.00    -0.222 NA
HETATM    8  C9  UNL     1      22.188   4.116  51.672  1.00  0.00     0.077 A 
HETATM    9  C10 UNL     1      21.542   5.379  52.141  1.00  0.00     0.086 A 
HETATM   10  S1  UNL     1      21.667   6.380  50.560  1.00  0.00    -0.060 SA
HETATM   11  C11 UNL     1      22.536   2.796  52.157  1.00  0.00     0.000 A 
HETATM   12  C12 UNL     1      21.352   2.252  52.599  1.00  0.00     0.016 A 
HETATM   13  C13 UNL     1      21.267   0.959  53.140  1.00  0.00     0.025 A 
HETATM   14  C14 UNL     1      22.443   0.243  53.211  1.00  0.00     0.034 A 
HETATM   15 CL1  UNL     1      22.442  -1.378  53.868  1.00  0.00    -0.084 Cl
HETATM   16  C15 UNL     1      23.587   0.859  52.748  1.00  0.00     0.032 A 
HETATM   17  C16 UNL     1      23.735   2.142  52.200  1.00  0.00    -0.035 A 
HETATM   18  H7  UNL     1      22.876   5.381  47.793  1.00  0.00     0.191 HD
ENDROOT
BRANCH   1  19
HETATM   19  C4  UNL     1      26.085   1.678  52.596  1.00  0.00    -0.049 A 
HETATM   20  C3  UNL     1      26.495   0.505  51.950  1.00  0.00     0.011 A 
HETATM   21  C2  UNL     1      27.376  -0.401  52.461  1.00  0.00     0.043 A 
HETATM   22  C1  UNL     1      27.915  -0.167  53.701  1.00  0.00     0.116 A 
HETATM   23  F1  UNL     1      28.803  -1.004  54.304  1.00  0.00    -0.206 F 
HETATM   24  C18 UNL     1      27.528   0.980  54.357  1.00  0.00     0.043 A 
HETATM   25  C17 UNL     1      26.643   1.893  53.848  1.00  0.00     0.011 A 
ENDBRANCH   1  19
TORSDOF 1
ENDMDL
MODEL 9
REMARK VINA RESULT:      -7.7      4.538      6.003
REMARK  1 active torsions:
REMARK  status: ('A' for Active; 'I' for Inactive)
REMARK    1  A    between atoms: C4_5  and  C5_6 
ROOT
HETATM    1  C5  UNL     1      22.032   1.781  51.666  1.00  0.00     0.057 C 
HETATM    2  C6  UNL     1      21.140   2.822  52.311  1.00  0.00     0.062 C 
HETATM    3  C7  UNL     1      20.642   3.770  51.319  1.00  0.00     0.112 C 
HETATM    4  N1  UNL     1      20.563   5.066  51.063  1.00  0.00    -0.189 NA
HETATM    5  N2  UNL     1      19.905   5.313  49.820  1.00  0.00    -0.256 N 
HETATM    6  C8  UNL     1      20.660   4.485  48.751  1.00  0.00     0.187 A 
HETATM    7  N3  UNL     1      21.585   3.946  49.115  1.00  0.00    -0.222 NA
HETATM    8  C9  UNL     1      22.500   3.178  48.683  1.00  0.00     0.077 A 
HETATM    9  C10 UNL     1      22.286   2.899  47.232  1.00  0.00     0.086 A 
HETATM   10  S1  UNL     1      20.730   3.910  46.962  1.00  0.00    -0.060 SA
HETATM   11  C11 UNL     1      23.422   2.860  49.755  1.00  0.00     0.000 A 
HETATM   12  C12 UNL     1      24.655   3.263  49.300  1.00  0.00     0.016 A 
HETATM   13  C13 UNL     1      25.826   3.132  50.064  1.00  0.00     0.025 A 
HETATM   14  C14 UNL     1      25.684   2.570  51.316  1.00  0.00     0.034 A 
HETATM   15 CL1  UNL     1      27.082   2.365  52.347  1.00  0.00    -0.084 Cl
HETATM   16  C15 UNL     1      24.414   2.192  51.699  1.00  0.00     0.032 A 
HETATM   17  C16 UNL     1      23.212   2.296  50.982  1.00  0.00    -0.035 A 
HETATM   18  H7  UNL     1      19.242   5.687  49.141  1.00  0.00     0.191 HD
ENDROOT
BRANCH   1  19
HETATM   19  C4  UNL     1      22.438   0.775  52.710  1.00  0.00    -0.049 A 
HETATM   20  C3  UNL     1      21.457   0.510  53.674  1.00  0.00     0.011 A 
HETATM   21  C2  UNL     1      21.602  -0.356  54.718  1.00  0.00     0.043 A 
HETATM   22  C1  UNL     1      22.790  -1.029  54.852  1.00  0.00     0.116 A 
HETATM   23  F1  UNL     1      23.041  -1.916  55.855  1.00  0.00    -0.206 F 
HETATM   24  C18 UNL     1      23.770  -0.786  53.917  1.00  0.00     0.043 A 
HETATM   25  C17 UNL     1      23.630   0.083  52.867  1.00  0.00     0.011 A 
ENDBRANCH   1  19
TORSDOF 1
ENDMDL
