MODEL 1
REMARK VINA RESULT:      -9.3      0.000      0.000
REMARK  0 active torsions:
REMARK  status: ('A' for Active; 'I' for Inactive)
ROOT
HETATM    1  O1  UNL     1      22.952  -0.030  53.705  1.00  0.00    -0.268 OA
HETATM    2  C1  UNL     1      22.468   0.352  52.614  1.00  0.00     0.245 C 
HETATM    3  C2  UNL     1      21.147   0.014  53.031  1.00  0.00     0.080 C 
HETATM    4  C3  UNL     1      20.159   0.318  52.236  1.00  0.00     0.089 C 
HETATM    5  C4  UNL     1      20.163   0.981  50.943  1.00  0.00     0.307 C 
HETATM    6  O2  UNL     1      21.398   1.170  50.887  1.00  0.00    -0.258 OA
HETATM    7  O3  UNL     1      20.172   1.599  49.741  1.00  0.00    -0.170 OA
HETATM    8  N1  UNL     1      21.278   2.083  49.146  1.00  0.00    -0.121 NA
HETATM    9  C5  UNL     1      21.885   3.068  49.799  1.00  0.00     0.111 C 
HETATM   10 BR1  UNL     1      21.472   3.945  51.475  1.00  0.00    -0.031 Br
HETATM   11  C6  UNL     1      23.079   3.649  49.175  1.00  0.00     0.096 C 
HETATM   12  C7  UNL     1      24.348   3.178  49.763  1.00  0.00    -0.024 C 
HETATM   13  C8  UNL     1      25.546   3.229  50.393  1.00  0.00    -0.025 C 
HETATM   14  C9  UNL     1      26.448   2.120  50.687  1.00  0.00     0.082 C 
HETATM   15  C10 UNL     1      26.820   1.883  52.059  1.00  0.00     0.033 C 
HETATM   16  N2  UNL     1      27.932   2.446  52.366  1.00  0.00    -0.249 NA
HETATM   17  C11 UNL     1      28.687   2.439  53.546  1.00  0.00     0.233 C 
HETATM   18  N3  UNL     1      28.267   1.686  54.565  1.00  0.00    -0.245 NA
HETATM   19  C12 UNL     1      27.079   0.938  54.224  1.00  0.00     0.051 A 
HETATM   20  C13 UNL     1      26.709  -0.296  54.618  1.00  0.00     0.030 A 
HETATM   21  C14 UNL     1      25.428  -0.515  53.951  1.00  0.00     0.028 A 
HETATM   22  C15 UNL     1      25.008   0.483  53.193  1.00  0.00     0.028 A 
HETATM   23  N4  UNL     1      23.818   0.597  52.436  1.00  0.00    -0.326 N 
HETATM   24  C16 UNL     1      26.098   1.431  53.276  1.00  0.00     0.135 A 
HETATM   25  H12 UNL     1      24.233   0.897  51.584  1.00  0.00     0.169 HD
ENDROOT
TORSDOF 0
ENDMDL
MODEL 2
REMARK VINA RESULT:      -9.0      2.293      5.846
REMARK  0 active torsions:
REMARK  status: ('A' for Active; 'I' for Inactive)
ROOT
HETATM    1  O1  UNL     1      21.930  -0.497  53.142  1.00  0.00    -0.268 OA
HETATM    2  C1  UNL     1      23.030  -0.205  53.666  1.00  0.00     0.245 C 
HETATM    3  C2  UNL     1      22.904  -1.257  54.620  1.00  0.00     0.080 C 
HETATM    4  C3  UNL     1      23.907  -1.476  55.425  1.00  0.00     0.089 C 
HETATM    5  C4  UNL     1      25.196  -0.814  55.520  1.00  0.00     0.307 C 
HETATM    6  O2  UNL     1      25.013  -0.015  54.576  1.00  0.00    -0.258 OA
HETATM    7  O3  UNL     1      26.395  -0.194  55.604  1.00  0.00    -0.170 OA
HETATM    8  N1  UNL     1      26.801   0.789  54.779  1.00  0.00    -0.121 NA
HETATM    9  C5  UNL     1      26.929   0.437  53.503  1.00  0.00     0.111 C 
HETATM   10 BR1  UNL     1      26.632  -1.248  52.599  1.00  0.00    -0.031 Br
HETATM   11  C6  UNL     1      27.397   1.467  52.569  1.00  0.00     0.096 C 
HETATM   12  C7  UNL     1      26.321   2.066  51.754  1.00  0.00    -0.024 C 
HETATM   13  C8  UNL     1      25.618   2.422  50.653  1.00  0.00    -0.025 C 
HETATM   14  C9  UNL     1      24.371   3.178  50.596  1.00  0.00     0.082 C 
HETATM   15  C10 UNL     1      23.232   2.576  49.950  1.00  0.00     0.033 C 
HETATM   16  N2  UNL     1      23.127   2.929  48.720  1.00  0.00    -0.249 NA
HETATM   17  C11 UNL     1      22.165   2.638  47.744  1.00  0.00     0.233 C 
HETATM   18  N3  UNL     1      21.101   1.912  48.097  1.00  0.00    -0.245 NA
HETATM   19  C12 UNL     1      21.117   1.590  49.506  1.00  0.00     0.051 A 
HETATM   20  C13 UNL     1      20.082   1.473  50.362  1.00  0.00     0.030 A 
HETATM   21  C14 UNL     1      20.711   1.140  51.637  1.00  0.00     0.028 A 
HETATM   22  C15 UNL     1      22.030   1.053  51.612  1.00  0.00     0.028 A 
HETATM   23  N4  UNL     1      22.930   0.735  52.657  1.00  0.00    -0.326 N 
HETATM   24  C16 UNL     1      22.350   1.419  50.249  1.00  0.00     0.135 A 
HETATM   25  H12 UNL     1      23.562   1.490  52.519  1.00  0.00     0.169 HD
ENDROOT
TORSDOF 0
ENDMDL
MODEL 3
REMARK VINA RESULT:      -8.9      1.799      2.212
REMARK  0 active torsions:
REMARK  status: ('A' for Active; 'I' for Inactive)
ROOT
HETATM    1  O1  UNL     1      21.969   1.492  53.099  1.00  0.00    -0.268 OA
HETATM    2  C1  UNL     1      22.056   2.134  52.027  1.00  0.00     0.245 C 
HETATM    3  C2  UNL     1      20.712   2.596  52.143  1.00  0.00     0.080 C 
HETATM    4  C3  UNL     1      20.281   3.449  51.256  1.00  0.00     0.089 C 
HETATM    5  C4  UNL     1      20.960   4.050  50.122  1.00  0.00     0.307 C 
HETATM    6  O2  UNL     1      22.066   3.499  50.314  1.00  0.00    -0.258 OA
HETATM    7  O3  UNL     1      21.598   4.607  49.069  1.00  0.00    -0.170 OA
HETATM    8  N1  UNL     1      22.893   4.396  48.767  1.00  0.00    -0.121 NA
HETATM    9  C5  UNL     1      23.761   4.822  49.680  1.00  0.00     0.111 C 
HETATM   10 BR1  UNL     1      23.505   5.696  51.387  1.00  0.00    -0.031 Br
HETATM   11  C6  UNL     1      25.186   4.640  49.383  1.00  0.00     0.096 C 
HETATM   12  C7  UNL     1      25.801   3.498  50.089  1.00  0.00    -0.024 C 
HETATM   13  C8  UNL     1      26.635   2.822  50.914  1.00  0.00    -0.025 C 
HETATM   14  C9  UNL     1      26.677   1.384  51.158  1.00  0.00     0.082 C 
HETATM   15  C10 UNL     1      26.512   0.912  52.510  1.00  0.00     0.033 C 
HETATM   16  N2  UNL     1      27.636   0.719  53.098  1.00  0.00    -0.249 NA
HETATM   17  C11 UNL     1      27.951   0.224  54.371  1.00  0.00     0.233 C 
HETATM   18  N3  UNL     1      26.955  -0.199  55.153  1.00  0.00    -0.245 NA
HETATM   19  C12 UNL     1      25.677  -0.111  54.485  1.00  0.00     0.051 A 
HETATM   20  C13 UNL     1      24.609  -0.927  54.584  1.00  0.00     0.030 A 
HETATM   21  C14 UNL     1      23.625  -0.339  53.679  1.00  0.00     0.028 A 
HETATM   22  C15 UNL     1      24.020   0.754  53.048  1.00  0.00     0.028 A 
HETATM   23  N4  UNL     1      23.313   1.567  52.130  1.00  0.00    -0.326 N 
HETATM   24  C16 UNL     1      25.392   0.900  53.484  1.00  0.00     0.135 A 
HETATM   25  H12 UNL     1      24.017   1.614  51.429  1.00  0.00     0.169 HD
ENDROOT
TORSDOF 0
ENDMDL
MODEL 4
REMARK VINA RESULT:      -8.7      2.280      3.901
REMARK  0 active torsions:
REMARK  status: ('A' for Active; 'I' for Inactive)
ROOT
HETATM    1  O1  UNL     1      24.788   3.721  51.707  1.00  0.00    -0.268 OA
HETATM    2  C1  UNL     1      23.577   3.555  51.985  1.00  0.00     0.245 C 
HETATM    3  C2  UNL     1      23.206   4.733  51.273  1.00  0.00     0.080 C 
HETATM    4  C3  UNL     1      21.936   5.004  51.159  1.00  0.00     0.089 C 
HETATM    5  C4  UNL     1      20.774   4.279  51.643  1.00  0.00     0.307 C 
HETATM    6  O2  UNL     1      21.406   3.331  52.159  1.00  0.00    -0.258 OA
HETATM    7  O3  UNL     1      19.696   3.600  52.094  1.00  0.00    -0.170 OA
HETATM    8  N1  UNL     1      19.758   2.421  52.741  1.00  0.00    -0.121 NA
HETATM    9  C5  UNL     1      20.253   1.413  52.029  1.00  0.00     0.111 C 
HETATM   10 BR1  UNL     1      20.915   1.327  50.212  1.00  0.00    -0.031 Br
HETATM   11  C6  UNL     1      20.314   0.100  52.680  1.00  0.00     0.096 C 
HETATM   12  C7  UNL     1      21.661  -0.265  53.162  1.00  0.00    -0.024 C 
HETATM   13  C8  UNL     1      22.814  -0.963  53.283  1.00  0.00    -0.025 C 
HETATM   14  C9  UNL     1      23.950  -0.669  54.151  1.00  0.00     0.082 C 
HETATM   15  C10 UNL     1      25.247  -0.489  53.548  1.00  0.00     0.033 C 
HETATM   16  N2  UNL     1      25.938  -1.570  53.550  1.00  0.00    -0.249 NA
HETATM   17  C11 UNL     1      27.246  -1.843  53.126  1.00  0.00     0.233 C 
HETATM   18  N3  UNL     1      27.993  -0.832  52.678  1.00  0.00    -0.245 NA
HETATM   19  C12 UNL     1      27.294   0.430  52.769  1.00  0.00     0.051 A 
HETATM   20  C13 UNL     1      27.786   1.656  53.038  1.00  0.00     0.030 A 
HETATM   21  C14 UNL     1      26.614   2.527  52.999  1.00  0.00     0.028 A 
HETATM   22  C15 UNL     1      25.468   1.921  52.733  1.00  0.00     0.028 A 
HETATM   23  N4  UNL     1      24.170   2.471  52.606  1.00  0.00    -0.326 N 
HETATM   24  C16 UNL     1      25.852   0.529  52.653  1.00  0.00     0.135 A 
HETATM   25  H12 UNL     1      23.699   1.828  53.200  1.00  0.00     0.169 HD
ENDROOT
TORSDOF 0
ENDMDL
MODEL 5
REMARK VINA RESULT:      -8.6      4.051      5.925
REMARK  0 active torsions:
REMARK  status: ('A' for Active; 'I' for Inactive)
ROOT
HETATM    1  O1  UNL     1      27.176   3.534  49.628  1.00  0.00    -0.268 OA
HETATM    2  C1  UNL     1      26.781   4.723  49.660  1.00  0.00     0.245 C 
HETATM    3  C2  UNL     1      27.643   5.084  48.583  1.00  0.00     0.080 C 
HETATM    4  C3  UNL     1      27.558   6.297  48.113  1.00  0.00     0.089 C 
HETATM    5  C4  UNL     1      26.694   7.397  48.502  1.00  0.00     0.307 C 
HETATM    6  O2  UNL     1      26.071   6.777  49.391  1.00  0.00    -0.258 OA
HETATM    7  O3  UNL     1      25.886   8.417  48.868  1.00  0.00    -0.170 OA
HETATM    8  N1  UNL     1      24.932   8.329  49.814  1.00  0.00    -0.121 NA
HETATM    9  C5  UNL     1      23.947   7.479  49.542  1.00  0.00     0.111 C 
HETATM   10 BR1  UNL     1      23.628   6.326  48.021  1.00  0.00    -0.031 Br
HETATM   11  C6  UNL     1      22.868   7.368  50.529  1.00  0.00     0.096 C 
HETATM   12  C7  UNL     1      22.964   6.169  51.386  1.00  0.00    -0.024 C 
HETATM   13  C8  UNL     1      22.617   4.991  51.955  1.00  0.00    -0.025 C 
HETATM   14  C9  UNL     1      23.368   4.221  52.942  1.00  0.00     0.082 C 
HETATM   15  C10 UNL     1      23.725   2.861  52.623  1.00  0.00     0.033 C 
HETATM   16  N2  UNL     1      22.877   2.014  53.083  1.00  0.00    -0.249 NA
HETATM   17  C11 UNL     1      22.850   0.614  53.059  1.00  0.00     0.233 C 
HETATM   18  N3  UNL     1      23.890  -0.033  52.529  1.00  0.00    -0.245 NA
HETATM   19  C12 UNL     1      24.927   0.878  52.104  1.00  0.00     0.051 A 
HETATM   20  C13 UNL     1      26.265   0.713  52.126  1.00  0.00     0.030 A 
HETATM   21  C14 UNL     1      26.787   1.964  51.581  1.00  0.00     0.028 A 
HETATM   22  C15 UNL     1      25.874   2.858  51.241  1.00  0.00     0.028 A 
HETATM   23  N4  UNL     1      26.042   4.144  50.675  1.00  0.00    -0.326 N 
HETATM   24  C16 UNL     1      24.637   2.222  51.641  1.00  0.00     0.135 A 
HETATM   25  H12 UNL     1      25.451   4.640  51.301  1.00  0.00     0.169 HD
ENDROOT
TORSDOF 0
ENDMDL
MODEL 6
REMARK VINA RESULT:      -8.4      2.684      4.475
REMARK  0 active torsions:
REMARK  status: ('A' for Active; 'I' for Inactive)
ROOT
HETATM    1  O1  UNL     1      26.988   3.620  50.359  1.00  0.00    -0.268 OA
HETATM    2  C1  UNL     1      25.854   4.136  50.224  1.00  0.00     0.245 C 
HETATM    3  C2  UNL     1      26.325   5.012  49.203  1.00  0.00     0.080 C 
HETATM    4  C3  UNL     1      25.453   5.771  48.599  1.00  0.00     0.089 C 
HETATM    5  C4  UNL     1      24.017   5.882  48.783  1.00  0.00     0.307 C 
HETATM    6  O2  UNL     1      23.922   5.004  49.669  1.00  0.00    -0.258 OA
HETATM    7  O3  UNL     1      22.680   5.979  48.958  1.00  0.00    -0.170 OA
HETATM    8  N1  UNL     1      21.969   5.219  49.811  1.00  0.00    -0.121 NA
HETATM    9  C5  UNL     1      21.965   3.918  49.538  1.00  0.00     0.111 C 
HETATM   10 BR1  UNL     1      22.810   2.899  48.125  1.00  0.00    -0.031 Br
HETATM   11  C6  UNL     1      21.179   3.051  50.422  1.00  0.00     0.096 C 
HETATM   12  C7  UNL     1      21.992   2.311  51.408  1.00  0.00    -0.024 C 
HETATM   13  C8  UNL     1      22.535   1.259  52.064  1.00  0.00    -0.025 C 
HETATM   14  C9  UNL     1      23.456   1.290  53.195  1.00  0.00     0.082 C 
HETATM   15  C10 UNL     1      24.731   0.631  53.061  1.00  0.00     0.033 C 
HETATM   16  N2  UNL     1      24.712  -0.565  53.524  1.00  0.00    -0.249 NA
HETATM   17  C11 UNL     1      25.716  -1.535  53.649  1.00  0.00     0.233 C 
HETATM   18  N3  UNL     1      26.961  -1.209  53.294  1.00  0.00    -0.245 NA
HETATM   19  C12 UNL     1      27.055   0.171  52.876  1.00  0.00     0.051 A 
HETATM   20  C13 UNL     1      28.069   1.043  53.045  1.00  0.00     0.030 A 
HETATM   21  C14 UNL     1      27.588   2.273  52.422  1.00  0.00     0.028 A 
HETATM   22  C15 UNL     1      26.374   2.207  51.901  1.00  0.00     0.028 A 
HETATM   23  N4  UNL     1      25.633   3.202  51.220  1.00  0.00    -0.326 N 
HETATM   24  C16 UNL     1      25.950   0.867  52.245  1.00  0.00     0.135 A 
HETATM   25  H12 UNL     1      24.785   3.103  51.729  1.00  0.00     0.169 HD
ENDROOT
TORSDOF 0
ENDMDL
MODEL 7
REMARK VINA RESULT:      -8.2      2.789      5.118
REMARK  0 active torsions:
REMARK  status: ('A' for Active; 'I' for Inactive)
ROOT
HETATM    1  O1  UNL     1      25.516   1.663  51.448  1.00  0.00    -0.268 OA
HETATM    2  C1  UNL     1      25.012   2.721  51.005  1.00  0.00     0.245 C 
HETATM    3  C2  UNL     1      26.172   3.000  50.225  1.00  0.00     0.080 C 
HETATM    4  C3  UNL     1      26.140   4.033  49.430  1.00  0.00     0.089 C 
HETATM    5  C4  UNL     1      25.078   4.990  49.175  1.00  0.00     0.307 C 
HETATM    6  O2  UNL     1      24.236   4.470  49.941  1.00  0.00    -0.258 OA
HETATM    7  O3  UNL     1      24.085   5.877  48.942  1.00  0.00    -0.170 OA
HETATM    8  N1  UNL     1      22.860   5.809  49.495  1.00  0.00    -0.121 NA
HETATM    9  C5  UNL     1      22.150   4.735  49.162  1.00  0.00     0.111 C 
HETATM   10 BR1  UNL     1      22.560   3.229  48.017  1.00  0.00    -0.031 Br
HETATM   11  C6  UNL     1      20.797   4.629  49.717  1.00  0.00     0.096 C 
HETATM   12  C7  UNL     1      20.691   3.700  50.859  1.00  0.00    -0.024 C 
HETATM   13  C8  UNL     1      20.286   2.634  51.589  1.00  0.00    -0.025 C 
HETATM   14  C9  UNL     1      20.686   2.277  52.946  1.00  0.00     0.082 C 
HETATM   15  C10 UNL     1      21.284   0.984  53.167  1.00  0.00     0.033 C 
HETATM   16  N2  UNL     1      20.423   0.106  53.535  1.00  0.00    -0.249 NA
HETATM   17  C11 UNL     1      20.560  -1.239  53.904  1.00  0.00     0.233 C 
HETATM   18  N3  UNL     1      21.788  -1.760  53.962  1.00  0.00    -0.245 NA
HETATM   19  C12 UNL     1      22.802  -0.773  53.670  1.00  0.00     0.051 A 
HETATM   20  C13 UNL     1      24.041  -0.650  54.186  1.00  0.00     0.030 A 
HETATM   21  C14 UNL     1      24.591   0.526  53.517  1.00  0.00     0.028 A 
HETATM   22  C15 UNL     1      23.782   1.113  52.651  1.00  0.00     0.028 A 
HETATM   23  N4  UNL     1      24.011   2.246  51.833  1.00  0.00    -0.326 N 
HETATM   24  C16 UNL     1      22.564   0.342  52.774  1.00  0.00     0.135 A 
HETATM   25  H12 UNL     1      23.176   2.736  52.055  1.00  0.00     0.169 HD
ENDROOT
TORSDOF 0
ENDMDL
MODEL 8
REMARK VINA RESULT:      -8.2      6.677      9.251
REMARK  0 active torsions:
REMARK  status: ('A' for Active; 'I' for Inactive)
ROOT
HETATM    1  O1  UNL     1      28.875   4.731  48.156  1.00  0.00    -0.268 OA
HETATM    2  C1  UNL     1      29.422   5.824  48.434  1.00  0.00     0.245 C 
HETATM    3  C2  UNL     1      30.623   5.443  47.768  1.00  0.00     0.080 C 
HETATM    4  C3  UNL     1      31.575   6.329  47.671  1.00  0.00     0.089 C 
HETATM    5  C4  UNL     1      31.629   7.704  48.133  1.00  0.00     0.307 C 
HETATM    6  O2  UNL     1      30.474   7.736  48.610  1.00  0.00    -0.258 OA
HETATM    7  O3  UNL     1      31.673   8.984  48.564  1.00  0.00    -0.170 OA
HETATM    8  N1  UNL     1      30.649   9.618  49.166  1.00  0.00    -0.121 NA
HETATM    9  C5  UNL     1      29.564   9.776  48.414  1.00  0.00     0.111 C 
HETATM   10 BR1  UNL     1      29.176   9.251  46.592  1.00  0.00    -0.031 Br
HETATM   11  C6  UNL     1      28.431  10.487  49.016  1.00  0.00     0.096 C 
HETATM   12  C7  UNL     1      27.346   9.599  49.476  1.00  0.00    -0.024 C 
HETATM   13  C8  UNL     1      26.110   9.054  49.565  1.00  0.00    -0.025 C 
HETATM   14  C9  UNL     1      25.673   7.969  50.438  1.00  0.00     0.082 C 
HETATM   15  C10 UNL     1      25.099   6.792  49.836  1.00  0.00     0.033 C 
HETATM   16  N2  UNL     1      23.817   6.842  49.793  1.00  0.00    -0.249 NA
HETATM   17  C11 UNL     1      22.861   5.918  49.353  1.00  0.00     0.233 C 
HETATM   18  N3  UNL     1      23.278   4.719  48.939  1.00  0.00    -0.245 NA
HETATM   19  C12 UNL     1      24.709   4.573  49.081  1.00  0.00     0.051 A 
HETATM   20  C13 UNL     1      25.424   3.474  49.393  1.00  0.00     0.030 A 
HETATM   21  C14 UNL     1      26.809   3.937  49.392  1.00  0.00     0.028 A 
HETATM   22  C15 UNL     1      26.976   5.218  49.110  1.00  0.00     0.028 A 
HETATM   23  N4  UNL     1      28.173   5.967  49.010  1.00  0.00    -0.326 N 
HETATM   24  C16 UNL     1      25.618   5.698  48.976  1.00  0.00     0.135 A 
HETATM   25  H12 UNL     1      27.896   6.732  49.582  1.00  0.00     0.169 HD
ENDROOT
TORSDOF 0
ENDMDL
MODEL 9
REMARK VINA RESULT:      -8.1      3.842      4.943
REMARK  0 active torsions:
REMARK  status: ('A' for Active; 'I' for Inactive)
ROOT
HETATM    1  O1  UNL     1      22.267   5.142  51.767  1.00  0.00    -0.268 OA
HETATM    2  C1  UNL     1      22.593   5.761  50.727  1.00  0.00     0.245 C 
HETATM    3  C2  UNL     1      21.576   6.738  50.936  1.00  0.00     0.080 C 
HETATM    4  C3  UNL     1      21.527   7.753  50.119  1.00  0.00     0.089 C 
HETATM    5  C4  UNL     1      22.371   8.088  48.985  1.00  0.00     0.307 C 
HETATM    6  O2  UNL     1      23.142   7.109  49.091  1.00  0.00    -0.258 OA
HETATM    7  O3  UNL     1      23.160   8.395  47.932  1.00  0.00    -0.170 OA
HETATM    8  N1  UNL     1      24.235   7.679  47.554  1.00  0.00    -0.121 NA
HETATM    9  C5  UNL     1      25.223   7.633  48.443  1.00  0.00     0.111 C 
HETATM   10 BR1  UNL     1      25.402   8.413  50.206  1.00  0.00    -0.031 Br
HETATM   11  C6  UNL     1      26.429   6.888  48.065  1.00  0.00     0.096 C 
HETATM   12  C7  UNL     1      26.517   5.547  48.677  1.00  0.00    -0.024 C 
HETATM   13  C8  UNL     1      27.003   4.527  49.422  1.00  0.00    -0.025 C 
HETATM   14  C9  UNL     1      26.437   3.192  49.586  1.00  0.00     0.082 C 
HETATM   15  C10 UNL     1      26.119   2.741  50.918  1.00  0.00     0.033 C 
HETATM   16  N2  UNL     1      27.068   2.051  51.438  1.00  0.00    -0.249 NA
HETATM   17  C11 UNL     1      27.172   1.382  52.664  1.00  0.00     0.233 C 
HETATM   18  N3  UNL     1      26.109   1.366  53.472  1.00  0.00    -0.245 NA
HETATM   19  C12 UNL     1      24.974   2.032  52.875  1.00  0.00     0.051 A 
HETATM   20  C13 UNL     1      23.663   1.738  52.986  1.00  0.00     0.030 A 
HETATM   21  C14 UNL     1      23.002   2.749  52.164  1.00  0.00     0.028 A 
HETATM   22  C15 UNL     1      23.809   3.613  51.573  1.00  0.00     0.028 A 
HETATM   23  N4  UNL     1      23.492   4.710  50.736  1.00  0.00    -0.326 N 
HETATM   24  C16 UNL     1      25.122   3.135  51.946  1.00  0.00     0.135 A 
HETATM   25  H12 UNL     1      24.133   4.505  50.004  1.00  0.00     0.169 HD
ENDROOT
TORSDOF 0
ENDMDL
