MODEL 1
REMARK VINA RESULT:      -7.4      0.000      0.000
REMARK  5 active torsions:
REMARK  status: ('A' for Active; 'I' for Inactive)
REMARK    1  A    between atoms: C7_7  and  N1_8 
REMARK    2  A    between atoms: N1_8  and  C8_9 
REMARK    3  A    between atoms: C8_9  and  C9_10 
REMARK    4  A    between atoms: C8_9  and  C10_12 
REMARK    5  A    between atoms: C9_10  and  P1_11 
ROOT
HETATM    1  C8  UNL     1      24.986   1.882  52.246  1.00  0.00     0.142 C 
ENDROOT
BRANCH   1   2
HETATM    2  N1  UNL     1      26.026   1.032  51.746  1.00  0.00    -0.377 N 
HETATM    3  H8  UNL     1      25.996   0.626  50.786  1.00  0.00     0.160 HD
BRANCH   2   4
HETATM    4  C7  UNL     1      27.156   0.699  52.540  1.00  0.00     0.034 A 
HETATM    5  C2  UNL     1      27.515  -0.605  52.828  1.00  0.00    -0.036 A 
HETATM    6  C1  UNL     1      26.674  -1.709  52.274  1.00  0.00     0.050 C 
HETATM    7  C3  UNL     1      28.601  -0.956  53.592  1.00  0.00     0.009 A 
HETATM    8  C4  UNL     1      29.404   0.032  54.124  1.00  0.00     0.001 A 
HETATM    9  C5  UNL     1      29.099   1.337  53.874  1.00  0.00     0.002 A 
HETATM   10  C6  UNL     1      28.001   1.633  53.102  1.00  0.00     0.029 A 
ENDBRANCH   2   4
ENDBRANCH   1   2
BRANCH   1  11
HETATM   11  C9  UNL     1      24.936   3.140  51.484  1.00  0.00     0.066 C 
BRANCH  11  12
HETATM   12  P1  UNL     1      25.955   3.289  50.162  1.00  0.00    -0.121 P 
HETATM   13  H11 UNL     1      26.016   4.583  49.516  1.00  0.00     0.055 HD
ENDBRANCH  11  12
ENDBRANCH   1  11
BRANCH   1  14
HETATM   14  C10 UNL     1      23.645   1.239  52.181  1.00  0.00     0.004 A 
HETATM   15  C11 UNL     1      22.601   1.410  51.268  1.00  0.00     0.153 A 
HETATM   16  O1  UNL     1      21.609   0.627  51.614  1.00  0.00    -0.321 OA
HETATM   17  C12 UNL     1      21.909  -0.060  52.695  1.00  0.00     0.085 A 
HETATM   18  C13 UNL     1      21.217  -1.006  53.448  1.00  0.00     0.038 A 
HETATM   19  C17 UNL     1      23.186   0.297  53.083  1.00  0.00     0.008 A 
HETATM   20  C14 UNL     1      21.804  -1.575  54.567  1.00  0.00     0.003 A 
HETATM   21  C15 UNL     1      23.081  -1.206  54.942  1.00  0.00     0.001 A 
HETATM   22  C16 UNL     1      23.788  -0.259  54.196  1.00  0.00     0.015 A 
ENDBRANCH   1  14
TORSDOF 5
ENDMDL
MODEL 2
REMARK VINA RESULT:      -7.4      2.022      5.643
REMARK  5 active torsions:
REMARK  status: ('A' for Active; 'I' for Inactive)
REMARK    1  A    between atoms: C7_7  and  N1_8 
REMARK    2  A    between atoms: N1_8  and  C8_9 
REMARK    3  A    between atoms: C8_9  and  C9_10 
REMARK    4  A    between atoms: C8_9  and  C10_12 
REMARK    5  A    between atoms: C9_10  and  P1_11 
ROOT
HETATM    1  C8  UNL     1      24.495   1.276  52.232  1.00  0.00     0.142 C 
ENDROOT
BRANCH   1   2
HETATM    2  N1  UNL     1      23.381   1.547  53.091  1.00  0.00    -0.377 N 
HETATM    3  H8  UNL     1      23.185   2.502  53.461  1.00  0.00     0.160 HD
BRANCH   2   4
HETATM    4  C7  UNL     1      22.481   0.519  53.484  1.00  0.00     0.034 A 
HETATM    5  C2  UNL     1      21.111   0.619  53.327  1.00  0.00    -0.036 A 
HETATM    6  C1  UNL     1      20.558   1.865  52.714  1.00  0.00     0.050 C 
HETATM    7  C3  UNL     1      20.219  -0.357  53.697  1.00  0.00     0.009 A 
HETATM    8  C4  UNL     1      20.687  -1.524  54.267  1.00  0.00     0.001 A 
HETATM    9  C5  UNL     1      22.029  -1.678  54.447  1.00  0.00     0.002 A 
HETATM   10  C6  UNL     1      22.878  -0.671  54.058  1.00  0.00     0.029 A 
ENDBRANCH   2   4
ENDBRANCH   1   2
BRANCH   1  11
HETATM   11  C9  UNL     1      24.574   2.277  51.156  1.00  0.00     0.066 C 
BRANCH  11  12
HETATM   12  P1  UNL     1      23.729   3.710  51.365  1.00  0.00    -0.121 P 
HETATM   13  H11 UNL     1      22.295   3.666  51.176  1.00  0.00     0.055 HD
ENDBRANCH  11  12
ENDBRANCH   1  11
BRANCH   1  14
HETATM   14  C10 UNL     1      25.790   1.269  52.965  1.00  0.00     0.004 A 
HETATM   15  C11 UNL     1      26.397   2.261  53.739  1.00  0.00     0.153 A 
HETATM   16  O1  UNL     1      27.540   1.800  54.189  1.00  0.00    -0.321 OA
HETATM   17  C12 UNL     1      27.745   0.570  53.773  1.00  0.00     0.085 A 
HETATM   18  C13 UNL     1      28.780  -0.343  53.965  1.00  0.00     0.038 A 
HETATM   19  C17 UNL     1      26.664   0.198  52.997  1.00  0.00     0.008 A 
HETATM   20  C14 UNL     1      28.720  -1.600  53.386  1.00  0.00     0.003 A 
HETATM   21  C15 UNL     1      27.632  -1.956  52.614  1.00  0.00     0.001 A 
HETATM   22  C16 UNL     1      26.587  -1.051  52.411  1.00  0.00     0.015 A 
ENDBRANCH   1  14
TORSDOF 5
ENDMDL
MODEL 3
REMARK VINA RESULT:      -7.2      2.086      4.152
REMARK  5 active torsions:
REMARK  status: ('A' for Active; 'I' for Inactive)
REMARK    1  A    between atoms: C7_7  and  N1_8 
REMARK    2  A    between atoms: N1_8  and  C8_9 
REMARK    3  A    between atoms: C8_9  and  C9_10 
REMARK    4  A    between atoms: C8_9  and  C10_12 
REMARK    5  A    between atoms: C9_10  and  P1_11 
ROOT
HETATM    1  C8  UNL     1      25.709   0.261  52.724  1.00  0.00     0.142 C 
ENDROOT
BRANCH   1   2
HETATM    2  N1  UNL     1      25.829   1.684  52.847  1.00  0.00    -0.377 N 
HETATM    3  H8  UNL     1      26.021   2.147  53.762  1.00  0.00     0.160 HD
BRANCH   2   4
HETATM    4  C7  UNL     1      25.690   2.539  51.721  1.00  0.00     0.034 A 
HETATM    5  C2  UNL     1      24.660   3.453  51.593  1.00  0.00    -0.036 A 
HETATM    6  C1  UNL     1      23.653   3.542  52.694  1.00  0.00     0.050 C 
HETATM    7  C3  UNL     1      24.501   4.291  50.517  1.00  0.00     0.009 A 
HETATM    8  C4  UNL     1      25.408   4.242  49.478  1.00  0.00     0.001 A 
HETATM    9  C5  UNL     1      26.445   3.359  49.549  1.00  0.00     0.002 A 
HETATM   10  C6  UNL     1      26.558   2.544  50.649  1.00  0.00     0.029 A 
ENDBRANCH   2   4
ENDBRANCH   1   2
BRANCH   1  11
HETATM   11  C9  UNL     1      27.011  -0.388  52.945  1.00  0.00     0.066 C 
BRANCH  11  12
HETATM   12  P1  UNL     1      28.221   0.522  53.665  1.00  0.00    -0.121 P 
HETATM   13  H11 UNL     1      27.810   1.668  54.448  1.00  0.00     0.055 HD
ENDBRANCH  11  12
ENDBRANCH   1  11
BRANCH   1  14
HETATM   14  C10 UNL     1      24.728  -0.312  53.685  1.00  0.00     0.004 A 
HETATM   15  C11 UNL     1      24.926  -0.925  54.925  1.00  0.00     0.153 A 
HETATM   16  O1  UNL     1      23.760  -1.273  55.412  1.00  0.00    -0.321 OA
HETATM   17  C12 UNL     1      22.790  -0.939  54.589  1.00  0.00     0.085 A 
HETATM   18  C13 UNL     1      21.405  -1.083  54.636  1.00  0.00     0.038 A 
HETATM   19  C17 UNL     1      23.359  -0.330  53.488  1.00  0.00     0.008 A 
HETATM   20  C14 UNL     1      20.618  -0.621  53.594  1.00  0.00     0.003 A 
HETATM   21  C15 UNL     1      21.203  -0.014  52.500  1.00  0.00     0.001 A 
HETATM   22  C16 UNL     1      22.590   0.137  52.438  1.00  0.00     0.015 A 
ENDBRANCH   1  14
TORSDOF 5
ENDMDL
MODEL 4
REMARK VINA RESULT:      -7.1      2.516      4.880
REMARK  5 active torsions:
REMARK  status: ('A' for Active; 'I' for Inactive)
REMARK    1  A    between atoms: C7_7  and  N1_8 
REMARK    2  A    between atoms: N1_8  and  C8_9 
REMARK    3  A    between atoms: C8_9  and  C9_10 
REMARK    4  A    between atoms: C8_9  and  C10_12 
REMARK    5  A    between atoms: C9_10  and  P1_11 
ROOT
HETATM    1  C8  UNL     1      24.542   1.855  51.665  1.00  0.00     0.142 C 
ENDROOT
BRANCH   1   2
HETATM    2  N1  UNL     1      25.061   1.631  52.982  1.00  0.00    -0.377 N 
HETATM    3  H8  UNL     1      24.452   1.650  53.828  1.00  0.00     0.160 HD
BRANCH   2   4
HETATM    4  C7  UNL     1      26.441   1.371  53.200  1.00  0.00     0.034 A 
HETATM    5  C2  UNL     1      26.974   0.096  53.209  1.00  0.00    -0.036 A 
HETATM    6  C1  UNL     1      26.052  -1.058  52.977  1.00  0.00     0.050 C 
HETATM    7  C3  UNL     1      28.302  -0.185  53.417  1.00  0.00     0.009 A 
HETATM    8  C4  UNL     1      29.188   0.850  53.637  1.00  0.00     0.001 A 
HETATM    9  C5  UNL     1      28.720   2.130  53.639  1.00  0.00     0.002 A 
HETATM   10  C6  UNL     1      27.381   2.355  53.425  1.00  0.00     0.029 A 
ENDBRANCH   2   4
ENDBRANCH   1   2
BRANCH   1  11
HETATM   11  C9  UNL     1      23.183   1.306  51.545  1.00  0.00     0.066 C 
BRANCH  11  12
HETATM   12  P1  UNL     1      22.496   0.623  52.913  1.00  0.00    -0.121 P 
HETATM   13  H11 UNL     1      22.919   1.144  54.196  1.00  0.00     0.055 HD
ENDBRANCH  11  12
ENDBRANCH   1  11
BRANCH   1  14
HETATM   14  C10 UNL     1      24.500   3.299  51.309  1.00  0.00     0.004 A 
HETATM   15  C11 UNL     1      23.626   4.309  51.721  1.00  0.00     0.153 A 
HETATM   16  O1  UNL     1      23.979   5.431  51.141  1.00  0.00    -0.321 OA
HETATM   17  C12 UNL     1      25.027   5.249  50.368  1.00  0.00     0.085 A 
HETATM   18  C13 UNL     1      25.772   6.100  49.554  1.00  0.00     0.038 A 
HETATM   19  C17 UNL     1      25.386   3.918  50.446  1.00  0.00     0.008 A 
HETATM   20  C14 UNL     1      26.853   5.613  48.837  1.00  0.00     0.003 A 
HETATM   21  C15 UNL     1      27.199   4.279  48.926  1.00  0.00     0.001 A 
HETATM   22  C16 UNL     1      26.461   3.414  49.738  1.00  0.00     0.015 A 
ENDBRANCH   1  14
TORSDOF 5
ENDMDL
MODEL 5
REMARK VINA RESULT:      -7.1      2.378      5.482
REMARK  5 active torsions:
REMARK  status: ('A' for Active; 'I' for Inactive)
REMARK    1  A    between atoms: C7_7  and  N1_8 
REMARK    2  A    between atoms: N1_8  and  C8_9 
REMARK    3  A    between atoms: C8_9  and  C9_10 
REMARK    4  A    between atoms: C8_9  and  C10_12 
REMARK    5  A    between atoms: C9_10  and  P1_11 
ROOT
HETATM    1  C8  UNL     1      24.387   1.616  52.637  1.00  0.00     0.142 C 
ENDROOT
BRANCH   1   2
HETATM    2  N1  UNL     1      24.318   1.760  51.213  1.00  0.00    -0.377 N 
HETATM    3  H8  UNL     1      23.818   1.071  50.609  1.00  0.00     0.160 HD
BRANCH   2   4
HETATM    4  C7  UNL     1      24.930   2.857  50.549  1.00  0.00     0.034 A 
HETATM    5  C2  UNL     1      24.271   4.044  50.291  1.00  0.00    -0.036 A 
HETATM    6  C1  UNL     1      22.850   4.175  50.737  1.00  0.00     0.050 C 
HETATM    7  C3  UNL     1      24.837   5.119  49.652  1.00  0.00     0.009 A 
HETATM    8  C4  UNL     1      26.147   5.041  49.224  1.00  0.00     0.001 A 
HETATM    9  C5  UNL     1      26.848   3.894  49.449  1.00  0.00     0.002 A 
HETATM   10  C6  UNL     1      26.233   2.849  50.094  1.00  0.00     0.029 A 
ENDBRANCH   2   4
ENDBRANCH   1   2
BRANCH   1  11
HETATM   11  C9  UNL     1      23.094   1.164  53.174  1.00  0.00     0.066 C 
BRANCH  11  12
HETATM   12  P1  UNL     1      21.930   0.659  52.078  1.00  0.00    -0.121 P 
HETATM   13  H11 UNL     1      22.190  -0.569  51.357  1.00  0.00     0.055 HD
ENDBRANCH  11  12
ENDBRANCH   1  11
BRANCH   1  14
HETATM   14  C10 UNL     1      25.437   0.650  53.060  1.00  0.00     0.004 A 
HETATM   15  C11 UNL     1      25.377  -0.734  53.234  1.00  0.00     0.153 A 
HETATM   16  O1  UNL     1      26.555  -1.161  53.619  1.00  0.00    -0.321 OA
HETATM   17  C12 UNL     1      27.405  -0.162  53.717  1.00  0.00     0.085 A 
HETATM   18  C13 UNL     1      28.748  -0.083  54.079  1.00  0.00     0.038 A 
HETATM   19  C17 UNL     1      26.738   0.998  53.373  1.00  0.00     0.008 A 
HETATM   20  C14 UNL     1      29.399   1.140  54.091  1.00  0.00     0.003 A 
HETATM   21  C15 UNL     1      28.717   2.290  53.744  1.00  0.00     0.001 A 
HETATM   22  C16 UNL     1      27.370   2.227  53.380  1.00  0.00     0.015 A 
ENDBRANCH   1  14
TORSDOF 5
ENDMDL
MODEL 6
REMARK VINA RESULT:      -6.8      3.079      5.787
REMARK  5 active torsions:
REMARK  status: ('A' for Active; 'I' for Inactive)
REMARK    1  A    between atoms: C7_7  and  N1_8 
REMARK    2  A    between atoms: N1_8  and  C8_9 
REMARK    3  A    between atoms: C8_9  and  C9_10 
REMARK    4  A    between atoms: C8_9  and  C10_12 
REMARK    5  A    between atoms: C9_10  and  P1_11 
ROOT
HETATM    1  C8  UNL     1      23.760   2.738  50.212  1.00  0.00     0.142 C 
ENDROOT
BRANCH   1   2
HETATM    2  N1  UNL     1      23.979   2.528  51.613  1.00  0.00    -0.377 N 
HETATM    3  H8  UNL     1      23.592   3.172  52.337  1.00  0.00     0.160 HD
BRANCH   2   4
HETATM    4  C7  UNL     1      24.738   1.425  52.087  1.00  0.00     0.034 A 
HETATM    5  C2  UNL     1      24.210   0.444  52.906  1.00  0.00    -0.036 A 
HETATM    6  C1  UNL     1      22.773   0.555  53.305  1.00  0.00     0.050 C 
HETATM    7  C3  UNL     1      24.919  -0.632  53.378  1.00  0.00     0.009 A 
HETATM    8  C4  UNL     1      26.248  -0.773  53.034  1.00  0.00     0.001 A 
HETATM    9  C5  UNL     1      26.824   0.164  52.229  1.00  0.00     0.002 A 
HETATM   10  C6  UNL     1      26.068   1.221  51.783  1.00  0.00     0.029 A 
ENDBRANCH   2   4
ENDBRANCH   1   2
BRANCH   1  11
HETATM   11  C9  UNL     1      22.368   2.423  49.853  1.00  0.00     0.066 C 
BRANCH  11  12
HETATM   12  P1  UNL     1      22.062   1.945  48.276  1.00  0.00    -0.121 P 
HETATM   13  H11 UNL     1      20.732   2.187  47.758  1.00  0.00     0.055 HD
ENDBRANCH  11  12
ENDBRANCH   1  11
BRANCH   1  14
HETATM   14  C10 UNL     1      24.049   4.137  49.795  1.00  0.00     0.004 A 
HETATM   15  C11 UNL     1      23.212   5.254  49.731  1.00  0.00     0.153 A 
HETATM   16  O1  UNL     1      23.911   6.278  49.303  1.00  0.00    -0.321 OA
HETATM   17  C12 UNL     1      25.158   5.930  49.074  1.00  0.00     0.085 A 
HETATM   18  C13 UNL     1      26.276   6.627  48.620  1.00  0.00     0.038 A 
HETATM   19  C17 UNL     1      25.286   4.587  49.372  1.00  0.00     0.008 A 
HETATM   20  C14 UNL     1      27.492   5.980  48.473  1.00  0.00     0.003 A 
HETATM   21  C15 UNL     1      27.602   4.637  48.775  1.00  0.00     0.001 A 
HETATM   22  C16 UNL     1      26.491   3.924  49.231  1.00  0.00     0.015 A 
ENDBRANCH   1  14
TORSDOF 5
ENDMDL
MODEL 7
REMARK VINA RESULT:      -6.6      2.504      4.518
REMARK  5 active torsions:
REMARK  status: ('A' for Active; 'I' for Inactive)
REMARK    1  A    between atoms: C7_7  and  N1_8 
REMARK    2  A    between atoms: N1_8  and  C8_9 
REMARK    3  A    between atoms: C8_9  and  C9_10 
REMARK    4  A    between atoms: C8_9  and  C10_12 
REMARK    5  A    between atoms: C9_10  and  P1_11 
ROOT
HETATM    1  C8  UNL     1      24.490   0.736  52.538  1.00  0.00     0.142 C 
ENDROOT
BRANCH   1   2
HETATM    2  N1  UNL     1      24.878   2.106  52.697  1.00  0.00    -0.377 N 
HETATM    3  H8  UNL     1      24.949   2.557  53.635  1.00  0.00     0.160 HD
BRANCH   2   4
HETATM    4  C7  UNL     1      25.187   2.923  51.576  1.00  0.00     0.034 A 
HETATM    5  C2  UNL     1      24.437   4.030  51.223  1.00  0.00    -0.036 A 
HETATM    6  C1  UNL     1      23.251   4.378  52.062  1.00  0.00     0.050 C 
HETATM    7  C3  UNL     1      24.712   4.837  50.147  1.00  0.00     0.009 A 
HETATM    8  C4  UNL     1      25.798   4.552  49.344  1.00  0.00     0.001 A 
HETATM    9  C5  UNL     1      26.575   3.472  49.644  1.00  0.00     0.002 A 
HETATM   10  C6  UNL     1      26.255   2.698  50.733  1.00  0.00     0.029 A 
ENDBRANCH   2   4
ENDBRANCH   1   2
BRANCH   1  11
HETATM   11  C9  UNL     1      25.162  -0.111  53.535  1.00  0.00     0.066 C 
BRANCH  11  12
HETATM   12  P1  UNL     1      26.796   0.151  53.803  1.00  0.00    -0.121 P 
HETATM   13  H11 UNL     1      27.404   1.279  53.131  1.00  0.00     0.055 HD
ENDBRANCH  11  12
ENDBRANCH   1  11
BRANCH   1  14
HETATM   14  C10 UNL     1      23.020   0.543  52.669  1.00  0.00     0.004 A 
HETATM   15  C11 UNL     1      22.255   0.130  53.763  1.00  0.00     0.153 A 
HETATM   16  O1  UNL     1      20.993   0.106  53.407  1.00  0.00    -0.321 OA
HETATM   17  C12 UNL     1      20.853   0.474  52.152  1.00  0.00     0.085 A 
HETATM   18  C13 UNL     1      19.748   0.613  51.315  1.00  0.00     0.038 A 
HETATM   19  C17 UNL     1      22.109   0.758  51.651  1.00  0.00     0.008 A 
HETATM   20  C14 UNL     1      19.912   1.030  50.004  1.00  0.00     0.003 A 
HETATM   21  C15 UNL     1      21.174   1.310  49.519  1.00  0.00     0.001 A 
HETATM   22  C16 UNL     1      22.292   1.174  50.346  1.00  0.00     0.015 A 
ENDBRANCH   1  14
TORSDOF 5
ENDMDL
MODEL 8
REMARK VINA RESULT:      -6.5      2.776      5.280
REMARK  5 active torsions:
REMARK  status: ('A' for Active; 'I' for Inactive)
REMARK    1  A    between atoms: C7_7  and  N1_8 
REMARK    2  A    between atoms: N1_8  and  C8_9 
REMARK    3  A    between atoms: C8_9  and  C9_10 
REMARK    4  A    between atoms: C8_9  and  C10_12 
REMARK    5  A    between atoms: C9_10  and  P1_11 
ROOT
HETATM    1  C8  UNL     1      24.155   3.692  51.937  1.00  0.00     0.142 C 
ENDROOT
BRANCH   1   2
HETATM    2  N1  UNL     1      24.131   3.915  50.522  1.00  0.00    -0.377 N 
HETATM    3  H8  UNL     1      23.318   3.635  49.930  1.00  0.00     0.160 HD
BRANCH   2   4
HETATM    4  C7  UNL     1      25.220   4.531  49.850  1.00  0.00     0.034 A 
HETATM    5  C2  UNL     1      25.215   5.861  49.470  1.00  0.00    -0.036 A 
HETATM    6  C1  UNL     1      24.005   6.681  49.785  1.00  0.00     0.050 C 
HETATM    7  C3  UNL     1      26.252   6.482  48.820  1.00  0.00     0.009 A 
HETATM    8  C4  UNL     1      27.387   5.762  48.510  1.00  0.00     0.001 A 
HETATM    9  C5  UNL     1      27.451   4.446  48.859  1.00  0.00     0.002 A 
HETATM   10  C6  UNL     1      26.384   3.873  49.509  1.00  0.00     0.029 A 
ENDBRANCH   2   4
ENDBRANCH   1   2
BRANCH   1  11
HETATM   11  C9  UNL     1      22.954   4.259  52.570  1.00  0.00     0.066 C 
BRANCH  11  12
HETATM   12  P1  UNL     1      21.607   4.502  51.603  1.00  0.00    -0.121 P 
HETATM   13  H11 UNL     1      20.960   3.326  51.061  1.00  0.00     0.055 HD
ENDBRANCH  11  12
ENDBRANCH   1  11
BRANCH   1  14
HETATM   14  C10 UNL     1      24.233   2.247  52.284  1.00  0.00     0.004 A 
HETATM   15  C11 UNL     1      23.222   1.293  52.425  1.00  0.00     0.153 A 
HETATM   16  O1  UNL     1      23.770   0.145  52.742  1.00  0.00    -0.321 OA
HETATM   17  C12 UNL     1      25.078   0.257  52.824  1.00  0.00     0.085 A 
HETATM   18  C13 UNL     1      26.096  -0.646  53.122  1.00  0.00     0.038 A 
HETATM   19  C17 UNL     1      25.410   1.568  52.543  1.00  0.00     0.008 A 
HETATM   20  C14 UNL     1      27.417  -0.230  53.134  1.00  0.00     0.003 A 
HETATM   21  C15 UNL     1      27.732   1.084  52.850  1.00  0.00     0.001 A 
HETATM   22  C16 UNL     1      26.722   2.001  52.550  1.00  0.00     0.015 A 
ENDBRANCH   1  14
TORSDOF 5
ENDMDL
MODEL 9
REMARK VINA RESULT:      -6.4      2.628      5.700
REMARK  5 active torsions:
REMARK  status: ('A' for Active; 'I' for Inactive)
REMARK    1  A    between atoms: C7_7  and  N1_8 
REMARK    2  A    between atoms: N1_8  and  C8_9 
REMARK    3  A    between atoms: C8_9  and  C9_10 
REMARK    4  A    between atoms: C8_9  and  C10_12 
REMARK    5  A    between atoms: C9_10  and  P1_11 
ROOT
HETATM    1  C8  UNL     1      25.168   1.565  53.333  1.00  0.00     0.142 C 
ENDROOT
BRANCH   1   2
HETATM    2  N1  UNL     1      24.673   0.230  53.171  1.00  0.00    -0.377 N 
HETATM    3  H8  UNL     1      25.302  -0.571  52.949  1.00  0.00     0.160 HD
BRANCH   2   4
HETATM    4  C7  UNL     1      23.291  -0.068  53.305  1.00  0.00     0.034 A 
HETATM    5  C2  UNL     1      22.776  -0.785  54.369  1.00  0.00    -0.036 A 
HETATM    6  C1  UNL     1      23.721  -1.264  55.423  1.00  0.00     0.050 C 
HETATM    7  C3  UNL     1      21.446  -1.088  54.525  1.00  0.00     0.009 A 
HETATM    8  C4  UNL     1      20.538  -0.666  53.574  1.00  0.00     0.001 A 
HETATM    9  C5  UNL     1      20.987   0.045  52.502  1.00  0.00     0.002 A 
HETATM   10  C6  UNL     1      22.329   0.321  52.396  1.00  0.00     0.029 A 
ENDBRANCH   2   4
ENDBRANCH   1   2
BRANCH   1  11
HETATM   11  C9  UNL     1      26.309   1.584  54.262  1.00  0.00     0.066 C 
BRANCH  11  12
HETATM   12  P1  UNL     1      27.122   0.142  54.523  1.00  0.00    -0.121 P 
HETATM   13  H11 UNL     1      27.426  -0.667  53.362  1.00  0.00     0.055 HD
ENDBRANCH  11  12
ENDBRANCH   1  11
BRANCH   1  14
HETATM   14  C10 UNL     1      25.600   2.172  52.044  1.00  0.00     0.004 A 
HETATM   15  C11 UNL     1      26.762   1.973  51.294  1.00  0.00     0.153 A 
HETATM   16  O1  UNL     1      26.705   2.730  50.224  1.00  0.00    -0.321 OA
HETATM   17  C12 UNL     1      25.588   3.424  50.201  1.00  0.00     0.085 A 
HETATM   18  C13 UNL     1      25.058   4.350  49.306  1.00  0.00     0.038 A 
HETATM   19  C17 UNL     1      24.864   3.100  51.332  1.00  0.00     0.008 A 
HETATM   20  C14 UNL     1      23.826   4.934  49.550  1.00  0.00     0.003 A 
HETATM   21  C15 UNL     1      23.114   4.599  50.686  1.00  0.00     0.001 A 
HETATM   22  C16 UNL     1      23.633   3.672  51.593  1.00  0.00     0.015 A 
ENDBRANCH   1  14
TORSDOF 5
ENDMDL
