MODEL 1
REMARK VINA RESULT:      -9.1      0.000      0.000
REMARK  4 active torsions:
REMARK  status: ('A' for Active; 'I' for Inactive)
REMARK    1  A    between atoms: C4_5  and  C5_6 
REMARK    2  A    between atoms: C5_6  and  N2_8 
REMARK    3  A    between atoms: N2_8  and  C6_9 
REMARK    4  A    between atoms: C18_21  and  O1_22 
ROOT
HETATM    1  C1  UNL     1      28.294   2.310  53.806  1.00  0.00     0.143 C 
HETATM    2  N1  UNL     1      27.145   1.571  53.777  1.00  0.00    -0.415 N 
HETATM    3  C2  UNL     1      25.900   2.112  53.949  1.00  0.00     0.122 C 
HETATM    4  C3  UNL     1      25.188   2.934  52.977  1.00  0.00     0.025 C 
HETATM    5  C4  UNL     1      23.979   2.632  52.270  1.00  0.00     0.029 C 
HETATM    6  C12 UNL     1      23.347   1.209  52.293  1.00  0.00     0.030 C 
HETATM    7  C13 UNL     1      22.693   0.055  52.227  1.00  0.00     0.006 C 
HETATM    8  C14 UNL     1      23.857  -0.369  53.051  1.00  0.00    -0.028 A 
HETATM    9  C15 UNL     1      25.050  -0.227  52.322  1.00  0.00     0.043 A 
HETATM   10  C16 UNL     1      26.392  -0.236  52.290  1.00  0.00     0.019 A 
HETATM   11  C17 UNL     1      26.006  -0.504  53.578  1.00  0.00     0.038 A 
HETATM   12  C18 UNL     1      25.168  -0.727  54.630  1.00  0.00     0.077 A 
HETATM   13  C19 UNL     1      23.781  -0.666  54.386  1.00  0.00     0.070 A 
HETATM   14 CL1  UNL     1      22.306  -0.847  55.246  1.00  0.00    -0.081 Cl
HETATM   15  C20 UNL     1      27.323   0.140  53.991  1.00  0.00     0.134 C 
ENDROOT
BRANCH   5  16
HETATM   16  C5  UNL     1      23.335   3.629  51.279  1.00  0.00     0.087 C 
HETATM   17  S1  UNL     1      22.044   4.397  51.970  1.00  0.00    -0.065 SA
BRANCH  16  18
HETATM   18  N2  UNL     1      23.796   3.856  49.993  1.00  0.00    -0.350 N 
HETATM   19  H7  UNL     1      23.144   3.493  49.278  1.00  0.00     0.166 HD
BRANCH  18  20
HETATM   20  C6  UNL     1      24.948   4.474  49.492  1.00  0.00     0.032 A 
HETATM   21  C7  UNL     1      24.948   5.781  49.030  1.00  0.00     0.029 A 
HETATM   22  C8  UNL     1      26.083   6.392  48.561  1.00  0.00     0.002 A 
HETATM   23  C9  UNL     1      27.261   5.690  48.547  1.00  0.00     0.000 A 
HETATM   24  C10 UNL     1      27.243   4.404  49.004  1.00  0.00     0.002 A 
HETATM   25  C11 UNL     1      26.142   3.742  49.484  1.00  0.00     0.029 A 
ENDBRANCH  18  20
ENDBRANCH  16  18
ENDBRANCH   5  16
BRANCH  12  26
HETATM   26  O1  UNL     1      25.689  -1.001  55.883  1.00  0.00    -0.362 OA
HETATM   27  H17 UNL     1      25.679  -0.311  56.641  1.00  0.00     0.217 HD
ENDBRANCH  12  26
TORSDOF 4
ENDMDL
MODEL 2
REMARK VINA RESULT:      -8.9      3.776      6.333
REMARK  4 active torsions:
REMARK  status: ('A' for Active; 'I' for Inactive)
REMARK    1  A    between atoms: C4_5  and  C5_6 
REMARK    2  A    between atoms: C5_6  and  N2_8 
REMARK    3  A    between atoms: N2_8  and  C6_9 
REMARK    4  A    between atoms: C18_21  and  O1_22 
ROOT
HETATM    1  C1  UNL     1      19.073  -0.897  53.432  1.00  0.00     0.143 C 
HETATM    2  N1  UNL     1      19.907   0.083  52.972  1.00  0.00    -0.415 N 
HETATM    3  C2  UNL     1      20.955   0.578  53.698  1.00  0.00     0.122 C 
HETATM    4  C3  UNL     1      22.208  -0.120  53.966  1.00  0.00     0.025 C 
HETATM    5  C4  UNL     1      23.527   0.212  53.514  1.00  0.00     0.029 C 
HETATM    6  C12 UNL     1      23.776   1.310  52.438  1.00  0.00     0.030 C 
HETATM    7  C13 UNL     1      24.139   2.218  51.540  1.00  0.00     0.006 C 
HETATM    8  C14 UNL     1      22.661   2.368  51.456  1.00  0.00    -0.028 A 
HETATM    9  C15 UNL     1      22.072   1.173  51.008  1.00  0.00     0.043 A 
HETATM   10  C16 UNL     1      20.969   0.441  50.785  1.00  0.00     0.019 A 
HETATM   11  C17 UNL     1      20.570   1.644  51.309  1.00  0.00     0.038 A 
HETATM   12  C18 UNL     1      20.680   2.906  51.812  1.00  0.00     0.077 A 
HETATM   13  C19 UNL     1      21.974   3.451  51.937  1.00  0.00     0.070 A 
HETATM   14 CL1  UNL     1      22.721   4.904  52.465  1.00  0.00    -0.081 Cl
HETATM   15  C20 UNL     1      19.379   0.879  51.871  1.00  0.00     0.134 C 
ENDROOT
BRANCH   5  16
HETATM   16  C5  UNL     1      24.766  -0.624  53.907  1.00  0.00     0.087 C 
HETATM   17  S1  UNL     1      24.607  -1.235  55.435  1.00  0.00    -0.065 SA
BRANCH  16  18
HETATM   18  N2  UNL     1      25.853  -0.845  53.076  1.00  0.00    -0.350 N 
HETATM   19  H7  UNL     1      25.573  -1.273  52.179  1.00  0.00     0.166 HD
BRANCH  18  20
HETATM   20  C6  UNL     1      27.224  -0.599  53.219  1.00  0.00     0.032 A 
HETATM   21  C7  UNL     1      27.730   0.670  53.453  1.00  0.00     0.029 A 
HETATM   22  C8  UNL     1      29.071   0.906  53.615  1.00  0.00     0.002 A 
HETATM   23  C9  UNL     1      29.946  -0.148  53.547  1.00  0.00     0.000 A 
HETATM   24  C10 UNL     1      29.432  -1.391  53.316  1.00  0.00     0.002 A 
HETATM   25  C11 UNL     1      28.104  -1.687  53.145  1.00  0.00     0.029 A 
ENDBRANCH  18  20
ENDBRANCH  16  18
ENDBRANCH   5  16
BRANCH  12  26
HETATM   26  O1  UNL     1      19.542   3.606  52.179  1.00  0.00    -0.362 OA
HETATM   27  H17 UNL     1      18.862   3.229  52.846  1.00  0.00     0.217 HD
ENDBRANCH  12  26
TORSDOF 4
ENDMDL
MODEL 3
REMARK VINA RESULT:      -8.2      3.588      6.184
REMARK  4 active torsions:
REMARK  status: ('A' for Active; 'I' for Inactive)
REMARK    1  A    between atoms: C4_5  and  C5_6 
REMARK    2  A    between atoms: C5_6  and  N2_8 
REMARK    3  A    between atoms: N2_8  and  C6_9 
REMARK    4  A    between atoms: C18_21  and  O1_22 
ROOT
HETATM    1  C1  UNL     1      27.568  -0.689  53.578  1.00  0.00     0.143 C 
HETATM    2  N1  UNL     1      26.739   0.246  53.025  1.00  0.00    -0.415 N 
HETATM    3  C2  UNL     1      25.543  -0.065  52.439  1.00  0.00     0.122 C 
HETATM    4  C3  UNL     1      24.330  -0.468  53.143  1.00  0.00     0.025 C 
HETATM    5  C4  UNL     1      23.082   0.229  53.240  1.00  0.00     0.029 C 
HETATM    6  C12 UNL     1      22.921   1.698  52.751  1.00  0.00     0.030 C 
HETATM    7  C13 UNL     1      22.635   2.939  52.375  1.00  0.00     0.006 C 
HETATM    8  C14 UNL     1      24.086   2.913  52.048  1.00  0.00    -0.028 A 
HETATM    9  C15 UNL     1      24.847   2.720  53.213  1.00  0.00     0.043 A 
HETATM   10  C16 UNL     1      26.033   2.472  53.791  1.00  0.00     0.019 A 
HETATM   11  C17 UNL     1      26.228   2.489  52.434  1.00  0.00     0.038 A 
HETATM   12  C18 UNL     1      25.922   2.609  51.110  1.00  0.00     0.077 A 
HETATM   13  C19 UNL     1      24.582   2.884  50.771  1.00  0.00     0.070 A 
HETATM   14 CL1  UNL     1      23.628   3.136  49.366  1.00  0.00    -0.081 Cl
HETATM   15  C20 UNL     1      27.371   1.518  52.696  1.00  0.00     0.134 C 
ENDROOT
BRANCH   5  16
HETATM   16  C5  UNL     1      21.875  -0.349  54.014  1.00  0.00     0.087 C 
HETATM   17  S1  UNL     1      22.341  -1.603  54.985  1.00  0.00    -0.065 SA
BRANCH  16  18
HETATM   18  N2  UNL     1      20.581   0.138  53.915  1.00  0.00    -0.350 N 
HETATM   19  H7  UNL     1      20.352   0.785  54.686  1.00  0.00     0.166 HD
BRANCH  18  20
HETATM   20  C6  UNL     1      19.554  -0.075  52.988  1.00  0.00     0.032 A 
HETATM   21  C7  UNL     1      18.498  -0.937  53.236  1.00  0.00     0.029 A 
HETATM   22  C8  UNL     1      17.480  -1.128  52.336  1.00  0.00     0.002 A 
HETATM   23  C9  UNL     1      17.503  -0.441  51.149  1.00  0.00     0.000 A 
HETATM   24  C10 UNL     1      18.550   0.404  50.921  1.00  0.00     0.002 A 
HETATM   25  C11 UNL     1      19.594   0.634  51.780  1.00  0.00     0.029 A 
ENDBRANCH  18  20
ENDBRANCH  16  18
ENDBRANCH   5  16
BRANCH  12  26
HETATM   26  O1  UNL     1      26.913   2.461  50.155  1.00  0.00    -0.362 OA
HETATM   27  H17 UNL     1      27.531   1.644  50.132  1.00  0.00     0.217 HD
ENDBRANCH  12  26
TORSDOF 4
ENDMDL
MODEL 4
REMARK VINA RESULT:      -8.2      3.493      7.062
REMARK  4 active torsions:
REMARK  status: ('A' for Active; 'I' for Inactive)
REMARK    1  A    between atoms: C4_5  and  C5_6 
REMARK    2  A    between atoms: C5_6  and  N2_8 
REMARK    3  A    between atoms: N2_8  and  C6_9 
REMARK    4  A    between atoms: C18_21  and  O1_22 
ROOT
HETATM    1  C1  UNL     1      20.916   3.896  52.099  1.00  0.00     0.143 C 
HETATM    2  N1  UNL     1      22.043   4.100  51.354  1.00  0.00    -0.415 N 
HETATM    3  C2  UNL     1      23.288   4.241  51.902  1.00  0.00     0.122 C 
HETATM    4  C3  UNL     1      24.084   3.172  52.493  1.00  0.00     0.025 C 
HETATM    5  C4  UNL     1      25.328   2.627  52.033  1.00  0.00     0.029 C 
HETATM    6  C12 UNL     1      25.917   2.988  50.638  1.00  0.00     0.030 C 
HETATM    7  C13 UNL     1      26.541   3.207  49.487  1.00  0.00     0.006 C 
HETATM    8  C14 UNL     1      25.315   4.019  49.260  1.00  0.00    -0.028 A 
HETATM    9  C15 UNL     1      24.176   3.196  49.264  1.00  0.00     0.043 A 
HETATM   10  C16 UNL     1      22.839   3.074  49.267  1.00  0.00     0.019 A 
HETATM   11  C17 UNL     1      23.133   4.413  49.268  1.00  0.00     0.038 A 
HETATM   12  C18 UNL     1      23.896   5.544  49.258  1.00  0.00     0.077 A 
HETATM   13  C19 UNL     1      25.296   5.388  49.247  1.00  0.00     0.070 A 
HETATM   14 CL1  UNL     1      26.707   6.367  49.228  1.00  0.00    -0.081 Cl
HETATM   15  C20 UNL     1      21.811   4.592  50.002  1.00  0.00     0.134 C 
ENDROOT
BRANCH   5  16
HETATM   16  C5  UNL     1      26.063   1.499  52.793  1.00  0.00     0.087 C 
HETATM   17  S1  UNL     1      27.502   2.037  53.402  1.00  0.00    -0.065 SA
BRANCH  16  18
HETATM   18  N2  UNL     1      25.565   0.216  52.954  1.00  0.00    -0.350 N 
HETATM   19  H7  UNL     1      26.154  -0.490  52.484  1.00  0.00     0.166 HD
BRANCH  18  20
HETATM   20  C6  UNL     1      24.442  -0.291  53.621  1.00  0.00     0.032 A 
HETATM   21  C7  UNL     1      23.175  -0.271  53.061  1.00  0.00     0.029 A 
HETATM   22  C8  UNL     1      22.080  -0.789  53.705  1.00  0.00     0.002 A 
HETATM   23  C9  UNL     1      22.241  -1.349  54.947  1.00  0.00     0.000 A 
HETATM   24  C10 UNL     1      23.496  -1.360  55.484  1.00  0.00     0.002 A 
HETATM   25  C11 UNL     1      24.625  -0.858  54.889  1.00  0.00     0.029 A 
ENDBRANCH  18  20
ENDBRANCH  16  18
ENDBRANCH   5  16
BRANCH  12  26
HETATM   26  O1  UNL     1      23.288   6.788  49.258  1.00  0.00    -0.362 OA
HETATM   27  H17 UNL     1      23.673   7.584  48.740  1.00  0.00     0.217 HD
ENDBRANCH  12  26
TORSDOF 4
ENDMDL
MODEL 5
REMARK VINA RESULT:      -8.1      2.525      4.211
REMARK  4 active torsions:
REMARK  status: ('A' for Active; 'I' for Inactive)
REMARK    1  A    between atoms: C4_5  and  C5_6 
REMARK    2  A    between atoms: C5_6  and  N2_8 
REMARK    3  A    between atoms: N2_8  and  C6_9 
REMARK    4  A    between atoms: C18_21  and  O1_22 
ROOT
HETATM    1  C1  UNL     1      18.608   0.093  51.137  1.00  0.00     0.143 C 
HETATM    2  N1  UNL     1      19.860   0.221  51.669  1.00  0.00    -0.415 N 
HETATM    3  C2  UNL     1      21.000   0.231  50.913  1.00  0.00     0.122 C 
HETATM    4  C3  UNL     1      21.442   1.326  50.057  1.00  0.00     0.025 C 
HETATM    5  C4  UNL     1      22.601   2.158  50.201  1.00  0.00     0.029 C 
HETATM    6  C12 UNL     1      23.475   2.133  51.489  1.00  0.00     0.030 C 
HETATM    7  C13 UNL     1      24.312   2.216  52.516  1.00  0.00     0.006 C 
HETATM    8  C14 UNL     1      23.340   1.235  53.070  1.00  0.00    -0.028 A 
HETATM    9  C15 UNL     1      22.068   1.819  53.188  1.00  0.00     0.043 A 
HETATM   10  C16 UNL     1      20.753   1.687  53.427  1.00  0.00     0.019 A 
HETATM   11  C17 UNL     1      21.320   0.443  53.529  1.00  0.00     0.038 A 
HETATM   12  C18 UNL     1      22.296  -0.510  53.526  1.00  0.00     0.077 A 
HETATM   13  C19 UNL     1      23.614  -0.096  53.248  1.00  0.00     0.070 A 
HETATM   14 CL1  UNL     1      25.184  -0.779  53.110  1.00  0.00    -0.081 Cl
HETATM   15  C20 UNL     1      19.964  -0.091  53.089  1.00  0.00     0.134 C 
ENDROOT
BRANCH   5  16
HETATM   16  C5  UNL     1      22.944   3.272  49.186  1.00  0.00     0.087 C 
HETATM   17  S1  UNL     1      22.301   2.937  47.700  1.00  0.00    -0.065 SA
BRANCH  16  18
HETATM   18  N2  UNL     1      23.678   4.406  49.494  1.00  0.00    -0.350 N 
HETATM   19  H7  UNL     1      23.146   5.062  50.089  1.00  0.00     0.166 HD
BRANCH  18  20
HETATM   20  C6  UNL     1      24.973   4.820  49.160  1.00  0.00     0.032 A 
HETATM   21  C7  UNL     1      25.249   6.098  48.700  1.00  0.00     0.029 A 
HETATM   22  C8  UNL     1      26.522   6.509  48.396  1.00  0.00     0.002 A 
HETATM   23  C9  UNL     1      27.562   5.628  48.553  1.00  0.00     0.000 A 
HETATM   24  C10 UNL     1      27.273   4.374  49.006  1.00  0.00     0.002 A 
HETATM   25  C11 UNL     1      26.023   3.907  49.325  1.00  0.00     0.029 A 
ENDBRANCH  18  20
ENDBRANCH  16  18
ENDBRANCH   5  16
BRANCH  12  26
HETATM   26  O1  UNL     1      21.974  -1.830  53.790  1.00  0.00    -0.362 OA
HETATM   27  H17 UNL     1      22.277  -2.305  54.646  1.00  0.00     0.217 HD
ENDBRANCH  12  26
TORSDOF 4
ENDMDL
MODEL 6
REMARK VINA RESULT:      -8.0      3.751      6.500
REMARK  4 active torsions:
REMARK  status: ('A' for Active; 'I' for Inactive)
REMARK    1  A    between atoms: C4_5  and  C5_6 
REMARK    2  A    between atoms: C5_6  and  N2_8 
REMARK    3  A    between atoms: N2_8  and  C6_9 
REMARK    4  A    between atoms: C18_21  and  O1_22 
ROOT
HETATM    1  C1  UNL     1      18.799   0.661  50.617  1.00  0.00     0.143 C 
HETATM    2  N1  UNL     1      19.937   1.365  50.895  1.00  0.00    -0.415 N 
HETATM    3  C2  UNL     1      20.425   1.532  52.162  1.00  0.00     0.122 C 
HETATM    4  C3  UNL     1      21.074   0.503  52.966  1.00  0.00     0.025 C 
HETATM    5  C4  UNL     1      22.435   0.446  53.411  1.00  0.00     0.029 C 
HETATM    6  C12 UNL     1      23.515   1.435  52.882  1.00  0.00     0.030 C 
HETATM    7  C13 UNL     1      24.535   2.208  52.527  1.00  0.00     0.006 C 
HETATM    8  C14 UNL     1      23.479   2.776  51.646  1.00  0.00    -0.028 A 
HETATM    9  C15 UNL     1      23.022   1.804  50.740  1.00  0.00     0.043 A 
HETATM   10  C16 UNL     1      22.139   1.421  49.804  1.00  0.00     0.019 A 
HETATM   11  C17 UNL     1      21.790   2.683  50.212  1.00  0.00     0.038 A 
HETATM   12  C18 UNL     1      21.861   3.857  50.901  1.00  0.00     0.077 A 
HETATM   13  C19 UNL     1      22.907   4.007  51.833  1.00  0.00     0.070 A 
HETATM   14 CL1  UNL     1      23.497   5.181  52.940  1.00  0.00    -0.081 Cl
HETATM   15  C20 UNL     1      20.365   2.287  49.851  1.00  0.00     0.134 C 
ENDROOT
BRANCH   5  16
HETATM   16  C5  UNL     1      22.968  -0.713  54.284  1.00  0.00     0.087 C 
HETATM   17  S1  UNL     1      21.841  -1.916  54.421  1.00  0.00    -0.065 SA
BRANCH  16  18
HETATM   18  N2  UNL     1      24.230  -0.742  54.854  1.00  0.00    -0.350 N 
HETATM   19  H7  UNL     1      24.190  -0.881  55.877  1.00  0.00     0.166 HD
BRANCH  18  20
HETATM   20  C6  UNL     1      25.518  -0.626  54.318  1.00  0.00     0.032 A 
HETATM   21  C7  UNL     1      25.886  -1.238  53.131  1.00  0.00     0.029 A 
HETATM   22  C8  UNL     1      27.142  -1.105  52.595  1.00  0.00     0.002 A 
HETATM   23  C9  UNL     1      28.069  -0.337  53.253  1.00  0.00     0.000 A 
HETATM   24  C10 UNL     1      27.691   0.258  54.421  1.00  0.00     0.002 A 
HETATM   25  C11 UNL     1      26.453   0.161  55.004  1.00  0.00     0.029 A 
ENDBRANCH  18  20
ENDBRANCH  16  18
ENDBRANCH   5  16
BRANCH  12  26
HETATM   26  O1  UNL     1      20.923   4.850  50.673  1.00  0.00    -0.362 OA
HETATM   27  H17 UNL     1      20.393   4.909  49.798  1.00  0.00     0.217 HD
ENDBRANCH  12  26
TORSDOF 4
ENDMDL
MODEL 7
REMARK VINA RESULT:      -8.0      3.541      5.971
REMARK  4 active torsions:
REMARK  status: ('A' for Active; 'I' for Inactive)
REMARK    1  A    between atoms: C4_5  and  C5_6 
REMARK    2  A    between atoms: C5_6  and  N2_8 
REMARK    3  A    between atoms: N2_8  and  C6_9 
REMARK    4  A    between atoms: C18_21  and  O1_22 
ROOT
HETATM    1  C1  UNL     1      21.552   0.263  54.025  1.00  0.00     0.143 C 
HETATM    2  N1  UNL     1      21.484   0.975  52.860  1.00  0.00    -0.415 N 
HETATM    3  C2  UNL     1      22.160   2.147  52.657  1.00  0.00     0.122 C 
HETATM    4  C3  UNL     1      23.597   2.274  52.445  1.00  0.00     0.025 C 
HETATM    5  C4  UNL     1      24.290   2.710  51.268  1.00  0.00     0.029 C 
HETATM    6  C12 UNL     1      23.556   2.916  49.911  1.00  0.00     0.030 C 
HETATM    7  C13 UNL     1      23.066   3.139  48.697  1.00  0.00     0.006 C 
HETATM    8  C14 UNL     1      21.832   2.657  49.375  1.00  0.00    -0.028 A 
HETATM    9  C15 UNL     1      21.996   1.329  49.803  1.00  0.00     0.043 A 
HETATM   10  C16 UNL     1      21.544   0.277  50.504  1.00  0.00     0.019 A 
HETATM   11  C17 UNL     1      20.644   1.299  50.663  1.00  0.00     0.038 A 
HETATM   12  C18 UNL     1      20.089   2.535  50.508  1.00  0.00     0.077 A 
HETATM   13  C19 UNL     1      20.774   3.464  49.700  1.00  0.00     0.070 A 
HETATM   14 CL1  UNL     1      20.595   5.081  49.149  1.00  0.00    -0.081 Cl
HETATM   15  C20 UNL     1      20.335   0.672  52.016  1.00  0.00     0.134 C 
ENDROOT
BRANCH   5  16
HETATM   16  C5  UNL     1      25.832   2.811  51.211  1.00  0.00     0.087 C 
HETATM   17  S1  UNL     1      26.336   3.317  49.721  1.00  0.00    -0.065 SA
BRANCH  16  18
HETATM   18  N2  UNL     1      26.670   2.531  52.278  1.00  0.00    -0.350 N 
HETATM   19  H7  UNL     1      26.793   3.348  52.899  1.00  0.00     0.166 HD
BRANCH  18  20
HETATM   20  C6  UNL     1      27.363   1.377  52.666  1.00  0.00     0.032 A 
HETATM   21  C7  UNL     1      28.577   1.429  53.331  1.00  0.00     0.029 A 
HETATM   22  C8  UNL     1      29.244   0.299  53.730  1.00  0.00     0.002 A 
HETATM   23  C9  UNL     1      28.691  -0.929  53.466  1.00  0.00     0.000 A 
HETATM   24  C10 UNL     1      27.495  -0.962  52.810  1.00  0.00     0.002 A 
HETATM   25  C11 UNL     1      26.784   0.132  52.387  1.00  0.00     0.029 A 
ENDBRANCH  18  20
ENDBRANCH  16  18
ENDBRANCH   5  16
BRANCH  12  26
HETATM   26  O1  UNL     1      18.891   2.839  51.135  1.00  0.00    -0.362 OA
HETATM   27  H17 UNL     1      18.135   3.336  50.655  1.00  0.00     0.217 HD
ENDBRANCH  12  26
TORSDOF 4
ENDMDL
MODEL 8
REMARK VINA RESULT:      -8.0      2.893      5.685
REMARK  4 active torsions:
REMARK  status: ('A' for Active; 'I' for Inactive)
REMARK    1  A    between atoms: C4_5  and  C5_6 
REMARK    2  A    between atoms: C5_6  and  N2_8 
REMARK    3  A    between atoms: N2_8  and  C6_9 
REMARK    4  A    between atoms: C18_21  and  O1_22 
ROOT
HETATM    1  C1  UNL     1      21.045   3.812  48.186  1.00  0.00     0.143 C 
HETATM    2  N1  UNL     1      21.270   3.082  49.319  1.00  0.00    -0.415 N 
HETATM    3  C2  UNL     1      22.347   2.254  49.477  1.00  0.00     0.122 C 
HETATM    4  C3  UNL     1      23.726   2.682  49.690  1.00  0.00     0.025 C 
HETATM    5  C4  UNL     1      24.547   2.499  50.850  1.00  0.00     0.029 C 
HETATM    6  C12 UNL     1      23.965   1.971  52.194  1.00  0.00     0.030 C 
HETATM    7  C13 UNL     1      23.613   1.528  53.395  1.00  0.00     0.006 C 
HETATM    8  C14 UNL     1      22.281   1.524  52.733  1.00  0.00    -0.028 A 
HETATM    9  C15 UNL     1      21.915   2.829  52.361  1.00  0.00     0.043 A 
HETATM   10  C16 UNL     1      21.085   3.653  51.702  1.00  0.00     0.019 A 
HETATM   11  C17 UNL     1      20.646   2.371  51.497  1.00  0.00     0.038 A 
HETATM   12  C18 UNL     1      20.611   1.011  51.598  1.00  0.00     0.077 A 
HETATM   13  C19 UNL     1      21.611   0.386  52.369  1.00  0.00     0.070 A 
HETATM   14 CL1  UNL     1      22.076  -1.196  52.851  1.00  0.00    -0.081 Cl
HETATM   15  C20 UNL     1      20.104   2.885  50.170  1.00  0.00     0.134 C 
ENDROOT
BRANCH   5  16
HETATM   16  C5  UNL     1      26.009   2.998  50.909  1.00  0.00     0.087 C 
HETATM   17  S1  UNL     1      26.493   3.589  49.443  1.00  0.00    -0.065 SA
BRANCH  16  18
HETATM   18  N2  UNL     1      26.796   2.969  52.050  1.00  0.00    -0.350 N 
HETATM   19  H7  UNL     1      26.859   3.896  52.500  1.00  0.00     0.166 HD
BRANCH  18  20
HETATM   20  C6  UNL     1      27.500   1.943  52.692  1.00  0.00     0.032 A 
HETATM   21  C7  UNL     1      27.204   0.604  52.496  1.00  0.00     0.029 A 
HETATM   22  C8  UNL     1      27.910  -0.401  53.108  1.00  0.00     0.002 A 
HETATM   23  C9  UNL     1      28.948  -0.072  53.943  1.00  0.00     0.000 A 
HETATM   24  C10 UNL     1      29.226   1.251  54.125  1.00  0.00     0.002 A 
HETATM   25  C11 UNL     1      28.556   2.296  53.542  1.00  0.00     0.029 A 
ENDBRANCH  18  20
ENDBRANCH  16  18
ENDBRANCH   5  16
BRANCH  12  26
HETATM   26  O1  UNL     1      19.616   0.295  50.953  1.00  0.00    -0.362 OA
HETATM   27  H17 UNL     1      19.445   0.385  49.947  1.00  0.00     0.217 HD
ENDBRANCH  12  26
TORSDOF 4
ENDMDL
MODEL 9
REMARK VINA RESULT:      -7.6      3.126      6.258
REMARK  4 active torsions:
REMARK  status: ('A' for Active; 'I' for Inactive)
REMARK    1  A    between atoms: C4_5  and  C5_6 
REMARK    2  A    between atoms: C5_6  and  N2_8 
REMARK    3  A    between atoms: N2_8  and  C6_9 
REMARK    4  A    between atoms: C18_21  and  O1_22 
ROOT
HETATM    1  C1  UNL     1      26.818   4.794  49.242  1.00  0.00     0.143 C 
HETATM    2  N1  UNL     1      25.528   4.507  49.589  1.00  0.00    -0.415 N 
HETATM    3  C2  UNL     1      25.071   3.234  49.789  1.00  0.00     0.122 C 
HETATM    4  C3  UNL     1      25.383   2.389  50.937  1.00  0.00     0.025 C 
HETATM    5  C4  UNL     1      24.499   1.909  51.958  1.00  0.00     0.029 C 
HETATM    6  C12 UNL     1      23.041   2.438  52.097  1.00  0.00     0.030 C 
HETATM    7  C13 UNL     1      21.782   2.787  52.332  1.00  0.00     0.006 C 
HETATM    8  C14 UNL     1      22.085   3.707  51.203  1.00  0.00    -0.028 A 
HETATM    9  C15 UNL     1      23.111   4.599  51.559  1.00  0.00     0.043 A 
HETATM   10  C16 UNL     1      23.994   5.546  51.204  1.00  0.00     0.019 A 
HETATM   11  C17 UNL     1      23.303   5.179  50.078  1.00  0.00     0.038 A 
HETATM   12  C18 UNL     1      22.392   4.518  49.309  1.00  0.00     0.077 A 
HETATM   13  C19 UNL     1      21.569   3.566  49.942  1.00  0.00     0.070 A 
HETATM   14 CL1  UNL     1      20.304   2.475  49.539  1.00  0.00    -0.081 Cl
HETATM   15  C20 UNL     1      24.563   5.564  49.313  1.00  0.00     0.134 C 
ENDROOT
BRANCH   5  16
HETATM   16  C5  UNL     1      24.986   0.995  53.105  1.00  0.00     0.087 C 
HETATM   17  S1  UNL     1      23.860  -0.163  53.458  1.00  0.00    -0.065 SA
BRANCH  16  18
HETATM   18  N2  UNL     1      26.213   1.124  53.735  1.00  0.00    -0.350 N 
HETATM   19  H7  UNL     1      26.229   1.920  54.393  1.00  0.00     0.166 HD
BRANCH  18  20
HETATM   20  C6  UNL     1      27.405   0.393  53.653  1.00  0.00     0.032 A 
HETATM   21  C7  UNL     1      27.445  -0.910  53.185  1.00  0.00     0.029 A 
HETATM   22  C8  UNL     1      28.617  -1.617  53.083  1.00  0.00     0.002 A 
HETATM   23  C9  UNL     1      29.792  -1.016  53.454  1.00  0.00     0.000 A 
HETATM   24  C10 UNL     1      29.735   0.268  53.913  1.00  0.00     0.002 A 
HETATM   25  C11 UNL     1      28.596   1.023  54.037  1.00  0.00     0.029 A 
ENDBRANCH  18  20
ENDBRANCH  16  18
ENDBRANCH   5  16
BRANCH  12  26
HETATM   26  O1  UNL     1      22.301   4.794  47.954  1.00  0.00    -0.362 OA
HETATM   27  H17 UNL     1      22.326   5.751  47.590  1.00  0.00     0.217 HD
ENDBRANCH  12  26
TORSDOF 4
ENDMDL
