MODEL 1
REMARK VINA RESULT:      -8.4      0.000      0.000
REMARK  3 active torsions:
REMARK  status: ('A' for Active; 'I' for Inactive)
REMARK    1  A    between atoms: O1_2  and  C2_3 
REMARK    2  A    between atoms: C5_6  and  C6_7 
REMARK    3  A    between atoms: C8_12  and  O2_13 
ROOT
HETATM    1  C6  UNL     1      23.958   0.671  52.558  1.00  0.00     0.090 C 
HETATM    2  N1  UNL     1      22.831   0.039  52.781  1.00  0.00    -0.170 NA
HETATM    3  N2  UNL     1      21.762   0.560  52.143  1.00  0.00    -0.249 N 
HETATM    4  C7  UNL     1      20.415   0.403  52.668  1.00  0.00     0.232 C 
HETATM    5  N3  UNL     1      19.868  -0.764  52.646  1.00  0.00    -0.218 NA
HETATM    6  C8  UNL     1      18.547  -0.879  53.156  1.00  0.00     0.169 C 
HETATM    7  C9  UNL     1      17.672  -0.292  52.309  1.00  0.00     0.209 C 
HETATM    8  S1  UNL     1      17.226   0.632  50.768  1.00  0.00    -0.176 SA
HETATM    9  C10 UNL     1      18.484   1.932  50.680  1.00  0.00     0.021 A 
HETATM   10  C11 UNL     1      19.714   1.324  50.629  1.00  0.00     0.029 A 
HETATM   11  C12 UNL     1      20.820   2.188  50.774  1.00  0.00    -0.028 A 
HETATM   12  C13 UNL     1      20.621   3.515  50.934  1.00  0.00     0.012 A 
HETATM   13  C14 UNL     1      19.325   4.041  50.962  1.00  0.00     0.039 A 
HETATM   14  C15 UNL     1      18.183   3.250  50.834  1.00  0.00     0.083 A 
HETATM   15  O3  UNL     1      17.018   3.683  50.857  1.00  0.00    -0.355 OA
HETATM   16  C16 UNL     1      15.795   4.152  50.883  1.00  0.00     0.210 C 
HETATM   17  C17 UNL     1      21.996   1.304  50.846  1.00  0.00     0.175 C 
HETATM   18  P1  UNL     1      23.571   2.085  51.412  1.00  0.00    -0.041 P 
HETATM   19  H16 UNL     1      23.338   3.203  52.267  1.00  0.00     0.066 HD
ENDROOT
BRANCH   6  20
HETATM   20  O2  UNL     1      17.638  -1.293  54.109  1.00  0.00    -0.344 OA
HETATM   21  H7  UNL     1      17.983  -1.616  55.013  1.00  0.00     0.219 HD
ENDBRANCH   6  20
BRANCH   1  22
HETATM   22  C5  UNL     1      25.266   0.341  53.105  1.00  0.00    -0.005 A 
HETATM   23  C4  UNL     1      25.502   0.559  54.447  1.00  0.00     0.016 A 
HETATM   24  C3  UNL     1      26.756   0.256  55.001  1.00  0.00     0.037 A 
HETATM   25  C2  UNL     1      27.725  -0.261  54.161  1.00  0.00     0.068 A 
HETATM   26  C19 UNL     1      27.479  -0.476  52.824  1.00  0.00     0.037 A 
HETATM   27  C18 UNL     1      26.240  -0.175  52.279  1.00  0.00     0.016 A 
BRANCH  25  28
HETATM   28  O1  UNL     1      29.010  -0.620  54.511  1.00  0.00    -0.356 OA
HETATM   29  C1  UNL     1      30.046  -0.969  53.645  1.00  0.00     0.210 C 
ENDBRANCH  25  28
ENDBRANCH   1  22
TORSDOF 3
ENDMDL
MODEL 2
REMARK VINA RESULT:      -8.3      1.949      3.511
REMARK  3 active torsions:
REMARK  status: ('A' for Active; 'I' for Inactive)
REMARK    1  A    between atoms: O1_2  and  C2_3 
REMARK    2  A    between atoms: C5_6  and  C6_7 
REMARK    3  A    between atoms: C8_12  and  O2_13 
ROOT
HETATM    1  C6  UNL     1      23.920  -0.189  53.416  1.00  0.00     0.090 C 
HETATM    2  N1  UNL     1      23.314   0.434  52.433  1.00  0.00    -0.170 NA
HETATM    3  N2  UNL     1      21.966   0.406  52.500  1.00  0.00    -0.249 N 
HETATM    4  C7  UNL     1      21.146   0.505  51.303  1.00  0.00     0.232 C 
HETATM    5  N3  UNL     1      21.097   1.627  50.671  1.00  0.00    -0.218 NA
HETATM    6  C8  UNL     1      20.277   1.692  49.512  1.00  0.00     0.169 C 
HETATM    7  C9  UNL     1      18.973   1.670  49.869  1.00  0.00     0.209 C 
HETATM    8  S1  UNL     1      17.596   1.594  51.103  1.00  0.00    -0.176 SA
HETATM    9  C10 UNL     1      18.133   0.300  52.252  1.00  0.00     0.021 A 
HETATM   10  C11 UNL     1      19.338   0.687  52.785  1.00  0.00     0.029 A 
HETATM   11  C12 UNL     1      20.008  -0.301  53.538  1.00  0.00    -0.028 A 
HETATM   12  C13 UNL     1      19.447  -1.519  53.702  1.00  0.00     0.012 A 
HETATM   13  C14 UNL     1      18.207  -1.812  53.125  1.00  0.00     0.039 A 
HETATM   14  C15 UNL     1      17.489  -0.893  52.361  1.00  0.00     0.083 A 
HETATM   15  O3  UNL     1      16.386  -1.121  51.833  1.00  0.00    -0.355 OA
HETATM   16  C16 UNL     1      15.225  -1.373  51.281  1.00  0.00     0.210 C 
HETATM   17  C17 UNL     1      21.320   0.284  53.863  1.00  0.00     0.175 C 
HETATM   18  P1  UNL     1      22.593  -0.882  54.521  1.00  0.00    -0.041 P 
HETATM   19  H16 UNL     1      22.386  -2.216  54.060  1.00  0.00     0.066 HD
ENDROOT
BRANCH   6  20
HETATM   20  O2  UNL     1      20.098   1.769  48.147  1.00  0.00    -0.344 OA
HETATM   21  H7  UNL     1      19.229   1.417  47.741  1.00  0.00     0.219 HD
ENDBRANCH   6  20
BRANCH   1  22
HETATM   22  C5  UNL     1      25.357  -0.324  53.608  1.00  0.00    -0.005 A 
HETATM   23  C4  UNL     1      26.073  -1.123  52.742  1.00  0.00     0.016 A 
HETATM   24  C3  UNL     1      27.459  -1.276  52.908  1.00  0.00     0.037 A 
HETATM   25  C2  UNL     1      28.063  -0.604  53.954  1.00  0.00     0.068 A 
HETATM   26  C19 UNL     1      27.339   0.192  54.812  1.00  0.00     0.037 A 
HETATM   27  C18 UNL     1      25.970   0.341  54.647  1.00  0.00     0.016 A 
BRANCH  25  28
HETATM   28  O1  UNL     1      29.403  -0.626  54.281  1.00  0.00    -0.356 OA
HETATM   29  C1  UNL     1      30.468  -0.241  53.468  1.00  0.00     0.210 C 
ENDBRANCH  25  28
ENDBRANCH   1  22
TORSDOF 3
ENDMDL
MODEL 3
REMARK VINA RESULT:      -8.0      1.266      1.444
REMARK  3 active torsions:
REMARK  status: ('A' for Active; 'I' for Inactive)
REMARK    1  A    between atoms: O1_2  and  C2_3 
REMARK    2  A    between atoms: C5_6  and  C6_7 
REMARK    3  A    between atoms: C8_12  and  O2_13 
ROOT
HETATM    1  C6  UNL     1      22.775   0.673  52.094  1.00  0.00     0.090 C 
HETATM    2  N1  UNL     1      21.604   0.121  52.313  1.00  0.00    -0.170 NA
HETATM    3  N2  UNL     1      20.597   0.639  51.578  1.00  0.00    -0.249 N 
HETATM    4  C7  UNL     1      19.221   0.598  52.045  1.00  0.00     0.232 C 
HETATM    5  N3  UNL     1      18.611  -0.536  52.094  1.00  0.00    -0.218 NA
HETATM    6  C8  UNL     1      17.263  -0.536  52.544  1.00  0.00     0.169 C 
HETATM    7  C9  UNL     1      16.463   0.018  51.606  1.00  0.00     0.209 C 
HETATM    8  S1  UNL     1      16.142   0.824  49.971  1.00  0.00    -0.176 SA
HETATM    9  C10 UNL     1      17.474   2.045  49.836  1.00  0.00     0.021 A 
HETATM   10  C11 UNL     1      18.669   1.371  49.901  1.00  0.00     0.029 A 
HETATM   11  C12 UNL     1      19.813   2.187  50.029  1.00  0.00    -0.028 A 
HETATM   12  C13 UNL     1      19.682   3.531  50.064  1.00  0.00     0.012 A 
HETATM   13  C14 UNL     1      18.417   4.124  49.981  1.00  0.00     0.039 A 
HETATM   14  C15 UNL     1      17.240   3.385  49.862  1.00  0.00     0.083 A 
HETATM   15  O3  UNL     1      16.101   3.878  49.788  1.00  0.00    -0.355 OA
HETATM   16  C16 UNL     1      14.906   4.410  49.711  1.00  0.00     0.210 C 
HETATM   17  C17 UNL     1      20.933   1.253  50.236  1.00  0.00     0.175 C 
HETATM   18  P1  UNL     1      22.521   1.998  50.814  1.00  0.00    -0.041 P 
HETATM   19  H16 UNL     1      22.312   3.198  51.557  1.00  0.00     0.066 HD
ENDROOT
BRANCH   6  20
HETATM   20  O2  UNL     1      16.289  -0.818  53.480  1.00  0.00    -0.344 OA
HETATM   21  H7  UNL     1      16.571  -1.030  54.438  1.00  0.00     0.219 HD
ENDBRANCH   6  20
BRANCH   1  22
HETATM   22  C5  UNL     1      24.035   0.325  52.734  1.00  0.00    -0.005 A 
HETATM   23  C4  UNL     1      24.010  -0.412  53.900  1.00  0.00     0.016 A 
HETATM   24  C3  UNL     1      25.210  -0.757  54.542  1.00  0.00     0.037 A 
HETATM   25  C2  UNL     1      26.395  -0.335  53.968  1.00  0.00     0.068 A 
HETATM   26  C19 UNL     1      26.409   0.400  52.803  1.00  0.00     0.037 A 
HETATM   27  C18 UNL     1      25.223   0.739  52.171  1.00  0.00     0.016 A 
BRANCH  25  28
HETATM   28  O1  UNL     1      27.668  -0.570  54.442  1.00  0.00    -0.356 OA
HETATM   29  C1  UNL     1      28.599   0.387  54.848  1.00  0.00     0.210 C 
ENDBRANCH  25  28
ENDBRANCH   1  22
TORSDOF 3
ENDMDL
MODEL 4
REMARK VINA RESULT:      -7.9      2.973      3.881
REMARK  3 active torsions:
REMARK  status: ('A' for Active; 'I' for Inactive)
REMARK    1  A    between atoms: O1_2  and  C2_3 
REMARK    2  A    between atoms: C5_6  and  C6_7 
REMARK    3  A    between atoms: C8_12  and  O2_13 
ROOT
HETATM    1  C6  UNL     1      24.495   2.285  51.502  1.00  0.00     0.090 C 
HETATM    2  N1  UNL     1      23.183   2.269  51.485  1.00  0.00    -0.170 NA
HETATM    3  N2  UNL     1      22.619   3.336  50.881  1.00  0.00    -0.249 N 
HETATM    4  C7  UNL     1      21.286   3.793  51.238  1.00  0.00     0.232 C 
HETATM    5  N3  UNL     1      20.270   3.067  50.919  1.00  0.00    -0.218 NA
HETATM    6  C8  UNL     1      18.982   3.549  51.274  1.00  0.00     0.169 C 
HETATM    7  C9  UNL     1      18.655   4.607  50.497  1.00  0.00     0.209 C 
HETATM    8  S1  UNL     1      18.983   5.839  49.156  1.00  0.00    -0.176 SA
HETATM    9  C10 UNL     1      20.696   6.344  49.460  1.00  0.00     0.021 A 
HETATM   10  C11 UNL     1      21.483   5.221  49.389  1.00  0.00     0.029 A 
HETATM   11  C12 UNL     1      22.818   5.394  49.814  1.00  0.00    -0.028 A 
HETATM   12  C13 UNL     1      23.239   6.606  50.235  1.00  0.00     0.012 A 
HETATM   13  C14 UNL     1      22.360   7.694  50.260  1.00  0.00     0.039 A 
HETATM   14  C15 UNL     1      21.025   7.600  49.865  1.00  0.00     0.083 A 
HETATM   15  O3  UNL     1      20.217   8.545  49.877  1.00  0.00    -0.355 OA
HETATM   16  C16 UNL     1      19.375   9.548  49.894  1.00  0.00     0.210 C 
HETATM   17  C17 UNL     1      23.406   4.044  49.799  1.00  0.00     0.175 C 
HETATM   18  P1  UNL     1      25.031   3.852  50.656  1.00  0.00    -0.041 P 
HETATM   19  H16 UNL     1      25.198   4.803  51.706  1.00  0.00     0.066 HD
ENDROOT
BRANCH   6  20
HETATM   20  O2  UNL     1      17.829   3.508  52.031  1.00  0.00    -0.344 OA
HETATM   21  H7  UNL     1      17.709   4.185  52.785  1.00  0.00     0.219 HD
ENDBRANCH   6  20
BRANCH   1  22
HETATM   22  C5  UNL     1      25.371   1.276  52.081  1.00  0.00    -0.005 A 
HETATM   23  C4  UNL     1      24.810   0.222  52.771  1.00  0.00     0.016 A 
HETATM   24  C3  UNL     1      25.632  -0.762  53.344  1.00  0.00     0.037 A 
HETATM   25  C2  UNL     1      26.999  -0.633  53.189  1.00  0.00     0.068 A 
HETATM   26  C19 UNL     1      27.549   0.423  52.497  1.00  0.00     0.037 A 
HETATM   27  C18 UNL     1      26.736   1.394  51.933  1.00  0.00     0.016 A 
BRANCH  25  28
HETATM   28  O1  UNL     1      27.966  -1.488  53.674  1.00  0.00    -0.356 OA
HETATM   29  C1  UNL     1      29.337  -1.429  53.424  1.00  0.00     0.210 C 
ENDBRANCH  25  28
ENDBRANCH   1  22
TORSDOF 3
ENDMDL
MODEL 5
REMARK VINA RESULT:      -7.9      9.834     12.964
REMARK  3 active torsions:
REMARK  status: ('A' for Active; 'I' for Inactive)
REMARK    1  A    between atoms: O1_2  and  C2_3 
REMARK    2  A    between atoms: C5_6  and  C6_7 
REMARK    3  A    between atoms: C8_12  and  O2_13 
ROOT
HETATM    1  C6  UNL     1      27.883   5.729  48.582  1.00  0.00     0.090 C 
HETATM    2  N1  UNL     1      29.061   5.150  48.586  1.00  0.00    -0.170 NA
HETATM    3  N2  UNL     1      30.087   5.970  48.277  1.00  0.00    -0.249 N 
HETATM    4  C7  UNL     1      31.312   5.459  47.683  1.00  0.00     0.232 C 
HETATM    5  N3  UNL     1      32.099   4.733  48.400  1.00  0.00    -0.218 NA
HETATM    6  C8  UNL     1      33.293   4.261  47.790  1.00  0.00     0.169 C 
HETATM    7  C9  UNL     1      34.158   5.285  47.616  1.00  0.00     0.209 C 
HETATM    8  S1  UNL     1      34.668   7.060  47.740  1.00  0.00    -0.176 SA
HETATM    9  C10 UNL     1      33.192   7.960  47.198  1.00  0.00     0.021 A 
HETATM   10  C11 UNL     1      32.161   7.616  48.037  1.00  0.00     0.029 A 
HETATM   11  C12 UNL     1      30.883   8.058  47.631  1.00  0.00    -0.028 A 
HETATM   12  C13 UNL     1      30.748   8.778  46.496  1.00  0.00     0.012 A 
HETATM   13  C14 UNL     1      31.866   9.085  45.713  1.00  0.00     0.039 A 
HETATM   14  C15 UNL     1      33.158   8.677  46.043  1.00  0.00     0.083 A 
HETATM   15  O3  UNL     1      34.173   8.930  45.369  1.00  0.00    -0.355 OA
HETATM   16  C16 UNL     1      35.234   9.203  44.651  1.00  0.00     0.210 C 
HETATM   17  C17 UNL     1      29.941   7.445  48.583  1.00  0.00     0.175 C 
HETATM   18  P1  UNL     1      28.154   7.510  48.121  1.00  0.00    -0.041 P 
HETATM   19  H16 UNL     1      27.968   7.560  46.707  1.00  0.00     0.066 HD
ENDROOT
BRANCH   6  20
HETATM   20  O2  UNL     1      34.075   3.259  47.253  1.00  0.00    -0.344 OA
HETATM   21  H7  UNL     1      34.703   3.483  46.480  1.00  0.00     0.219 HD
ENDBRANCH   6  20
BRANCH   1  22
HETATM   22  C5  UNL     1      26.602   5.101  48.874  1.00  0.00    -0.005 A 
HETATM   23  C4  UNL     1      25.445   5.825  48.678  1.00  0.00     0.016 A 
HETATM   24  C3  UNL     1      24.196   5.247  48.958  1.00  0.00     0.037 A 
HETATM   25  C2  UNL     1      24.176   3.947  49.427  1.00  0.00     0.068 A 
HETATM   26  C19 UNL     1      25.337   3.233  49.618  1.00  0.00     0.037 A 
HETATM   27  C18 UNL     1      26.569   3.806  49.342  1.00  0.00     0.016 A 
BRANCH  25  28
HETATM   28  O1  UNL     1      23.058   3.209  49.756  1.00  0.00    -0.356 OA
HETATM   29  C1  UNL     1      23.015   2.075  50.566  1.00  0.00     0.210 C 
ENDBRANCH  25  28
ENDBRANCH   1  22
TORSDOF 3
ENDMDL
MODEL 6
REMARK VINA RESULT:      -7.9      4.456      5.624
REMARK  3 active torsions:
REMARK  status: ('A' for Active; 'I' for Inactive)
REMARK    1  A    between atoms: O1_2  and  C2_3 
REMARK    2  A    between atoms: C5_6  and  C6_7 
REMARK    3  A    between atoms: C8_12  and  O2_13 
ROOT
HETATM    1  C6  UNL     1      24.489   4.287  49.999  1.00  0.00     0.090 C 
HETATM    2  N1  UNL     1      23.294   4.204  49.465  1.00  0.00    -0.170 NA
HETATM    3  N2  UNL     1      22.372   3.607  50.250  1.00  0.00    -0.249 N 
HETATM    4  C7  UNL     1      21.222   2.922  49.682  1.00  0.00     0.232 C 
HETATM    5  N3  UNL     1      20.298   3.618  49.114  1.00  0.00    -0.218 NA
HETATM    6  C8  UNL     1      19.183   2.917  48.580  1.00  0.00     0.169 C 
HETATM    7  C9  UNL     1      18.412   2.443  49.585  1.00  0.00     0.209 C 
HETATM    8  S1  UNL     1      17.990   2.189  51.369  1.00  0.00    -0.176 SA
HETATM    9  C10 UNL     1      19.578   1.742  52.117  1.00  0.00     0.021 A 
HETATM   10  C11 UNL     1      20.453   2.777  51.892  1.00  0.00     0.029 A 
HETATM   11  C12 UNL     1      21.800   2.507  52.218  1.00  0.00    -0.028 A 
HETATM   12  C13 UNL     1      22.142   1.303  52.727  1.00  0.00     0.012 A 
HETATM   13  C14 UNL     1      21.171   0.316  52.928  1.00  0.00     0.039 A 
HETATM   14  C15 UNL     1      19.824   0.503  52.622  1.00  0.00     0.083 A 
HETATM   15  O3  UNL     1      18.936  -0.353  52.786  1.00  0.00    -0.355 OA
HETATM   16  C16 UNL     1      18.010  -1.262  52.963  1.00  0.00     0.210 C 
HETATM   17  C17 UNL     1      22.554   3.683  51.751  1.00  0.00     0.175 C 
HETATM   18  P1  UNL     1      24.391   3.500  51.681  1.00  0.00    -0.041 P 
HETATM   19  H16 UNL     1      24.787   2.144  51.480  1.00  0.00     0.066 HD
ENDROOT
BRANCH   6  20
HETATM   20  O2  UNL     1      18.434   2.439  47.525  1.00  0.00    -0.344 OA
HETATM   21  H7  UNL     1      17.770   3.065  47.067  1.00  0.00     0.219 HD
ENDBRANCH   6  20
BRANCH   1  22
HETATM   22  C5  UNL     1      25.675   4.875  49.393  1.00  0.00    -0.005 A 
HETATM   23  C4  UNL     1      25.630   6.190  48.978  1.00  0.00     0.016 A 
HETATM   24  C3  UNL     1      26.758   6.781  48.385  1.00  0.00     0.037 A 
HETATM   25  C2  UNL     1      27.892   6.005  48.238  1.00  0.00     0.068 A 
HETATM   26  C19 UNL     1      27.927   4.694  48.656  1.00  0.00     0.037 A 
HETATM   27  C18 UNL     1      26.813   4.113  49.241  1.00  0.00     0.016 A 
BRANCH  25  28
HETATM   28  O1  UNL     1      29.092   6.400  47.683  1.00  0.00    -0.356 OA
HETATM   29  C1  UNL     1      30.367   5.984  48.067  1.00  0.00     0.210 C 
ENDBRANCH  25  28
ENDBRANCH   1  22
TORSDOF 3
ENDMDL
MODEL 7
REMARK VINA RESULT:      -7.6      2.066      3.449
REMARK  3 active torsions:
REMARK  status: ('A' for Active; 'I' for Inactive)
REMARK    1  A    between atoms: O1_2  and  C2_3 
REMARK    2  A    between atoms: C5_6  and  C6_7 
REMARK    3  A    between atoms: C8_12  and  O2_13 
ROOT
HETATM    1  C6  UNL     1      23.612   1.207  52.574  1.00  0.00     0.090 C 
HETATM    2  N1  UNL     1      23.115   2.287  52.019  1.00  0.00    -0.170 NA
HETATM    3  N2  UNL     1      21.771   2.281  51.892  1.00  0.00    -0.249 N 
HETATM    4  C7  UNL     1      21.106   3.046  50.850  1.00  0.00     0.232 C 
HETATM    5  N3  UNL     1      21.100   4.333  50.926  1.00  0.00    -0.218 NA
HETATM    6  C8  UNL     1      20.430   5.047  49.897  1.00  0.00     0.169 C 
HETATM    7  C9  UNL     1      19.093   4.889  50.019  1.00  0.00     0.209 C 
HETATM    8  S1  UNL     1      17.574   4.213  50.834  1.00  0.00    -0.176 SA
HETATM    9  C10 UNL     1      18.005   2.483  51.156  1.00  0.00     0.021 A 
HETATM   10  C11 UNL     1      19.120   2.471  51.957  1.00  0.00     0.029 A 
HETATM   11  C12 UNL     1      19.722   1.206  52.131  1.00  0.00    -0.028 A 
HETATM   12  C13 UNL     1      19.185   0.117  51.538  1.00  0.00     0.012 A 
HETATM   13  C14 UNL     1      18.038   0.233  50.746  1.00  0.00     0.039 A 
HETATM   14  C15 UNL     1      17.392   1.449  50.520  1.00  0.00     0.083 A 
HETATM   15  O3  UNL     1      16.373   1.588  49.821  1.00  0.00    -0.355 OA
HETATM   16  C16 UNL     1      15.299   1.722  49.082  1.00  0.00     0.210 C 
HETATM   17  C17 UNL     1      20.963   1.468  52.880  1.00  0.00     0.175 C 
HETATM   18  P1  UNL     1      22.181   0.081  52.953  1.00  0.00    -0.041 P 
HETATM   19  H16 UNL     1      22.078  -0.782  51.821  1.00  0.00     0.066 HD
ENDROOT
BRANCH   6  20
HETATM   20  O2  UNL     1      20.422   5.858  48.781  1.00  0.00    -0.344 OA
HETATM   21  H7  UNL     1      19.529   6.211  48.432  1.00  0.00     0.219 HD
ENDBRANCH   6  20
BRANCH   1  22
HETATM   22  C5  UNL     1      25.017   0.931  52.838  1.00  0.00    -0.005 A 
HETATM   23  C4  UNL     1      25.360  -0.260  53.444  1.00  0.00     0.016 A 
HETATM   24  C3  UNL     1      26.707  -0.550  53.717  1.00  0.00     0.037 A 
HETATM   25  C2  UNL     1      27.655   0.389  53.358  1.00  0.00     0.068 A 
HETATM   26  C19 UNL     1      27.303   1.574  52.753  1.00  0.00     0.037 A 
HETATM   27  C18 UNL     1      25.972   1.859  52.485  1.00  0.00     0.016 A 
BRANCH  25  28
HETATM   28  O1  UNL     1      29.019   0.291  53.540  1.00  0.00    -0.356 OA
HETATM   29  C1  UNL     1      29.792  -0.867  53.462  1.00  0.00     0.210 C 
ENDBRANCH  25  28
ENDBRANCH   1  22
TORSDOF 3
ENDMDL
MODEL 8
REMARK VINA RESULT:      -7.6      4.031      5.245
REMARK  3 active torsions:
REMARK  status: ('A' for Active; 'I' for Inactive)
REMARK    1  A    between atoms: O1_2  and  C2_3 
REMARK    2  A    between atoms: C5_6  and  C6_7 
REMARK    3  A    between atoms: C8_12  and  O2_13 
ROOT
HETATM    1  C6  UNL     1      24.610   2.117  51.920  1.00  0.00     0.090 C 
HETATM    2  N1  UNL     1      24.703   3.423  51.840  1.00  0.00    -0.170 NA
HETATM    3  N2  UNL     1      23.615   4.030  51.322  1.00  0.00    -0.249 N 
HETATM    4  C7  UNL     1      23.715   5.310  50.639  1.00  0.00     0.232 C 
HETATM    5  N3  UNL     1      23.985   6.366  51.327  1.00  0.00    -0.218 NA
HETATM    6  C8  UNL     1      24.064   7.601  50.628  1.00  0.00     0.169 C 
HETATM    7  C9  UNL     1      22.828   7.992  50.242  1.00  0.00     0.209 C 
HETATM    8  S1  UNL     1      20.993   7.789  50.114  1.00  0.00    -0.176 SA
HETATM    9  C10 UNL     1      20.793   6.045  49.665  1.00  0.00     0.021 A 
HETATM   10  C11 UNL     1      21.370   5.289  50.656  1.00  0.00     0.029 A 
HETATM   11  C12 UNL     1      21.498   3.914  50.366  1.00  0.00    -0.028 A 
HETATM   12  C13 UNL     1      21.052   3.430  49.186  1.00  0.00     0.012 A 
HETATM   13  C14 UNL     1      20.468   4.283  48.244  1.00  0.00     0.039 A 
HETATM   14  C15 UNL     1      20.315   5.654  48.453  1.00  0.00     0.083 A 
HETATM   15  O3  UNL     1      19.804   6.440  47.637  1.00  0.00    -0.355 OA
HETATM   16  C16 UNL     1      19.263   7.260  46.770  1.00  0.00     0.210 C 
HETATM   17  C17 UNL     1      22.272   3.352  51.486  1.00  0.00     0.175 C 
HETATM   18  P1  UNL     1      22.942   1.648  51.243  1.00  0.00    -0.041 P 
HETATM   19  H16 UNL     1      23.170   1.354  49.865  1.00  0.00     0.066 HD
ENDROOT
BRANCH   6  20
HETATM   20  O2  UNL     1      24.770   8.666  50.108  1.00  0.00    -0.344 OA
HETATM   21  H7  UNL     1      25.310   8.531  49.253  1.00  0.00     0.219 HD
ENDBRANCH   6  20
BRANCH   1  22
HETATM   22  C5  UNL     1      25.619   1.200  52.432  1.00  0.00    -0.005 A 
HETATM   23  C4  UNL     1      25.234  -0.068  52.816  1.00  0.00     0.016 A 
HETATM   24  C3  UNL     1      26.185  -0.970  53.320  1.00  0.00     0.037 A 
HETATM   25  C2  UNL     1      27.496  -0.544  53.410  1.00  0.00     0.068 A 
HETATM   26  C19 UNL     1      27.870   0.723  53.023  1.00  0.00     0.037 A 
HETATM   27  C18 UNL     1      26.929   1.613  52.527  1.00  0.00     0.016 A 
BRANCH  25  28
HETATM   28  O1  UNL     1      28.569  -1.276  53.875  1.00  0.00    -0.356 OA
HETATM   29  C1  UNL     1      29.919  -1.030  53.627  1.00  0.00     0.210 C 
ENDBRANCH  25  28
ENDBRANCH   1  22
TORSDOF 3
ENDMDL
MODEL 9
REMARK VINA RESULT:      -7.1      5.767      7.578
REMARK  3 active torsions:
REMARK  status: ('A' for Active; 'I' for Inactive)
REMARK    1  A    between atoms: O1_2  and  C2_3 
REMARK    2  A    between atoms: C5_6  and  C6_7 
REMARK    3  A    between atoms: C8_12  and  O2_13 
ROOT
HETATM    1  C6  UNL     1      23.840   3.172  51.136  1.00  0.00     0.090 C 
HETATM    2  N1  UNL     1      22.979   4.113  50.829  1.00  0.00    -0.170 NA
HETATM    3  N2  UNL     1      23.478   5.092  50.045  1.00  0.00    -0.249 N 
HETATM    4  C7  UNL     1      22.924   6.436  50.067  1.00  0.00     0.232 C 
HETATM    5  N3  UNL     1      21.747   6.635  49.580  1.00  0.00    -0.218 NA
HETATM    6  C8  UNL     1      21.243   7.963  49.608  1.00  0.00     0.169 C 
HETATM    7  C9  UNL     1      21.903   8.727  48.709  1.00  0.00     0.209 C 
HETATM    8  S1  UNL     1      23.174   9.009  47.393  1.00  0.00    -0.176 SA
HETATM    9  C10 UNL     1      24.638   8.154  48.034  1.00  0.00     0.021 A 
HETATM   10  C11 UNL     1      24.306   6.834  48.215  1.00  0.00     0.029 A 
HETATM   11  C12 UNL     1      25.262   6.063  48.912  1.00  0.00    -0.028 A 
HETATM   12  C13 UNL     1      26.411   6.636  49.333  1.00  0.00     0.012 A 
HETATM   13  C14 UNL     1      26.660   7.991  49.089  1.00  0.00     0.039 A 
HETATM   14  C15 UNL     1      25.761   8.818  48.417  1.00  0.00     0.083 A 
HETATM   15  O3  UNL     1      25.950  10.026  48.185  1.00  0.00    -0.355 OA
HETATM   16  C16 UNL     1      26.160  11.297  47.947  1.00  0.00     0.210 C 
HETATM   17  C17 UNL     1      24.625   4.752  49.119  1.00  0.00     0.175 C 
HETATM   18  P1  UNL     1      25.453   3.624  50.325  1.00  0.00    -0.041 P 
HETATM   19  H16 UNL     1      26.179   4.343  51.320  1.00  0.00     0.066 HD
ENDROOT
BRANCH   6  20
HETATM   20  O2  UNL     1      20.392   8.935  50.093  1.00  0.00    -0.344 OA
HETATM   21  H7  UNL     1      19.614   9.247  49.509  1.00  0.00     0.219 HD
ENDBRANCH   6  20
BRANCH   1  22
HETATM   22  C5  UNL     1      23.592   1.997  51.960  1.00  0.00    -0.005 A 
HETATM   23  C4  UNL     1      24.668   1.298  52.467  1.00  0.00     0.016 A 
HETATM   24  C3  UNL     1      24.458   0.159  53.260  1.00  0.00     0.037 A 
HETATM   25  C2  UNL     1      23.153  -0.224  53.507  1.00  0.00     0.068 A 
HETATM   26  C19 UNL     1      22.086   0.481  52.998  1.00  0.00     0.037 A 
HETATM   27  C18 UNL     1      22.296   1.605  52.214  1.00  0.00     0.016 A 
BRANCH  25  28
HETATM   28  O1  UNL     1      22.742  -1.307  54.257  1.00  0.00    -0.356 OA
HETATM   29  C1  UNL     1      21.430  -1.646  54.587  1.00  0.00     0.210 C 
ENDBRANCH  25  28
ENDBRANCH   1  22
TORSDOF 3
ENDMDL
