MODEL 1
REMARK VINA RESULT:      -7.8      0.000      0.000
REMARK  7 active torsions:
REMARK  status: ('A' for Active; 'I' for Inactive)
REMARK    1  A    between atoms: C2_2  and  N1_3 
REMARK       I    between atoms: N1_3  and  C3_4 
REMARK    2  A    between atoms: C3_4  and  C4_6 
REMARK    3  A    between atoms: C4_6  and  P1_7 
REMARK    4  A    between atoms: P1_7  and  C5_8 
REMARK    5  A    between atoms: C5_8  and  C6_9 
REMARK    6  A    between atoms: C11_18  and  N4_19 
REMARK    7  A    between atoms: N4_19  and  C12_20 
ROOT
HETATM    1  C1  UNL     1      24.962   2.573  53.388  1.00  0.00     0.072 C 
HETATM    2  C2  UNL     1      24.334   1.531  52.448  1.00  0.00     0.149 C 
HETATM    3  O3  UNL     1      23.349   0.932  53.288  1.00  0.00    -0.356 OA
HETATM    4  C7  UNL     1      22.594  -0.021  52.667  1.00  0.00     0.200 C 
HETATM    5  C8  UNL     1      21.781   0.549  51.539  1.00  0.00     0.027 C 
HETATM    6  C9  UNL     1      22.319   1.626  50.963  1.00  0.00     0.050 C 
HETATM    7  N2  UNL     1      21.547   2.151  49.897  1.00  0.00    -0.246 NA
HETATM    8  C10 UNL     1      22.201   2.894  49.032  1.00  0.00     0.235 C 
HETATM    9  N3  UNL     1      23.578   3.143  49.223  1.00  0.00    -0.228 NA
HETATM   10  C11 UNL     1      24.305   2.740  50.201  1.00  0.00     0.120 C 
HETATM   11  C18 UNL     1      23.612   2.202  51.373  1.00  0.00     0.162 C 
ENDROOT
BRANCH   2  12
HETATM   12  N1  UNL     1      25.227   0.467  52.114  1.00  0.00    -0.328 N 
HETATM   13  C3  UNL     1      25.939  -0.083  53.253  1.00  0.00     0.224 C 
HETATM   14  O1  UNL     1      25.845   0.282  54.477  1.00  0.00    -0.273 OA
HETATM   15  H4  UNL     1      25.461   0.021  51.176  1.00  0.00     0.165 HD
BRANCH  13  16
HETATM   16  C4  UNL     1      26.896  -1.194  53.037  1.00  0.00     0.146 C 
BRANCH  16  17
HETATM   17  P1  UNL     1      28.605  -0.629  53.588  1.00  0.00    -0.049 P 
BRANCH  17  18
HETATM   18  C5  UNL     1      29.050   0.971  53.327  1.00  0.00     0.053 C 
BRANCH  18  19
HETATM   19  C6  UNL     1      29.238   1.768  54.504  1.00  0.00     0.259 C 
HETATM   20  O2  UNL     1      28.432   2.688  54.168  1.00  0.00    -0.302 OA
ENDBRANCH  18  19
ENDBRANCH  17  18
ENDBRANCH  16  17
ENDBRANCH  13  16
ENDBRANCH   2  12
BRANCH  10  21
HETATM   21  N4  UNL     1      25.692   3.012  50.303  1.00  0.00    -0.344 N 
HETATM   22  H13 UNL     1      26.445   2.453  50.693  1.00  0.00     0.167 HD
BRANCH  21  23
HETATM   23  C12 UNL     1      26.158   4.254  49.758  1.00  0.00     0.034 A 
HETATM   24  C13 UNL     1      27.233   4.411  48.920  1.00  0.00     0.029 A 
HETATM   25  C14 UNL     1      27.600   5.663  48.437  1.00  0.00     0.004 A 
HETATM   26  C15 UNL     1      26.898   6.794  48.783  1.00  0.00     0.019 A 
HETATM   27  C16 UNL     1      25.798   6.649  49.636  1.00  0.00     0.013 A 
HETATM   28 BR1  UNL     1      24.889   8.275  50.041  1.00  0.00    -0.051 Br
HETATM   29  C17 UNL     1      25.467   5.396  50.091  1.00  0.00     0.048 A 
ENDBRANCH  21  23
ENDBRANCH  10  21
TORSDOF 7
ENDMDL
MODEL 2
REMARK VINA RESULT:      -7.8      3.087      6.814
REMARK  7 active torsions:
REMARK  status: ('A' for Active; 'I' for Inactive)
REMARK    1  A    between atoms: C2_2  and  N1_3 
REMARK       I    between atoms: N1_3  and  C3_4 
REMARK    2  A    between atoms: C3_4  and  C4_6 
REMARK    3  A    between atoms: C4_6  and  P1_7 
REMARK    4  A    between atoms: P1_7  and  C5_8 
REMARK    5  A    between atoms: C5_8  and  C6_9 
REMARK    6  A    between atoms: C11_18  and  N4_19 
REMARK    7  A    between atoms: N4_19  and  C12_20 
ROOT
HETATM    1  C1  UNL     1      25.289   2.399  54.331  1.00  0.00     0.072 C 
HETATM    2  C2  UNL     1      26.455   2.028  53.400  1.00  0.00     0.149 C 
HETATM    3  O3  UNL     1      27.559   2.662  54.041  1.00  0.00    -0.356 OA
HETATM    4  C7  UNL     1      28.758   2.445  53.427  1.00  0.00     0.200 C 
HETATM    5  C8  UNL     1      29.144   0.992  53.439  1.00  0.00     0.027 C 
HETATM    6  C9  UNL     1      28.109   0.149  53.468  1.00  0.00     0.050 C 
HETATM    7  N2  UNL     1      28.484  -1.217  53.471  1.00  0.00    -0.246 NA
HETATM    8  C10 UNL     1      27.566  -2.062  53.058  1.00  0.00     0.235 C 
HETATM    9  N3  UNL     1      26.294  -1.581  52.676  1.00  0.00    -0.228 NA
HETATM   10  C11 UNL     1      25.889  -0.363  52.711  1.00  0.00     0.120 C 
HETATM   11  C18 UNL     1      26.704   0.592  53.463  1.00  0.00     0.162 C 
ENDROOT
BRANCH   2  12
HETATM   12  N1  UNL     1      26.367   2.652  52.117  1.00  0.00    -0.328 N 
HETATM   13  C3  UNL     1      25.030   3.100  51.771  1.00  0.00     0.224 C 
HETATM   14  O1  UNL     1      23.968   2.991  52.478  1.00  0.00    -0.273 OA
HETATM   15  H4  UNL     1      27.110   2.835  51.378  1.00  0.00     0.165 HD
BRANCH  13  16
HETATM   16  C4  UNL     1      24.808   3.765  50.465  1.00  0.00     0.146 C 
BRANCH  16  17
HETATM   17  P1  UNL     1      26.479   4.063  49.653  1.00  0.00    -0.049 P 
BRANCH  17  18
HETATM   18  C5  UNL     1      26.710   5.478  48.775  1.00  0.00     0.053 C 
BRANCH  18  19
HETATM   19  C6  UNL     1      28.066   5.784  48.427  1.00  0.00     0.259 C 
HETATM   20  O2  UNL     1      28.481   4.586  48.456  1.00  0.00    -0.302 OA
ENDBRANCH  18  19
ENDBRANCH  17  18
ENDBRANCH  16  17
ENDBRANCH  13  16
ENDBRANCH   2  12
BRANCH  10  21
HETATM   21  N4  UNL     1      24.600   0.040  52.281  1.00  0.00    -0.344 N 
HETATM   22  H13 UNL     1      24.314   0.561  51.457  1.00  0.00     0.167 HD
BRANCH  21  23
HETATM   23  C12 UNL     1      23.485  -0.350  53.095  1.00  0.00     0.034 A 
HETATM   24  C13 UNL     1      23.560  -0.901  54.349  1.00  0.00     0.029 A 
HETATM   25  C14 UNL     1      22.414  -1.237  55.063  1.00  0.00     0.004 A 
HETATM   26  C15 UNL     1      21.160  -1.029  54.537  1.00  0.00     0.019 A 
HETATM   27  C16 UNL     1      21.070  -0.465  53.260  1.00  0.00     0.013 A 
HETATM   28 BR1  UNL     1      19.288  -0.207  52.632  1.00  0.00    -0.051 Br
HETATM   29  C17 UNL     1      22.224  -0.147  52.587  1.00  0.00     0.048 A 
ENDBRANCH  21  23
ENDBRANCH  10  21
TORSDOF 7
ENDMDL
MODEL 3
REMARK VINA RESULT:      -7.7      3.313      5.821
REMARK  7 active torsions:
REMARK  status: ('A' for Active; 'I' for Inactive)
REMARK    1  A    between atoms: C2_2  and  N1_3 
REMARK       I    between atoms: N1_3  and  C3_4 
REMARK    2  A    between atoms: C3_4  and  C4_6 
REMARK    3  A    between atoms: C4_6  and  P1_7 
REMARK    4  A    between atoms: P1_7  and  C5_8 
REMARK    5  A    between atoms: C5_8  and  C6_9 
REMARK    6  A    between atoms: C11_18  and  N4_19 
REMARK    7  A    between atoms: N4_19  and  C12_20 
ROOT
HETATM    1  C1  UNL     1      23.757   3.989  52.980  1.00  0.00     0.072 C 
HETATM    2  C2  UNL     1      23.624   3.934  51.449  1.00  0.00     0.149 C 
HETATM    3  O3  UNL     1      22.872   5.114  51.176  1.00  0.00    -0.356 OA
HETATM    4  C7  UNL     1      22.648   5.335  49.847  1.00  0.00     0.200 C 
HETATM    5  C8  UNL     1      23.925   5.562  49.089  1.00  0.00     0.027 C 
HETATM    6  C9  UNL     1      24.993   4.960  49.619  1.00  0.00     0.050 C 
HETATM    7  N2  UNL     1      26.190   5.174  48.893  1.00  0.00    -0.246 NA
HETATM    8  C10 UNL     1      27.141   4.287  49.085  1.00  0.00     0.235 C 
HETATM    9  N3  UNL     1      26.934   3.226  49.994  1.00  0.00    -0.228 NA
HETATM   10  C11 UNL     1      25.892   3.022  50.716  1.00  0.00     0.120 C 
HETATM   11  C18 UNL     1      24.931   4.121  50.829  1.00  0.00     0.162 C 
ENDROOT
BRANCH   2  12
HETATM   12  N1  UNL     1      22.799   2.859  50.997  1.00  0.00    -0.328 N 
HETATM   13  C3  UNL     1      21.484   2.827  51.611  1.00  0.00     0.224 C 
HETATM   14  O1  UNL     1      21.016   3.640  52.485  1.00  0.00    -0.273 OA
HETATM   15  H4  UNL     1      22.989   2.080  50.297  1.00  0.00     0.165 HD
BRANCH  13  16
HETATM   16  C4  UNL     1      20.533   1.759  51.225  1.00  0.00     0.146 C 
BRANCH  16  17
HETATM   17  P1  UNL     1      20.892   0.232  52.264  1.00  0.00    -0.049 P 
BRANCH  17  18
HETATM   18  C5  UNL     1      21.843   0.396  53.640  1.00  0.00     0.053 C 
BRANCH  18  19
HETATM   19  C6  UNL     1      23.072  -0.343  53.643  1.00  0.00     0.259 C 
HETATM   20  O2  UNL     1      23.636   0.339  52.734  1.00  0.00    -0.302 OA
ENDBRANCH  18  19
ENDBRANCH  17  18
ENDBRANCH  16  17
ENDBRANCH  13  16
ENDBRANCH   2  12
BRANCH  10  21
HETATM   21  N4  UNL     1      25.754   1.912  51.586  1.00  0.00    -0.344 N 
HETATM   22  H13 UNL     1      24.962   1.296  51.744  1.00  0.00     0.167 HD
BRANCH  21  23
HETATM   23  C12 UNL     1      26.898   1.546  52.369  1.00  0.00     0.034 A 
HETATM   24  C13 UNL     1      27.664   2.400  53.120  1.00  0.00     0.029 A 
HETATM   25  C14 UNL     1      28.753   1.941  53.856  1.00  0.00     0.004 A 
HETATM   26  C15 UNL     1      29.102   0.610  53.858  1.00  0.00     0.019 A 
HETATM   27  C16 UNL     1      28.327  -0.272  53.097  1.00  0.00     0.013 A 
HETATM   28 BR1  UNL     1      28.888  -2.092  53.180  1.00  0.00    -0.051 Br
HETATM   29  C17 UNL     1      27.260   0.219  52.385  1.00  0.00     0.048 A 
ENDBRANCH  21  23
ENDBRANCH  10  21
TORSDOF 7
ENDMDL
MODEL 4
REMARK VINA RESULT:      -7.6      3.778      6.359
REMARK  7 active torsions:
REMARK  status: ('A' for Active; 'I' for Inactive)
REMARK    1  A    between atoms: C2_2  and  N1_3 
REMARK       I    between atoms: N1_3  and  C3_4 
REMARK    2  A    between atoms: C3_4  and  C4_6 
REMARK    3  A    between atoms: C4_6  and  P1_7 
REMARK    4  A    between atoms: P1_7  and  C5_8 
REMARK    5  A    between atoms: C5_8  and  C6_9 
REMARK    6  A    between atoms: C11_18  and  N4_19 
REMARK    7  A    between atoms: N4_19  and  C12_20 
ROOT
HETATM    1  C1  UNL     1      26.415   2.938  49.708  1.00  0.00     0.072 C 
HETATM    2  C2  UNL     1      25.018   3.366  50.187  1.00  0.00     0.149 C 
HETATM    3  O3  UNL     1      24.273   3.354  48.971  1.00  0.00    -0.356 OA
HETATM    4  C7  UNL     1      22.952   3.659  49.126  1.00  0.00     0.200 C 
HETATM    5  C8  UNL     1      22.234   2.649  49.977  1.00  0.00     0.027 C 
HETATM    6  C9  UNL     1      23.011   2.033  50.871  1.00  0.00     0.050 C 
HETATM    7  N2  UNL     1      22.323   1.089  51.672  1.00  0.00    -0.246 NA
HETATM    8  C10 UNL     1      22.892   0.791  52.819  1.00  0.00     0.235 C 
HETATM    9  N3  UNL     1      24.126   1.386  53.163  1.00  0.00    -0.228 NA
HETATM   10  C11 UNL     1      24.814   2.200  52.448  1.00  0.00     0.120 C 
HETATM   11  C18 UNL     1      24.445   2.328  51.037  1.00  0.00     0.162 C 
ENDROOT
BRANCH   2  12
HETATM   12  N1  UNL     1      24.971   4.722  50.634  1.00  0.00    -0.328 N 
HETATM   13  C3  UNL     1      25.679   5.651  49.772  1.00  0.00     0.224 C 
HETATM   14  O1  UNL     1      26.315   5.378  48.694  1.00  0.00    -0.273 OA
HETATM   15  H4  UNL     1      24.513   5.159  51.490  1.00  0.00     0.165 HD
BRANCH  13  16
HETATM   16  C4  UNL     1      25.702   7.090  50.127  1.00  0.00     0.146 C 
BRANCH  16  17
HETATM   17  P1  UNL     1      24.040   7.548  50.881  1.00  0.00    -0.049 P 
BRANCH  17  18
HETATM   18  C5  UNL     1      22.652   7.355  49.954  1.00  0.00     0.053 C 
BRANCH  18  19
HETATM   19  C6  UNL     1      21.531   6.762  50.622  1.00  0.00     0.259 C 
HETATM   20  O2  UNL     1      22.215   6.041  51.410  1.00  0.00    -0.302 OA
ENDBRANCH  18  19
ENDBRANCH  17  18
ENDBRANCH  16  17
ENDBRANCH  13  16
ENDBRANCH   2  12
BRANCH  10  21
HETATM   21  N4  UNL     1      26.034   2.775  52.881  1.00  0.00    -0.344 N 
HETATM   22  H13 UNL     1      26.283   3.747  53.044  1.00  0.00     0.167 HD
BRANCH  21  23
HETATM   23  C12 UNL     1      27.115   1.879  53.176  1.00  0.00     0.034 A 
HETATM   24  C13 UNL     1      28.315   2.225  53.742  1.00  0.00     0.029 A 
HETATM   25  C14 UNL     1      29.298   1.275  53.997  1.00  0.00     0.004 A 
HETATM   26  C15 UNL     1      29.104  -0.052  53.690  1.00  0.00     0.019 A 
HETATM   27  C16 UNL     1      27.883  -0.420  53.114  1.00  0.00     0.013 A 
HETATM   28 BR1  UNL     1      27.712  -2.281  52.740  1.00  0.00    -0.051 Br
HETATM   29  C17 UNL     1      26.937   0.548  52.878  1.00  0.00     0.048 A 
ENDBRANCH  21  23
ENDBRANCH  10  21
TORSDOF 7
ENDMDL
MODEL 5
REMARK VINA RESULT:      -7.6      3.764      6.201
REMARK  7 active torsions:
REMARK  status: ('A' for Active; 'I' for Inactive)
REMARK    1  A    between atoms: C2_2  and  N1_3 
REMARK       I    between atoms: N1_3  and  C3_4 
REMARK    2  A    between atoms: C3_4  and  C4_6 
REMARK    3  A    between atoms: C4_6  and  P1_7 
REMARK    4  A    between atoms: P1_7  and  C5_8 
REMARK    5  A    between atoms: C5_8  and  C6_9 
REMARK    6  A    between atoms: C11_18  and  N4_19 
REMARK    7  A    between atoms: N4_19  and  C12_20 
ROOT
HETATM    1  C1  UNL     1      21.857   0.562  50.363  1.00  0.00     0.072 C 
HETATM    2  C2  UNL     1      21.043   0.732  51.657  1.00  0.00     0.149 C 
HETATM    3  O3  UNL     1      19.749   0.294  51.251  1.00  0.00    -0.356 OA
HETATM    4  C7  UNL     1      18.820   0.300  52.251  1.00  0.00     0.200 C 
HETATM    5  C8  UNL     1      19.174  -0.657  53.355  1.00  0.00     0.027 C 
HETATM    6  C9  UNL     1      20.484  -0.873  53.497  1.00  0.00     0.050 C 
HETATM    7  N2  UNL     1      20.805  -1.771  54.545  1.00  0.00    -0.246 NA
HETATM    8  C10 UNL     1      22.029  -1.682  55.015  1.00  0.00     0.235 C 
HETATM    9  N3  UNL     1      22.930  -0.752  54.452  1.00  0.00    -0.228 NA
HETATM   10  C11 UNL     1      22.705   0.039  53.466  1.00  0.00     0.120 C 
HETATM   11  C18 UNL     1      21.506  -0.216  52.664  1.00  0.00     0.162 C 
ENDROOT
BRANCH   2  12
HETATM   12  N1  UNL     1      20.868   2.099  52.032  1.00  0.00    -0.328 N 
HETATM   13  C3  UNL     1      20.438   2.958  50.944  1.00  0.00     0.224 C 
HETATM   14  O1  UNL     1      20.212   2.617  49.730  1.00  0.00    -0.273 OA
HETATM   15  H4  UNL     1      21.006   2.589  52.967  1.00  0.00     0.165 HD
BRANCH  13  16
HETATM   16  C4  UNL     1      20.219   4.400  51.206  1.00  0.00     0.146 C 
BRANCH  16  17
HETATM   17  P1  UNL     1      21.714   5.356  50.579  1.00  0.00    -0.049 P 
BRANCH  17  18
HETATM   18  C5  UNL     1      23.075   5.461  51.560  1.00  0.00     0.053 C 
BRANCH  18  19
HETATM   19  C6  UNL     1      23.888   4.282  51.629  1.00  0.00     0.259 C 
HETATM   20  O2  UNL     1      23.383   3.839  52.704  1.00  0.00    -0.302 OA
ENDBRANCH  18  19
ENDBRANCH  17  18
ENDBRANCH  16  17
ENDBRANCH  13  16
ENDBRANCH   2  12
BRANCH  10  21
HETATM   21  N4  UNL     1      23.659   0.965  52.978  1.00  0.00    -0.344 N 
HETATM   22  H13 UNL     1      23.543   1.921  52.654  1.00  0.00     0.167 HD
BRANCH  21  23
HETATM   23  C12 UNL     1      25.028   0.538  52.940  1.00  0.00     0.034 A 
HETATM   24  C13 UNL     1      25.470  -0.712  52.591  1.00  0.00     0.029 A 
HETATM   25  C14 UNL     1      26.826  -1.025  52.576  1.00  0.00     0.004 A 
HETATM   26  C15 UNL     1      27.777  -0.089  52.913  1.00  0.00     0.019 A 
HETATM   27  C16 UNL     1      27.339   1.192  53.269  1.00  0.00     0.013 A 
HETATM   28 BR1  UNL     1      28.736   2.414  53.704  1.00  0.00    -0.051 Br
HETATM   29  C17 UNL     1      25.992   1.461  53.271  1.00  0.00     0.048 A 
ENDBRANCH  21  23
ENDBRANCH  10  21
TORSDOF 7
ENDMDL
MODEL 6
REMARK VINA RESULT:      -7.5      3.587      5.939
REMARK  7 active torsions:
REMARK  status: ('A' for Active; 'I' for Inactive)
REMARK    1  A    between atoms: C2_2  and  N1_3 
REMARK       I    between atoms: N1_3  and  C3_4 
REMARK    2  A    between atoms: C3_4  and  C4_6 
REMARK    3  A    between atoms: C4_6  and  P1_7 
REMARK    4  A    between atoms: P1_7  and  C5_8 
REMARK    5  A    between atoms: C5_8  and  C6_9 
REMARK    6  A    between atoms: C11_18  and  N4_19 
REMARK    7  A    between atoms: N4_19  and  C12_20 
ROOT
HETATM    1  C1  UNL     1      22.374   1.006  50.617  1.00  0.00     0.072 C 
HETATM    2  C2  UNL     1      22.102   1.328  52.096  1.00  0.00     0.149 C 
HETATM    3  O3  UNL     1      20.686   1.185  52.173  1.00  0.00    -0.356 OA
HETATM    4  C7  UNL     1      20.175   1.376  53.424  1.00  0.00     0.200 C 
HETATM    5  C8  UNL     1      20.675   0.350  54.401  1.00  0.00     0.027 C 
HETATM    6  C9  UNL     1      21.881  -0.145  54.109  1.00  0.00     0.050 C 
HETATM    7  N2  UNL     1      22.346  -1.106  55.041  1.00  0.00    -0.246 NA
HETATM    8  C10 UNL     1      23.647  -1.289  55.069  1.00  0.00     0.235 C 
HETATM    9  N3  UNL     1      24.475  -0.567  54.182  1.00  0.00    -0.228 NA
HETATM   10  C11 UNL     1      24.097   0.268  53.283  1.00  0.00     0.120 C 
HETATM   11  C18 UNL     1      22.672   0.288  52.945  1.00  0.00     0.162 C 
ENDROOT
BRANCH   2  12
HETATM   12  N1  UNL     1      22.352   2.696  52.426  1.00  0.00    -0.328 N 
HETATM   13  C3  UNL     1      21.777   3.642  51.487  1.00  0.00     0.224 C 
HETATM   14  O1  UNL     1      21.097   3.375  50.435  1.00  0.00    -0.273 OA
HETATM   15  H4  UNL     1      22.890   3.131  53.234  1.00  0.00     0.165 HD
BRANCH  13  16
HETATM   16  C4  UNL     1      21.965   5.094  51.720  1.00  0.00     0.146 C 
BRANCH  16  17
HETATM   17  P1  UNL     1      23.691   5.574  51.143  1.00  0.00    -0.049 P 
BRANCH  17  18
HETATM   18  C5  UNL     1      24.396   4.702  49.891  1.00  0.00     0.053 C 
BRANCH  18  19
HETATM   19  C6  UNL     1      25.677   4.124  50.176  1.00  0.00     0.259 C 
HETATM   20  O2  UNL     1      25.286   2.918  50.139  1.00  0.00    -0.302 OA
ENDBRANCH  18  19
ENDBRANCH  17  18
ENDBRANCH  16  17
ENDBRANCH  13  16
ENDBRANCH   2  12
BRANCH  10  21
HETATM   21  N4  UNL     1      24.999   0.974  52.449  1.00  0.00    -0.344 N 
HETATM   22  H13 UNL     1      24.842   1.455  51.568  1.00  0.00     0.167 HD
BRANCH  21  23
HETATM   23  C12 UNL     1      26.359   1.076  52.891  1.00  0.00     0.034 A 
HETATM   24  C13 UNL     1      26.982   2.222  53.316  1.00  0.00     0.029 A 
HETATM   25  C14 UNL     1      28.309   2.214  53.736  1.00  0.00     0.004 A 
HETATM   26  C15 UNL     1      29.048   1.053  53.741  1.00  0.00     0.019 A 
HETATM   27  C16 UNL     1      28.424  -0.124  53.312  1.00  0.00     0.013 A 
HETATM   28 BR1  UNL     1      29.531  -1.674  53.370  1.00  0.00    -0.051 Br
HETATM   29  C17 UNL     1      27.113  -0.074  52.905  1.00  0.00     0.048 A 
ENDBRANCH  21  23
ENDBRANCH  10  21
TORSDOF 7
ENDMDL
MODEL 7
REMARK VINA RESULT:      -7.5      3.244      6.974
REMARK  7 active torsions:
REMARK  status: ('A' for Active; 'I' for Inactive)
REMARK    1  A    between atoms: C2_2  and  N1_3 
REMARK       I    between atoms: N1_3  and  C3_4 
REMARK    2  A    between atoms: C3_4  and  C4_6 
REMARK    3  A    between atoms: C4_6  and  P1_7 
REMARK    4  A    between atoms: P1_7  and  C5_8 
REMARK    5  A    between atoms: C5_8  and  C6_9 
REMARK    6  A    between atoms: C11_18  and  N4_19 
REMARK    7  A    between atoms: N4_19  and  C12_20 
ROOT
HETATM    1  C1  UNL     1      25.492   2.418  54.296  1.00  0.00     0.072 C 
HETATM    2  C2  UNL     1      26.680   1.983  53.422  1.00  0.00     0.149 C 
HETATM    3  O3  UNL     1      27.785   2.546  54.126  1.00  0.00    -0.356 OA
HETATM    4  C7  UNL     1      29.000   2.261  53.572  1.00  0.00     0.200 C 
HETATM    5  C8  UNL     1      29.298   0.788  53.591  1.00  0.00     0.027 C 
HETATM    6  C9  UNL     1      28.214   0.008  53.558  1.00  0.00     0.050 C 
HETATM    7  N2  UNL     1      28.507  -1.378  53.569  1.00  0.00    -0.246 NA
HETATM    8  C10 UNL     1      27.562  -2.164  53.101  1.00  0.00     0.235 C 
HETATM    9  N3  UNL     1      26.343  -1.605  52.658  1.00  0.00    -0.228 NA
HETATM   10  C11 UNL     1      26.010  -0.366  52.683  1.00  0.00     0.120 C 
HETATM   11  C18 UNL     1      26.840   0.535  53.485  1.00  0.00     0.162 C 
ENDROOT
BRANCH   2  12
HETATM   12  N1  UNL     1      26.697   2.619  52.143  1.00  0.00    -0.328 N 
HETATM   13  C3  UNL     1      25.408   3.144  51.729  1.00  0.00     0.224 C 
HETATM   14  O1  UNL     1      24.304   3.089  52.378  1.00  0.00    -0.273 OA
HETATM   15  H4  UNL     1      27.488   2.765  51.446  1.00  0.00     0.165 HD
BRANCH  13  16
HETATM   16  C4  UNL     1      25.294   3.828  50.420  1.00  0.00     0.146 C 
BRANCH  16  17
HETATM   17  P1  UNL     1      23.479   3.882  49.928  1.00  0.00    -0.049 P 
BRANCH  17  18
HETATM   18  C5  UNL     1      22.800   2.531  49.195  1.00  0.00     0.053 C 
BRANCH  18  19
HETATM   19  C6  UNL     1      21.433   2.257  49.530  1.00  0.00     0.259 C 
HETATM   20  O2  UNL     1      21.399   3.003  50.555  1.00  0.00    -0.302 OA
ENDBRANCH  18  19
ENDBRANCH  17  18
ENDBRANCH  16  17
ENDBRANCH  13  16
ENDBRANCH   2  12
BRANCH  10  21
HETATM   21  N4  UNL     1      24.772   0.117  52.191  1.00  0.00    -0.344 N 
HETATM   22  H13 UNL     1      24.559   0.645  51.350  1.00  0.00     0.167 HD
BRANCH  21  23
HETATM   23  C12 UNL     1      23.598  -0.188  52.957  1.00  0.00     0.034 A 
HETATM   24  C13 UNL     1      23.579  -0.725  54.219  1.00  0.00     0.029 A 
HETATM   25  C14 UNL     1      22.382  -0.976  54.883  1.00  0.00     0.004 A 
HETATM   26  C15 UNL     1      21.169  -0.693  54.298  1.00  0.00     0.019 A 
HETATM   27  C16 UNL     1      21.175  -0.143  53.011  1.00  0.00     0.013 A 
HETATM   28 BR1  UNL     1      19.444   0.221  52.298  1.00  0.00    -0.051 Br
HETATM   29  C17 UNL     1      22.377   0.089  52.388  1.00  0.00     0.048 A 
ENDBRANCH  21  23
ENDBRANCH  10  21
TORSDOF 7
ENDMDL
MODEL 8
REMARK VINA RESULT:      -7.4      4.039      6.398
REMARK  7 active torsions:
REMARK  status: ('A' for Active; 'I' for Inactive)
REMARK    1  A    between atoms: C2_2  and  N1_3 
REMARK       I    between atoms: N1_3  and  C3_4 
REMARK    2  A    between atoms: C3_4  and  C4_6 
REMARK    3  A    between atoms: C4_6  and  P1_7 
REMARK    4  A    between atoms: P1_7  and  C5_8 
REMARK    5  A    between atoms: C5_8  and  C6_9 
REMARK    6  A    between atoms: C11_18  and  N4_19 
REMARK    7  A    between atoms: N4_19  and  C12_20 
ROOT
HETATM    1  C1  UNL     1      26.427   3.207  49.648  1.00  0.00     0.072 C 
HETATM    2  C2  UNL     1      25.024   3.593  50.143  1.00  0.00     0.149 C 
HETATM    3  O3  UNL     1      24.294   3.682  48.921  1.00  0.00    -0.356 OA
HETATM    4  C7  UNL     1      22.971   3.973  49.084  1.00  0.00     0.200 C 
HETATM    5  C8  UNL     1      22.244   2.895  49.837  1.00  0.00     0.027 C 
HETATM    6  C9  UNL     1      23.010   2.207  50.687  1.00  0.00     0.050 C 
HETATM    7  N2  UNL     1      22.312   1.198  51.397  1.00  0.00    -0.246 NA
HETATM    8  C10 UNL     1      22.866   0.807  52.523  1.00  0.00     0.235 C 
HETATM    9  N3  UNL     1      24.095   1.371  52.932  1.00  0.00    -0.228 NA
HETATM   10  C11 UNL     1      24.792   2.242  52.296  1.00  0.00     0.120 C 
HETATM   11  C18 UNL     1      24.441   2.488  50.896  1.00  0.00     0.162 C 
ENDROOT
BRANCH   2  12
HETATM   12  N1  UNL     1      24.968   4.907  50.701  1.00  0.00    -0.328 N 
HETATM   13  C3  UNL     1      25.618   5.919  49.889  1.00  0.00     0.224 C 
HETATM   14  O1  UNL     1      26.212   5.750  48.766  1.00  0.00    -0.273 OA
HETATM   15  H4  UNL     1      24.540   5.262  51.609  1.00  0.00     0.165 HD
BRANCH  13  16
HETATM   16  C4  UNL     1      25.628   7.325  50.359  1.00  0.00     0.146 C 
BRANCH  16  17
HETATM   17  P1  UNL     1      26.650   8.352  49.159  1.00  0.00    -0.049 P 
BRANCH  17  18
HETATM   18  C5  UNL     1      27.922   9.269  49.761  1.00  0.00     0.053 C 
BRANCH  18  19
HETATM   19  C6  UNL     1      29.215   8.983  49.211  1.00  0.00     0.259 C 
HETATM   20  O2  UNL     1      29.572  10.193  49.082  1.00  0.00    -0.302 OA
ENDBRANCH  18  19
ENDBRANCH  17  18
ENDBRANCH  16  17
ENDBRANCH  13  16
ENDBRANCH   2  12
BRANCH  10  21
HETATM   21  N4  UNL     1      26.005   2.779  52.792  1.00  0.00    -0.344 N 
HETATM   22  H13 UNL     1      26.262   3.740  53.004  1.00  0.00     0.167 HD
BRANCH  21  23
HETATM   23  C12 UNL     1      27.062   1.855  53.082  1.00  0.00     0.034 A 
HETATM   24  C13 UNL     1      28.277   2.171  53.636  1.00  0.00     0.029 A 
HETATM   25  C14 UNL     1      29.236   1.195  53.888  1.00  0.00     0.004 A 
HETATM   26  C15 UNL     1      29.002  -0.128  53.590  1.00  0.00     0.019 A 
HETATM   27  C16 UNL     1      27.766  -0.465  53.026  1.00  0.00     0.013 A 
HETATM   28 BR1  UNL     1      27.541  -2.322  52.663  1.00  0.00    -0.051 Br
HETATM   29  C17 UNL     1      26.845   0.528  52.793  1.00  0.00     0.048 A 
ENDBRANCH  21  23
ENDBRANCH  10  21
TORSDOF 7
ENDMDL
MODEL 9
REMARK VINA RESULT:      -7.3      3.477      6.182
REMARK  7 active torsions:
REMARK  status: ('A' for Active; 'I' for Inactive)
REMARK    1  A    between atoms: C2_2  and  N1_3 
REMARK       I    between atoms: N1_3  and  C3_4 
REMARK    2  A    between atoms: C3_4  and  C4_6 
REMARK    3  A    between atoms: C4_6  and  P1_7 
REMARK    4  A    between atoms: P1_7  and  C5_8 
REMARK    5  A    between atoms: C5_8  and  C6_9 
REMARK    6  A    between atoms: C11_18  and  N4_19 
REMARK    7  A    between atoms: N4_19  and  C12_20 
ROOT
HETATM    1  C1  UNL     1      23.851   3.804  53.045  1.00  0.00     0.072 C 
HETATM    2  C2  UNL     1      23.664   3.828  51.519  1.00  0.00     0.149 C 
HETATM    3  O3  UNL     1      22.917   5.028  51.332  1.00  0.00    -0.356 OA
HETATM    4  C7  UNL     1      22.650   5.319  50.025  1.00  0.00     0.200 C 
HETATM    5  C8  UNL     1      23.903   5.570  49.235  1.00  0.00     0.027 C 
HETATM    6  C9  UNL     1      24.981   4.931  49.696  1.00  0.00     0.050 C 
HETATM    7  N2  UNL     1      26.155   5.169  48.939  1.00  0.00    -0.246 NA
HETATM    8  C10 UNL     1      27.100   4.263  49.053  1.00  0.00     0.235 C 
HETATM    9  N3  UNL     1      26.912   3.160  49.914  1.00  0.00    -0.228 NA
HETATM   10  C11 UNL     1      25.894   2.931  50.662  1.00  0.00     0.120 C 
HETATM   11  C18 UNL     1      24.951   4.033  50.864  1.00  0.00     0.162 C 
ENDROOT
BRANCH   2  12
HETATM   12  N1  UNL     1      22.810   2.786  51.043  1.00  0.00    -0.328 N 
HETATM   13  C3  UNL     1      22.669   1.674  51.966  1.00  0.00     0.224 C 
HETATM   14  O1  UNL     1      23.216   1.547  53.117  1.00  0.00    -0.273 OA
HETATM   15  H4  UNL     1      22.273   2.687  50.130  1.00  0.00     0.165 HD
BRANCH  13  16
HETATM   16  C4  UNL     1      21.807   0.528  51.588  1.00  0.00     0.146 C 
BRANCH  16  17
HETATM   17  P1  UNL     1      20.028   0.942  52.039  1.00  0.00    -0.049 P 
BRANCH  17  18
HETATM   18  C5  UNL     1      19.175   2.012  51.064  1.00  0.00     0.053 C 
BRANCH  18  19
HETATM   19  C6  UNL     1      19.281   3.398  51.413  1.00  0.00     0.259 C 
HETATM   20  O2  UNL     1      19.671   3.202  52.604  1.00  0.00    -0.302 OA
ENDBRANCH  18  19
ENDBRANCH  17  18
ENDBRANCH  16  17
ENDBRANCH  13  16
ENDBRANCH   2  12
BRANCH  10  21
HETATM   21  N4  UNL     1      25.772   1.780  51.479  1.00  0.00    -0.344 N 
HETATM   22  H13 UNL     1      25.009   1.115  51.569  1.00  0.00     0.167 HD
BRANCH  21  23
HETATM   23  C12 UNL     1      26.892   1.443  52.309  1.00  0.00     0.034 A 
HETATM   24  C13 UNL     1      27.608   2.318  53.086  1.00  0.00     0.029 A 
HETATM   25  C14 UNL     1      28.676   1.888  53.867  1.00  0.00     0.004 A 
HETATM   26  C15 UNL     1      29.055   0.566  53.891  1.00  0.00     0.019 A 
HETATM   27  C16 UNL     1      28.331  -0.338  53.105  1.00  0.00     0.013 A 
HETATM   28 BR1  UNL     1      28.930  -2.144  53.220  1.00  0.00    -0.051 Br
HETATM   29  C17 UNL     1      27.283   0.125  52.347  1.00  0.00     0.048 A 
ENDBRANCH  21  23
ENDBRANCH  10  21
TORSDOF 7
ENDMDL
