MODEL 1
REMARK VINA RESULT:      -8.1      0.000      0.000
REMARK  4 active torsions:
REMARK  status: ('A' for Active; 'I' for Inactive)
REMARK    1  A    between atoms: C2_2  and  C3_3 
REMARK    2  A    between atoms: C2_2  and  C16_19 
REMARK    3  A    between atoms: C3_3  and  C4_4 
REMARK    4  A    between atoms: C4_4  and  C5_5 
ROOT
HETATM    1  C5  UNL     1      25.313   0.615  52.283  1.00  0.00    -0.062 C 
HETATM    2  C6  UNL     1      24.211   1.317  52.505  1.00  0.00    -0.018 A 
HETATM    3  C7  UNL     1      24.014   2.793  52.606  1.00  0.00     0.010 A 
HETATM    4  C8  UNL     1      22.752   2.420  52.908  1.00  0.00     0.016 A 
HETATM    5  C9  UNL     1      22.905   0.873  52.764  1.00  0.00     0.119 A 
HETATM    6  C10 UNL     1      21.831   0.637  51.683  1.00  0.00     0.026 C 
HETATM    7 BR1  UNL     1      21.581   0.951  49.852  1.00  0.00    -0.052 Br
HETATM    8  C11 UNL     1      20.786   0.011  52.294  1.00  0.00     0.019 C 
HETATM    9  C12 UNL     1      20.502  -0.519  53.661  1.00  0.00     0.018 C 
HETATM   10  C13 UNL     1      21.541  -0.460  54.557  1.00  0.00     0.096 C 
HETATM   11  N1  UNL     1      22.645   0.043  53.820  1.00  0.00    -0.305 N 
HETATM   12  C14 UNL     1      24.002  -0.565  53.959  1.00  0.00     0.229 C 
HETATM   13  O1  UNL     1      24.313  -0.872  55.180  1.00  0.00    -0.273 OA
HETATM   14  C15 UNL     1      24.901  -0.781  52.693  1.00  0.00     0.138 C 
ENDROOT
BRANCH   1  15
HETATM   15  C4  UNL     1      26.744   0.743  52.022  1.00  0.00     0.036 C 
BRANCH  15  16
HETATM   16  C3  UNL     1      27.535  -0.370  52.700  1.00  0.00     0.015 C 
BRANCH  16  17
HETATM   17  C2  UNL     1      28.372   0.300  53.780  1.00  0.00     0.044 C 
HETATM   18  C1  UNL     1      27.677   0.163  55.105  1.00  0.00     0.017 C 
BRANCH  17  19
HETATM   19  C16 UNL     1      28.671   1.703  53.407  1.00  0.00     0.121 A 
HETATM   20  O2  UNL     1      28.993   2.468  54.354  1.00  0.00    -0.194 OA
HETATM   21  O3  UNL     1      28.937   2.998  52.992  1.00  0.00     0.000 OA
HETATM   22  H16 UNL     1      28.704   3.253  52.028  1.00  0.00     0.000 HD
ENDBRANCH  17  19
ENDBRANCH  16  17
ENDBRANCH  15  16
ENDBRANCH   1  15
TORSDOF 4
ENDMDL
MODEL 2
REMARK VINA RESULT:      -7.8      1.949      2.416
REMARK  4 active torsions:
REMARK  status: ('A' for Active; 'I' for Inactive)
REMARK    1  A    between atoms: C2_2  and  C3_3 
REMARK    2  A    between atoms: C2_2  and  C16_19 
REMARK    3  A    between atoms: C3_3  and  C4_4 
REMARK    4  A    between atoms: C4_4  and  C5_5 
ROOT
HETATM    1  C5  UNL     1      24.148   0.755  52.687  1.00  0.00    -0.062 C 
HETATM    2  C6  UNL     1      23.073   1.504  52.490  1.00  0.00    -0.018 A 
HETATM    3  C7  UNL     1      22.923   2.989  52.487  1.00  0.00     0.010 A 
HETATM    4  C8  UNL     1      21.620   2.675  52.327  1.00  0.00     0.016 A 
HETATM    5  C9  UNL     1      21.741   1.119  52.276  1.00  0.00     0.119 A 
HETATM    6  C10 UNL     1      21.110   0.887  50.888  1.00  0.00     0.026 C 
HETATM    7 BR1  UNL     1      21.540   1.147  49.083  1.00  0.00    -0.052 Br
HETATM    8  C11 UNL     1      19.887   0.321  51.100  1.00  0.00     0.019 C 
HETATM    9  C12 UNL     1      19.114  -0.151  52.286  1.00  0.00     0.018 C 
HETATM   10  C13 UNL     1      19.770  -0.101  53.491  1.00  0.00     0.096 C 
HETATM   11  N1  UNL     1      21.085   0.335  53.186  1.00  0.00    -0.305 N 
HETATM   12  C14 UNL     1      22.274  -0.318  53.809  1.00  0.00     0.229 C 
HETATM   13  O1  UNL     1      22.118  -0.594  55.067  1.00  0.00    -0.273 OA
HETATM   14  C15 UNL     1      23.553  -0.610  52.949  1.00  0.00     0.138 C 
ENDROOT
BRANCH   1  15
HETATM   15  C4  UNL     1      25.583   0.821  52.949  1.00  0.00     0.036 C 
BRANCH  15  16
HETATM   16  C3  UNL     1      26.309  -0.392  52.378  1.00  0.00     0.015 C 
BRANCH  16  17
HETATM   17  C2  UNL     1      27.382  -0.762  53.391  1.00  0.00     0.044 C 
HETATM   18  C1  UNL     1      28.439   0.307  53.411  1.00  0.00     0.017 C 
BRANCH  17  19
HETATM   19  C16 UNL     1      27.912  -2.117  53.111  1.00  0.00     0.121 A 
HETATM   20  O2  UNL     1      29.128  -2.300  53.385  1.00  0.00    -0.194 OA
HETATM   21  O3  UNL     1      28.345  -3.402  52.827  1.00  0.00     0.000 OA
HETATM   22  H16 UNL     1      27.720  -4.015  52.295  1.00  0.00     0.000 HD
ENDBRANCH  17  19
ENDBRANCH  16  17
ENDBRANCH  15  16
ENDBRANCH   1  15
TORSDOF 4
ENDMDL
MODEL 3
REMARK VINA RESULT:      -7.8      1.483      2.059
REMARK  4 active torsions:
REMARK  status: ('A' for Active; 'I' for Inactive)
REMARK    1  A    between atoms: C2_2  and  C3_3 
REMARK    2  A    between atoms: C2_2  and  C16_19 
REMARK    3  A    between atoms: C3_3  and  C4_4 
REMARK    4  A    between atoms: C4_4  and  C5_5 
ROOT
HETATM    1  C5  UNL     1      23.852   0.833  52.858  1.00  0.00    -0.062 C 
HETATM    2  C6  UNL     1      22.793   1.569  52.554  1.00  0.00    -0.018 A 
HETATM    3  C7  UNL     1      22.633   3.052  52.509  1.00  0.00     0.010 A 
HETATM    4  C8  UNL     1      21.351   2.724  52.243  1.00  0.00     0.016 A 
HETATM    5  C9  UNL     1      21.487   1.168  52.232  1.00  0.00     0.119 A 
HETATM    6  C10 UNL     1      20.980   0.905  50.800  1.00  0.00     0.026 C 
HETATM    7 BR1  UNL     1      21.563   1.136  49.034  1.00  0.00    -0.052 Br
HETATM    8  C11 UNL     1      19.747   0.333  50.916  1.00  0.00     0.019 C 
HETATM    9  C12 UNL     1      18.877  -0.124  52.040  1.00  0.00     0.018 C 
HETATM   10  C13 UNL     1      19.426  -0.046  53.296  1.00  0.00     0.096 C 
HETATM   11  N1  UNL     1      20.759   0.396  53.098  1.00  0.00    -0.305 N 
HETATM   12  C14 UNL     1      21.895  -0.235  53.834  1.00  0.00     0.229 C 
HETATM   13  O1  UNL     1      21.632  -0.489  55.078  1.00  0.00    -0.273 OA
HETATM   14  C15 UNL     1      23.245  -0.532  53.093  1.00  0.00     0.138 C 
ENDROOT
BRANCH   1  15
HETATM   15  C4  UNL     1      25.258   0.916  53.242  1.00  0.00     0.036 C 
BRANCH  15  16
HETATM   16  C3  UNL     1      26.176   0.650  52.054  1.00  0.00     0.015 C 
BRANCH  16  17
HETATM   17  C2  UNL     1      27.298  -0.237  52.574  1.00  0.00     0.044 C 
HETATM   18  C1  UNL     1      26.804  -1.651  52.687  1.00  0.00     0.017 C 
BRANCH  17  19
HETATM   19  C16 UNL     1      27.841   0.307  53.842  1.00  0.00     0.121 A 
HETATM   20  O2  UNL     1      28.110  -0.540  54.734  1.00  0.00    -0.194 OA
HETATM   21  O3  UNL     1      28.344   0.879  54.999  1.00  0.00     0.000 OA
HETATM   22  H16 UNL     1      28.305   1.899  55.090  1.00  0.00     0.000 HD
ENDBRANCH  17  19
ENDBRANCH  16  17
ENDBRANCH  15  16
ENDBRANCH   1  15
TORSDOF 4
ENDMDL
MODEL 4
REMARK VINA RESULT:      -7.8      1.695      2.125
REMARK  4 active torsions:
REMARK  status: ('A' for Active; 'I' for Inactive)
REMARK    1  A    between atoms: C2_2  and  C3_3 
REMARK    2  A    between atoms: C2_2  and  C16_19 
REMARK    3  A    between atoms: C3_3  and  C4_4 
REMARK    4  A    between atoms: C4_4  and  C5_5 
ROOT
HETATM    1  C5  UNL     1      24.327   0.609  52.781  1.00  0.00    -0.062 C 
HETATM    2  C6  UNL     1      23.901   1.857  52.646  1.00  0.00    -0.018 A 
HETATM    3  C7  UNL     1      24.554   3.144  53.028  1.00  0.00     0.010 A 
HETATM    4  C8  UNL     1      23.379   3.656  52.606  1.00  0.00     0.016 A 
HETATM    5  C9  UNL     1      22.679   2.337  52.149  1.00  0.00     0.119 A 
HETATM    6  C10 UNL     1      22.422   2.714  50.677  1.00  0.00     0.026 C 
HETATM    7 BR1  UNL     1      23.393   2.946  49.090  1.00  0.00    -0.052 Br
HETATM    8  C11 UNL     1      21.080   2.923  50.551  1.00  0.00     0.019 C 
HETATM    9  C12 UNL     1      19.888   2.807  51.441  1.00  0.00     0.018 C 
HETATM   10  C13 UNL     1      20.119   2.295  52.694  1.00  0.00     0.096 C 
HETATM   11  N1  UNL     1      21.494   1.943  52.709  1.00  0.00    -0.305 N 
HETATM   12  C14 UNL     1      21.947   0.645  53.291  1.00  0.00     0.229 C 
HETATM   13  O1  UNL     1      21.337   0.325  54.390  1.00  0.00    -0.273 OA
HETATM   14  C15 UNL     1      23.062  -0.193  52.573  1.00  0.00     0.138 C 
ENDROOT
BRANCH   1  15
HETATM   15  C4  UNL     1      25.451  -0.194  53.251  1.00  0.00     0.036 C 
BRANCH  15  16
HETATM   16  C3  UNL     1      26.729   0.140  52.491  1.00  0.00     0.015 C 
BRANCH  16  17
HETATM   17  C2  UNL     1      27.796   0.399  53.545  1.00  0.00     0.044 C 
HETATM   18  C1  UNL     1      27.193   0.247  54.912  1.00  0.00     0.017 C 
BRANCH  17  19
HETATM   19  C16 UNL     1      28.436   1.717  53.319  1.00  0.00     0.121 A 
HETATM   20  O2  UNL     1      28.161   2.613  54.161  1.00  0.00    -0.194 OA
HETATM   21  O3  UNL     1      29.064   2.922  53.052  1.00  0.00     0.000 OA
HETATM   22  H16 UNL     1      29.544   3.028  52.153  1.00  0.00     0.000 HD
ENDBRANCH  17  19
ENDBRANCH  16  17
ENDBRANCH  15  16
ENDBRANCH   1  15
TORSDOF 4
ENDMDL
MODEL 5
REMARK VINA RESULT:      -7.8      2.109      2.434
REMARK  4 active torsions:
REMARK  status: ('A' for Active; 'I' for Inactive)
REMARK    1  A    between atoms: C2_2  and  C3_3 
REMARK    2  A    between atoms: C2_2  and  C16_19 
REMARK    3  A    between atoms: C3_3  and  C4_4 
REMARK    4  A    between atoms: C4_4  and  C5_5 
ROOT
HETATM    1  C5  UNL     1      25.385   1.070  52.816  1.00  0.00    -0.062 C 
HETATM    2  C6  UNL     1      24.324   1.857  52.703  1.00  0.00    -0.018 A 
HETATM    3  C7  UNL     1      24.146   3.292  53.071  1.00  0.00     0.010 A 
HETATM    4  C8  UNL     1      22.875   3.043  52.691  1.00  0.00     0.016 A 
HETATM    5  C9  UNL     1      23.031   1.554  52.249  1.00  0.00     0.119 A 
HETATM    6  C10 UNL     1      22.561   1.699  50.788  1.00  0.00     0.026 C 
HETATM    7 BR1  UNL     1      23.181   2.419  49.172  1.00  0.00    -0.052 Br
HETATM    8  C11 UNL     1      21.333   1.111  50.707  1.00  0.00     0.019 C 
HETATM    9  C12 UNL     1      20.443   0.352  51.635  1.00  0.00     0.018 C 
HETATM   10  C13 UNL     1      20.962   0.079  52.877  1.00  0.00     0.096 C 
HETATM   11  N1  UNL     1      22.294   0.566  52.844  1.00  0.00    -0.305 N 
HETATM   12  C14 UNL     1      23.420  -0.239  53.404  1.00  0.00     0.229 C 
HETATM   13  O1  UNL     1      23.132  -0.833  54.520  1.00  0.00    -0.273 OA
HETATM   14  C15 UNL     1      24.790  -0.309  52.644  1.00  0.00     0.138 C 
ENDROOT
BRANCH   1  15
HETATM   15  C4  UNL     1      26.781   1.051  53.244  1.00  0.00     0.036 C 
BRANCH  15  16
HETATM   16  C3  UNL     1      27.565  -0.045  52.532  1.00  0.00     0.015 C 
BRANCH  16  17
HETATM   17  C2  UNL     1      28.480  -0.663  53.580  1.00  0.00     0.044 C 
HETATM   18  C1  UNL     1      29.822   0.010  53.529  1.00  0.00     0.017 C 
BRANCH  17  19
HETATM   19  C16 UNL     1      28.545  -2.134  53.406  1.00  0.00     0.121 A 
HETATM   20  O2  UNL     1      27.551  -2.666  52.844  1.00  0.00    -0.194 OA
HETATM   21  O3  UNL     1      28.667  -3.507  53.275  1.00  0.00     0.000 OA
HETATM   22  H16 UNL     1      29.438  -3.972  53.764  1.00  0.00     0.000 HD
ENDBRANCH  17  19
ENDBRANCH  16  17
ENDBRANCH  15  16
ENDBRANCH   1  15
TORSDOF 4
ENDMDL
MODEL 6
REMARK VINA RESULT:      -7.5      2.883      5.364
REMARK  4 active torsions:
REMARK  status: ('A' for Active; 'I' for Inactive)
REMARK    1  A    between atoms: C2_2  and  C3_3 
REMARK    2  A    between atoms: C2_2  and  C16_19 
REMARK    3  A    between atoms: C3_3  and  C4_4 
REMARK    4  A    between atoms: C4_4  and  C5_5 
ROOT
HETATM    1  C5  UNL     1      23.447   1.976  52.169  1.00  0.00    -0.062 C 
HETATM    2  C6  UNL     1      23.385   2.387  50.910  1.00  0.00    -0.018 A 
HETATM    3  C7  UNL     1      22.515   1.926  49.789  1.00  0.00     0.010 A 
HETATM    4  C8  UNL     1      23.265   2.803  49.088  1.00  0.00     0.016 A 
HETATM    5  C9  UNL     1      24.162   3.347  50.244  1.00  0.00     0.119 A 
HETATM    6  C10 UNL     1      23.799   4.841  50.132  1.00  0.00     0.026 C 
HETATM    7 BR1  UNL     1      22.350   5.971  50.500  1.00  0.00    -0.052 Br
HETATM    8  C11 UNL     1      24.889   5.474  49.611  1.00  0.00     0.019 C 
HETATM    9  C12 UNL     1      26.275   5.081  49.221  1.00  0.00     0.018 C 
HETATM   10  C13 UNL     1      26.634   3.785  49.500  1.00  0.00     0.096 C 
HETATM   11  N1  UNL     1      25.525   3.227  50.188  1.00  0.00    -0.305 N 
HETATM   12  C14 UNL     1      25.721   2.387  51.406  1.00  0.00     0.229 C 
HETATM   13  O1  UNL     1      26.719   1.564  51.317  1.00  0.00    -0.273 OA
HETATM   14  C15 UNL     1      24.764   2.552  52.638  1.00  0.00     0.138 C 
ENDROOT
BRANCH   1  15
HETATM   15  C4  UNL     1      22.851   1.043  53.121  1.00  0.00     0.036 C 
BRANCH  15  16
HETATM   16  C3  UNL     1      23.669  -0.238  53.231  1.00  0.00     0.015 C 
BRANCH  16  17
HETATM   17  C2  UNL     1      23.036  -1.053  54.349  1.00  0.00     0.044 C 
HETATM   18  C1  UNL     1      21.764  -0.387  54.792  1.00  0.00     0.017 C 
BRANCH  17  19
HETATM   19  C16 UNL     1      24.009  -1.268  55.447  1.00  0.00     0.121 A 
HETATM   20  O2  UNL     1      25.220  -1.089  55.151  1.00  0.00    -0.194 OA
HETATM   21  O3  UNL     1      24.865  -1.485  56.514  1.00  0.00     0.000 OA
HETATM   22  H16 UNL     1      24.480  -1.907  57.364  1.00  0.00     0.000 HD
ENDBRANCH  17  19
ENDBRANCH  16  17
ENDBRANCH  15  16
ENDBRANCH   1  15
TORSDOF 4
ENDMDL
MODEL 7
REMARK VINA RESULT:      -7.3      2.873      3.921
REMARK  4 active torsions:
REMARK  status: ('A' for Active; 'I' for Inactive)
REMARK    1  A    between atoms: C2_2  and  C3_3 
REMARK    2  A    between atoms: C2_2  and  C16_19 
REMARK    3  A    between atoms: C3_3  and  C4_4 
REMARK    4  A    between atoms: C4_4  and  C5_5 
ROOT
HETATM    1  C5  UNL     1      24.679   1.851  51.669  1.00  0.00    -0.062 C 
HETATM    2  C6  UNL     1      24.801   2.772  50.723  1.00  0.00    -0.018 A 
HETATM    3  C7  UNL     1      25.964   3.106  49.850  1.00  0.00     0.010 A 
HETATM    4  C8  UNL     1      25.139   4.092  49.437  1.00  0.00     0.016 A 
HETATM    5  C9  UNL     1      23.884   3.745  50.298  1.00  0.00     0.119 A 
HETATM    6  C10 UNL     1      22.869   3.550  49.153  1.00  0.00     0.026 C 
HETATM    7 BR1  UNL     1      22.492   2.309  47.801  1.00  0.00    -0.052 Br
HETATM    8  C11 UNL     1      22.024   4.620  49.188  1.00  0.00     0.019 C 
HETATM    9  C12 UNL     1      21.836   5.812  50.067  1.00  0.00     0.018 C 
HETATM   10  C13 UNL     1      22.634   5.868  51.183  1.00  0.00     0.096 C 
HETATM   11  N1  UNL     1      23.369   4.654  51.182  1.00  0.00    -0.305 N 
HETATM   12  C14 UNL     1      23.548   3.865  52.437  1.00  0.00     0.229 C 
HETATM   13  O1  UNL     1      23.788   4.594  53.482  1.00  0.00    -0.273 OA
HETATM   14  C15 UNL     1      23.436   2.301  52.405  1.00  0.00     0.138 C 
ENDROOT
BRANCH   1  15
HETATM   15  C4  UNL     1      25.392   0.771  52.343  1.00  0.00     0.036 C 
BRANCH  15  16
HETATM   16  C3  UNL     1      25.998   1.241  53.660  1.00  0.00     0.015 C 
BRANCH  16  17
HETATM   17  C2  UNL     1      27.470   0.857  53.613  1.00  0.00     0.044 C 
HETATM   18  C1  UNL     1      27.850   0.184  54.902  1.00  0.00     0.017 C 
BRANCH  17  19
HETATM   19  C16 UNL     1      28.302   2.041  53.291  1.00  0.00     0.121 A 
HETATM   20  O2  UNL     1      28.975   2.516  54.244  1.00  0.00    -0.194 OA
HETATM   21  O3  UNL     1      29.056   3.143  52.925  1.00  0.00     0.000 OA
HETATM   22  H16 UNL     1      28.889   3.558  52.003  1.00  0.00     0.000 HD
ENDBRANCH  17  19
ENDBRANCH  16  17
ENDBRANCH  15  16
ENDBRANCH   1  15
TORSDOF 4
ENDMDL
MODEL 8
REMARK VINA RESULT:      -7.3      4.414      5.707
REMARK  4 active torsions:
REMARK  status: ('A' for Active; 'I' for Inactive)
REMARK    1  A    between atoms: C2_2  and  C3_3 
REMARK    2  A    between atoms: C2_2  and  C16_19 
REMARK    3  A    between atoms: C3_3  and  C4_4 
REMARK    4  A    between atoms: C4_4  and  C5_5 
ROOT
HETATM    1  C5  UNL     1      25.822   4.566  49.719  1.00  0.00    -0.062 C 
HETATM    2  C6  UNL     1      24.882   4.439  50.645  1.00  0.00    -0.018 A 
HETATM    3  C7  UNL     1      24.121   5.482  51.393  1.00  0.00     0.010 A 
HETATM    4  C8  UNL     1      23.619   4.401  52.027  1.00  0.00     0.016 A 
HETATM    5  C9  UNL     1      24.359   3.278  51.235  1.00  0.00     0.119 A 
HETATM    6  C10 UNL     1      23.124   2.513  50.716  1.00  0.00     0.026 C 
HETATM    7 BR1  UNL     1      21.757   2.735  49.454  1.00  0.00    -0.052 Br
HETATM    8  C11 UNL     1      23.064   1.342  51.412  1.00  0.00     0.019 C 
HETATM    9  C12 UNL     1      23.906   0.657  52.437  1.00  0.00     0.018 C 
HETATM   10  C13 UNL     1      25.094   1.273  52.749  1.00  0.00     0.096 C 
HETATM   11  N1  UNL     1      25.178   2.391  51.879  1.00  0.00    -0.305 N 
HETATM   12  C14 UNL     1      26.453   2.722  51.177  1.00  0.00     0.229 C 
HETATM   13  O1  UNL     1      27.508   2.585  51.919  1.00  0.00    -0.273 OA
HETATM   14  C15 UNL     1      26.430   3.182  49.677  1.00  0.00     0.138 C 
ENDROOT
BRANCH   1  15
HETATM   15  C4  UNL     1      26.575   5.552  48.950  1.00  0.00     0.036 C 
BRANCH  15  16
HETATM   16  C3  UNL     1      25.886   6.912  48.965  1.00  0.00     0.015 C 
BRANCH  16  17
HETATM   17  C2  UNL     1      26.979   7.945  48.733  1.00  0.00     0.044 C 
HETATM   18  C1  UNL     1      28.203   7.262  48.193  1.00  0.00     0.017 C 
BRANCH  17  19
HETATM   19  C16 UNL     1      27.228   8.721  49.972  1.00  0.00     0.121 A 
HETATM   20  O2  UNL     1      26.474   9.712  50.161  1.00  0.00    -0.194 OA
HETATM   21  O3  UNL     1      27.512   9.402  51.144  1.00  0.00     0.000 OA
HETATM   22  H16 UNL     1      28.368   9.155  51.650  1.00  0.00     0.000 HD
ENDBRANCH  17  19
ENDBRANCH  16  17
ENDBRANCH  15  16
ENDBRANCH   1  15
TORSDOF 4
ENDMDL
MODEL 9
REMARK VINA RESULT:      -7.2      3.243      4.793
REMARK  4 active torsions:
REMARK  status: ('A' for Active; 'I' for Inactive)
REMARK    1  A    between atoms: C2_2  and  C3_3 
REMARK    2  A    between atoms: C2_2  and  C16_19 
REMARK    3  A    between atoms: C3_3  and  C4_4 
REMARK    4  A    between atoms: C4_4  and  C5_5 
ROOT
HETATM    1  C5  UNL     1      25.826   2.653  50.700  1.00  0.00    -0.062 C 
HETATM    2  C6  UNL     1      25.129   2.682  51.828  1.00  0.00    -0.018 A 
HETATM    3  C7  UNL     1      24.307   3.776  52.423  1.00  0.00     0.010 A 
HETATM    4  C8  UNL     1      24.190   2.891  53.435  1.00  0.00     0.016 A 
HETATM    5  C9  UNL     1      25.002   1.704  52.826  1.00  0.00     0.119 A 
HETATM    6  C10 UNL     1      23.897   0.630  52.862  1.00  0.00     0.026 C 
HETATM    7 BR1  UNL     1      22.302   0.217  51.967  1.00  0.00    -0.052 Br
HETATM    8  C11 UNL     1      24.234  -0.252  53.846  1.00  0.00     0.019 C 
HETATM    9  C12 UNL     1      25.387  -0.431  54.778  1.00  0.00     0.018 C 
HETATM   10  C13 UNL     1      26.441   0.431  54.604  1.00  0.00     0.096 C 
HETATM   11  N1  UNL     1      26.106   1.210  53.466  1.00  0.00    -0.305 N 
HETATM   12  C14 UNL     1      27.119   1.496  52.407  1.00  0.00     0.229 C 
HETATM   13  O1  UNL     1      28.297   1.772  52.873  1.00  0.00    -0.273 OA
HETATM   14  C15 UNL     1      26.711   1.442  50.893  1.00  0.00     0.138 C 
ENDROOT
BRANCH   1  15
HETATM   15  C4  UNL     1      26.178   3.447  49.527  1.00  0.00     0.036 C 
BRANCH  15  16
HETATM   16  C3  UNL     1      25.041   4.379  49.125  1.00  0.00     0.015 C 
BRANCH  16  17
HETATM   17  C2  UNL     1      25.654   5.766  48.996  1.00  0.00     0.044 C 
HETATM   18  C1  UNL     1      27.108   5.638  48.641  1.00  0.00     0.017 C 
BRANCH  17  19
HETATM   19  C16 UNL     1      25.409   6.556  50.226  1.00  0.00     0.121 A 
HETATM   20  O2  UNL     1      26.055   7.633  50.327  1.00  0.00    -0.194 OA
HETATM   21  O3  UNL     1      25.136   7.245  51.397  1.00  0.00     0.000 OA
HETATM   22  H16 UNL     1      24.586   6.770  52.119  1.00  0.00     0.000 HD
ENDBRANCH  17  19
ENDBRANCH  16  17
ENDBRANCH  15  16
ENDBRANCH   1  15
TORSDOF 4
ENDMDL
