MODEL 1
REMARK VINA RESULT:      -9.8      0.000      0.000
REMARK  1 active torsions:
REMARK  status: ('A' for Active; 'I' for Inactive)
REMARK    1  A    between atoms: C1_2  and  C2_3 
ROOT
HETATM    1  C2  UNL     1      23.362   3.276  51.597  1.00  0.00     0.016 A 
HETATM    2  C3  UNL     1      24.253   2.297  51.949  1.00  0.00    -0.009 A 
HETATM    3  C4  UNL     1      25.637   2.419  51.256  1.00  0.00     0.119 A 
HETATM    4  N1  UNL     1      26.772   2.497  52.103  1.00  0.00    -0.390 N 
HETATM    5  C5  UNL     1      27.224   1.486  53.058  1.00  0.00     0.040 A 
HETATM    6  C6  UNL     1      28.535   1.512  53.440  1.00  0.00     0.049 A 
HETATM    7  C7  UNL     1      29.042   0.681  54.422  1.00  0.00     0.122 A 
HETATM    8  N2  UNL     1      28.128  -0.142  54.966  1.00  0.00    -0.236 NA
HETATM    9  C8  UNL     1      26.865  -0.199  54.633  1.00  0.00     0.178 A 
HETATM   10  O1  UNL     1      25.745  -0.807  54.922  1.00  0.00    -0.299 OA
HETATM   11  C9  UNL     1      24.801  -0.377  54.207  1.00  0.00     0.048 A 
HETATM   12  C10 UNL     1      25.052   0.664  53.201  1.00  0.00     0.028 A 
HETATM   13  C11 UNL     1      26.337   0.568  53.688  1.00  0.00     0.032 A 
HETATM   14  C12 UNL     1      24.603   1.648  52.335  1.00  0.00     0.076 A 
HETATM   15  C13 UNL     1      23.273   2.096  52.093  1.00  0.00     0.014 A 
HETATM   16  C14 UNL     1      23.624   1.064  52.645  1.00  0.00    -0.012 A 
HETATM   17  C15 UNL     1      22.303   0.424  52.576  1.00  0.00     0.017 C 
HETATM   18  C16 UNL     1      21.916  -0.537  53.573  1.00  0.00    -0.004 C 
HETATM   19  C17 UNL     1      22.267  -1.280  54.535  1.00  0.00     0.006 C 
HETATM   20  C18 UNL     1      23.611  -0.892  54.464  1.00  0.00     0.055 C 
HETATM   21  H6  UNL     1      27.403   3.366  52.089  1.00  0.00     0.159 HD
ENDROOT
BRANCH   1  22
HETATM   22  C1  UNL     1      23.434   4.415  50.692  1.00  0.00     0.120 C 
HETATM   23 CL1  UNL     1      23.330   4.005  48.953  1.00  0.00    -0.130 Cl
ENDBRANCH   1  22
TORSDOF 1
ENDMDL
MODEL 2
REMARK VINA RESULT:      -9.7      1.832      4.186
REMARK  1 active torsions:
REMARK  status: ('A' for Active; 'I' for Inactive)
REMARK    1  A    between atoms: C1_2  and  C2_3 
ROOT
HETATM    1  C2  UNL     1      26.562   2.911  50.516  1.00  0.00     0.016 A 
HETATM    2  C3  UNL     1      25.886   2.401  51.593  1.00  0.00    -0.009 A 
HETATM    3  C4  UNL     1      24.393   2.824  51.664  1.00  0.00     0.119 A 
HETATM    4  N1  UNL     1      23.434   1.781  51.712  1.00  0.00    -0.390 N 
HETATM    5  C5  UNL     1      23.301   0.760  52.751  1.00  0.00     0.040 A 
HETATM    6  C6  UNL     1      22.090   0.142  52.884  1.00  0.00     0.049 A 
HETATM    7  C7  UNL     1      21.885  -0.917  53.751  1.00  0.00     0.122 A 
HETATM    8  N2  UNL     1      22.982  -1.279  54.438  1.00  0.00    -0.236 NA
HETATM    9  C8  UNL     1      24.159  -0.718  54.341  1.00  0.00     0.178 A 
HETATM   10  O1  UNL     1      25.382  -0.792  54.794  1.00  0.00    -0.299 OA
HETATM   11  C9  UNL     1      26.114   0.085  54.264  1.00  0.00     0.048 A 
HETATM   12  C10 UNL     1      25.550   1.025  53.286  1.00  0.00     0.028 A 
HETATM   13  C11 UNL     1      24.400   0.308  53.534  1.00  0.00     0.032 A 
HETATM   14  C12 UNL     1      25.700   1.958  52.272  1.00  0.00     0.076 A 
HETATM   15  C13 UNL     1      26.893   2.442  51.664  1.00  0.00     0.014 A 
HETATM   16  C14 UNL     1      26.787   1.835  52.720  1.00  0.00    -0.012 A 
HETATM   17  C15 UNL     1      28.143   2.151  53.188  1.00  0.00     0.017 C 
HETATM   18  C16 UNL     1      28.829   1.245  54.068  1.00  0.00    -0.004 C 
HETATM   19  C17 UNL     1      28.760   0.235  54.829  1.00  0.00     0.006 C 
HETATM   20  C18 UNL     1      27.388   0.055  54.617  1.00  0.00     0.055 C 
HETATM   21  H6  UNL     1      22.704   1.676  50.931  1.00  0.00     0.159 HD
ENDROOT
BRANCH   1  22
HETATM   22  C1  UNL     1      26.177   3.784  49.416  1.00  0.00     0.120 C 
HETATM   23 CL1  UNL     1      27.520   4.718  48.688  1.00  0.00    -0.130 Cl
ENDBRANCH   1  22
TORSDOF 1
ENDMDL
MODEL 3
REMARK VINA RESULT:      -9.6      2.811      5.302
REMARK  1 active torsions:
REMARK  status: ('A' for Active; 'I' for Inactive)
REMARK    1  A    between atoms: C1_2  and  C2_3 
ROOT
HETATM    1  C2  UNL     1      27.999   1.225  53.492  1.00  0.00     0.016 A 
HETATM    2  C3  UNL     1      26.766   0.739  53.143  1.00  0.00    -0.009 A 
HETATM    3  C4  UNL     1      26.460  -0.678  53.700  1.00  0.00     0.119 A 
HETATM    4  N1  UNL     1      25.291  -0.816  54.490  1.00  0.00    -0.390 N 
HETATM    5  C5  UNL     1      23.913  -0.572  54.065  1.00  0.00     0.040 A 
HETATM    6  C6  UNL     1      22.912  -1.175  54.774  1.00  0.00     0.049 A 
HETATM    7  C7  UNL     1      21.573  -0.923  54.536  1.00  0.00     0.122 A 
HETATM    8  N2  UNL     1      21.353  -0.031  53.553  1.00  0.00    -0.236 NA
HETATM    9  C8  UNL     1      22.278   0.570  52.852  1.00  0.00     0.178 A 
HETATM   10  O1  UNL     1      22.448   1.446  51.898  1.00  0.00    -0.299 OA
HETATM   11  C9  UNL     1      23.673   1.624  51.662  1.00  0.00     0.048 A 
HETATM   12  C10 UNL     1      24.686   0.876  52.416  1.00  0.00     0.028 A 
HETATM   13  C11 UNL     1      23.574   0.350  53.035  1.00  0.00     0.032 A 
HETATM   14  C12 UNL     1      25.992   0.691  52.841  1.00  0.00     0.076 A 
HETATM   15  C13 UNL     1      27.149   1.475  52.564  1.00  0.00     0.014 A 
HETATM   16  C14 UNL     1      26.077   1.491  51.976  1.00  0.00    -0.012 A 
HETATM   17  C15 UNL     1      26.579   2.238  50.814  1.00  0.00     0.017 C 
HETATM   18  C16 UNL     1      25.691   3.084  50.065  1.00  0.00    -0.004 C 
HETATM   19  C17 UNL     1      24.499   3.439  49.826  1.00  0.00     0.006 C 
HETATM   20  C18 UNL     1      23.950   2.538  50.747  1.00  0.00     0.055 C 
HETATM   21  H6  UNL     1      25.360  -1.126  55.516  1.00  0.00     0.159 HD
ENDROOT
BRANCH   1  22
HETATM   22  C1  UNL     1      29.101   0.683  54.275  1.00  0.00     0.120 C 
HETATM   23 CL1  UNL     1      30.101  -0.537  53.428  1.00  0.00    -0.130 Cl
ENDBRANCH   1  22
TORSDOF 1
ENDMDL
MODEL 4
REMARK VINA RESULT:      -9.4      2.610      4.619
REMARK  1 active torsions:
REMARK  status: ('A' for Active; 'I' for Inactive)
REMARK    1  A    between atoms: C1_2  and  C2_3 
ROOT
HETATM    1  C2  UNL     1      27.452  -0.176  54.234  1.00  0.00     0.016 A 
HETATM    2  C3  UNL     1      26.548   0.687  53.672  1.00  0.00    -0.009 A 
HETATM    3  C4  UNL     1      27.112   2.108  53.398  1.00  0.00     0.119 A 
HETATM    4  N1  UNL     1      27.029   2.582  52.064  1.00  0.00    -0.390 N 
HETATM    5  C5  UNL     1      25.810   2.803  51.287  1.00  0.00     0.040 A 
HETATM    6  C6  UNL     1      25.877   3.667  50.230  1.00  0.00     0.049 A 
HETATM    7  C7  UNL     1      24.821   3.861  49.358  1.00  0.00     0.122 A 
HETATM    8  N2  UNL     1      23.735   3.120  49.643  1.00  0.00    -0.236 NA
HETATM    9  C8  UNL     1      23.628   2.283  50.640  1.00  0.00     0.178 A 
HETATM   10  O1  UNL     1      22.806   1.431  51.194  1.00  0.00    -0.299 OA
HETATM   11  C9  UNL     1      23.333   0.882  52.198  1.00  0.00     0.048 A 
HETATM   12  C10 UNL     1      24.697   1.243  52.606  1.00  0.00     0.028 A 
HETATM   13  C11 UNL     1      24.609   2.073  51.510  1.00  0.00     0.032 A 
HETATM   14  C12 UNL     1      25.858   0.990  53.318  1.00  0.00     0.076 A 
HETATM   15  C13 UNL     1      26.172  -0.111  54.166  1.00  0.00     0.014 A 
HETATM   16  C14 UNL     1      25.069   0.234  53.768  1.00  0.00    -0.012 A 
HETATM   17  C15 UNL     1      24.322  -0.592  54.726  1.00  0.00     0.017 C 
HETATM   18  C16 UNL     1      23.015  -1.086  54.385  1.00  0.00    -0.004 C 
HETATM   19  C17 UNL     1      22.025  -1.036  53.597  1.00  0.00     0.006 C 
HETATM   20  C18 UNL     1      22.597  -0.040  52.796  1.00  0.00     0.055 C 
HETATM   21  H6  UNL     1      27.921   2.818  51.513  1.00  0.00     0.159 HD
ENDROOT
BRANCH   1  22
HETATM   22  C1  UNL     1      28.843  -0.039  54.642  1.00  0.00     0.120 C 
HETATM   23 CL1  UNL     1      30.026  -0.857  53.575  1.00  0.00    -0.130 Cl
ENDBRANCH   1  22
TORSDOF 1
ENDMDL
MODEL 5
REMARK VINA RESULT:      -9.1      2.839      4.889
REMARK  1 active torsions:
REMARK  status: ('A' for Active; 'I' for Inactive)
REMARK    1  A    between atoms: C1_2  and  C2_3 
ROOT
HETATM    1  C2  UNL     1      25.833  -0.220  52.813  1.00  0.00     0.016 A 
HETATM    2  C3  UNL     1      24.889   0.754  53.009  1.00  0.00    -0.009 A 
HETATM    3  C4  UNL     1      25.474   2.184  53.161  1.00  0.00     0.119 A 
HETATM    4  N1  UNL     1      24.998   3.170  52.260  1.00  0.00    -0.390 N 
HETATM    5  C5  UNL     1      23.619   3.637  52.121  1.00  0.00     0.040 A 
HETATM    6  C6  UNL     1      23.417   4.866  51.561  1.00  0.00     0.049 A 
HETATM    7  C7  UNL     1      22.155   5.356  51.274  1.00  0.00     0.122 A 
HETATM    8  N2  UNL     1      21.157   4.513  51.591  1.00  0.00    -0.236 NA
HETATM    9  C8  UNL     1      21.305   3.329  52.126  1.00  0.00     0.178 A 
HETATM   10  O1  UNL     1      20.632   2.285  52.532  1.00  0.00    -0.299 OA
HETATM   11  C9  UNL     1      21.405   1.392  52.970  1.00  0.00     0.048 A 
HETATM   12  C10 UNL     1      22.857   1.615  52.985  1.00  0.00     0.028 A 
HETATM   13  C11 UNL     1      22.493   2.822  52.430  1.00  0.00     0.032 A 
HETATM   14  C12 UNL     1      24.157   1.143  53.075  1.00  0.00     0.076 A 
HETATM   15  C13 UNL     1      24.619  -0.195  53.230  1.00  0.00     0.014 A 
HETATM   16  C14 UNL     1      23.490   0.231  53.421  1.00  0.00    -0.012 A 
HETATM   17  C15 UNL     1      23.026  -0.956  54.152  1.00  0.00     0.017 C 
HETATM   18  C16 UNL     1      21.637  -1.324  54.119  1.00  0.00    -0.004 C 
HETATM   19  C17 UNL     1      20.450  -0.997  53.822  1.00  0.00     0.006 C 
HETATM   20  C18 UNL     1      20.820   0.270  53.354  1.00  0.00     0.055 C 
HETATM   21  H6  UNL     1      25.672   3.658  51.580  1.00  0.00     0.159 HD
ENDROOT
BRANCH   1  22
HETATM   22  C1  UNL     1      27.286  -0.200  52.726  1.00  0.00     0.120 C 
HETATM   23 CL1  UNL     1      28.136  -0.151  54.301  1.00  0.00    -0.130 Cl
ENDBRANCH   1  22
TORSDOF 1
ENDMDL
MODEL 6
REMARK VINA RESULT:      -9.1      2.879      4.868
REMARK  1 active torsions:
REMARK  status: ('A' for Active; 'I' for Inactive)
REMARK    1  A    between atoms: C1_2  and  C2_3 
ROOT
HETATM    1  C2  UNL     1      22.567   0.297  53.674  1.00  0.00     0.016 A 
HETATM    2  C3  UNL     1      23.337   0.765  52.642  1.00  0.00    -0.009 A 
HETATM    3  C4  UNL     1      22.528   1.179  51.382  1.00  0.00     0.119 A 
HETATM    4  N1  UNL     1      22.701   2.508  50.919  1.00  0.00    -0.390 N 
HETATM    5  C5  UNL     1      23.945   3.116  50.448  1.00  0.00     0.040 A 
HETATM    6  C6  UNL     1      23.850   4.209  49.633  1.00  0.00     0.049 A 
HETATM    7  C7  UNL     1      24.956   4.933  49.225  1.00  0.00     0.122 A 
HETATM    8  N2  UNL     1      26.122   4.466  49.706  1.00  0.00    -0.236 NA
HETATM    9  C8  UNL     1      26.259   3.426  50.487  1.00  0.00     0.178 A 
HETATM   10  O1  UNL     1      27.154   2.726  51.131  1.00  0.00    -0.299 OA
HETATM   11  C9  UNL     1      26.616   1.782  51.768  1.00  0.00     0.048 A 
HETATM   12  C10 UNL     1      25.162   1.585  51.709  1.00  0.00     0.028 A 
HETATM   13  C11 UNL     1      25.229   2.695  50.895  1.00  0.00     0.032 A 
HETATM   14  C12 UNL     1      23.990   1.032  52.201  1.00  0.00     0.076 A 
HETATM   15  C13 UNL     1      23.799   0.188  53.332  1.00  0.00     0.014 A 
HETATM   16  C14 UNL     1      24.848   0.442  52.759  1.00  0.00    -0.012 A 
HETATM   17  C15 UNL     1      25.607  -0.647  53.389  1.00  0.00     0.017 C 
HETATM   18  C16 UNL     1      27.024  -0.514  53.590  1.00  0.00    -0.004 C 
HETATM   19  C17 UNL     1      28.085   0.128  53.335  1.00  0.00     0.006 C 
HETATM   20  C18 UNL     1      27.437   1.046  52.500  1.00  0.00     0.055 C 
HETATM   21  H6  UNL     1      21.870   3.188  50.891  1.00  0.00     0.159 HD
ENDROOT
BRANCH   1  22
HETATM   22  C1  UNL     1      21.134   0.095  53.840  1.00  0.00     0.120 C 
HETATM   23 CL1  UNL     1      20.642  -1.598  54.151  1.00  0.00    -0.130 Cl
ENDBRANCH   1  22
TORSDOF 1
ENDMDL
MODEL 7
REMARK VINA RESULT:      -9.1      2.168      4.039
REMARK  1 active torsions:
REMARK  status: ('A' for Active; 'I' for Inactive)
REMARK    1  A    between atoms: C1_2  and  C2_3 
ROOT
HETATM    1  C2  UNL     1      22.108   1.042  50.774  1.00  0.00     0.016 A 
HETATM    2  C3  UNL     1      23.185   1.409  51.537  1.00  0.00    -0.009 A 
HETATM    3  C4  UNL     1      23.063   1.025  53.037  1.00  0.00     0.119 A 
HETATM    4  N1  UNL     1      24.098   0.222  53.578  1.00  0.00    -0.390 N 
HETATM    5  C5  UNL     1      25.516   0.568  53.676  1.00  0.00     0.040 A 
HETATM    6  C6  UNL     1      26.269  -0.091  54.605  1.00  0.00     0.049 A 
HETATM    7  C7  UNL     1      27.640   0.070  54.705  1.00  0.00     0.122 A 
HETATM    8  N2  UNL     1      28.155   0.926  53.803  1.00  0.00    -0.236 NA
HETATM    9  C8  UNL     1      27.473   1.576  52.898  1.00  0.00     0.178 A 
HETATM   10  O1  UNL     1      27.606   2.417  51.907  1.00  0.00    -0.299 OA
HETATM   11  C9  UNL     1      26.492   2.668  51.375  1.00  0.00     0.048 A 
HETATM   12  C10 UNL     1      25.268   2.046  51.896  1.00  0.00     0.028 A 
HETATM   13  C11 UNL     1      26.156   1.463  52.772  1.00  0.00     0.032 A 
HETATM   14  C12 UNL     1      23.936   1.690  51.762  1.00  0.00     0.076 A 
HETATM   15  C13 UNL     1      23.053   1.903  50.665  1.00  0.00     0.014 A 
HETATM   16  C14 UNL     1      24.125   2.450  50.877  1.00  0.00    -0.012 A 
HETATM   17  C15 UNL     1      23.919   3.524  49.896  1.00  0.00     0.017 C 
HETATM   18  C16 UNL     1      25.048   4.133  49.248  1.00  0.00    -0.004 C 
HETATM   19  C17 UNL     1      26.304   4.287  49.209  1.00  0.00     0.006 C 
HETATM   20  C18 UNL     1      26.531   3.469  50.323  1.00  0.00     0.055 C 
HETATM   21  H6  UNL     1      23.882  -0.755  53.970  1.00  0.00     0.159 HD
ENDROOT
BRANCH   1  22
HETATM   22  C1  UNL     1      20.853   0.368  51.077  1.00  0.00     0.120 C 
HETATM   23 CL1  UNL     1      19.582   1.419  51.776  1.00  0.00    -0.130 Cl
ENDBRANCH   1  22
TORSDOF 1
ENDMDL
MODEL 8
REMARK VINA RESULT:      -8.6      3.565      5.781
REMARK  1 active torsions:
REMARK  status: ('A' for Active; 'I' for Inactive)
REMARK    1  A    between atoms: C1_2  and  C2_3 
ROOT
HETATM    1  C2  UNL     1      23.734  -0.547  53.497  1.00  0.00     0.016 A 
HETATM    2  C3  UNL     1      22.976   0.292  52.723  1.00  0.00    -0.009 A 
HETATM    3  C4  UNL     1      23.730   1.559  52.233  1.00  0.00     0.119 A 
HETATM    4  N1  UNL     1      23.773   1.776  50.833  1.00  0.00    -0.390 N 
HETATM    5  C5  UNL     1      22.631   1.984  49.943  1.00  0.00     0.040 A 
HETATM    6  C6  UNL     1      22.858   2.617  48.753  1.00  0.00     0.049 A 
HETATM    7  C7  UNL     1      21.879   2.762  47.787  1.00  0.00     0.122 A 
HETATM    8  N2  UNL     1      20.695   2.221  48.125  1.00  0.00    -0.236 NA
HETATM    9  C8  UNL     1      20.434   1.608  49.249  1.00  0.00     0.178 A 
HETATM   10  O1  UNL     1      19.484   0.979  49.890  1.00  0.00    -0.299 OA
HETATM   11  C9  UNL     1      19.888   0.575  51.012  1.00  0.00     0.048 A 
HETATM   12  C10 UNL     1      21.265   0.846  51.443  1.00  0.00     0.028 A 
HETATM   13  C11 UNL     1      21.337   1.455  50.210  1.00  0.00     0.032 A 
HETATM   14  C12 UNL     1      22.349   0.599  52.271  1.00  0.00     0.076 A 
HETATM   15  C13 UNL     1      22.478  -0.348  53.327  1.00  0.00     0.014 A 
HETATM   16  C14 UNL     1      21.448   0.041  52.795  1.00  0.00    -0.012 A 
HETATM   17  C15 UNL     1      20.557  -0.494  53.832  1.00  0.00     0.017 C 
HETATM   18  C16 UNL     1      19.216  -0.888  53.495  1.00  0.00    -0.004 C 
HETATM   19  C17 UNL     1      18.279  -0.874  52.643  1.00  0.00     0.006 C 
HETATM   20  C18 UNL     1      19.011  -0.124  51.715  1.00  0.00     0.055 C 
HETATM   21  H6  UNL     1      24.713   1.796  50.313  1.00  0.00     0.159 HD
ENDROOT
BRANCH   1  22
HETATM   22  C1  UNL     1      25.110  -0.498  53.971  1.00  0.00     0.120 C 
HETATM   23 CL1  UNL     1      26.340  -1.002  52.771  1.00  0.00    -0.130 Cl
ENDBRANCH   1  22
TORSDOF 1
ENDMDL
MODEL 9
REMARK VINA RESULT:      -8.6      1.747      2.537
REMARK  1 active torsions:
REMARK  status: ('A' for Active; 'I' for Inactive)
REMARK    1  A    between atoms: C1_2  and  C2_3 
ROOT
HETATM    1  C2  UNL     1      24.755   4.579  49.855  1.00  0.00     0.016 A 
HETATM    2  C3  UNL     1      25.023   3.378  50.458  1.00  0.00    -0.009 A 
HETATM    3  C4  UNL     1      26.536   3.049  50.572  1.00  0.00     0.119 A 
HETATM    4  N1  UNL     1      27.037   2.786  51.872  1.00  0.00    -0.390 N 
HETATM    5  C5  UNL     1      26.628   1.703  52.767  1.00  0.00     0.040 A 
HETATM    6  C6  UNL     1      27.499   1.327  53.749  1.00  0.00     0.049 A 
HETATM    7  C7  UNL     1      27.171   0.398  54.721  1.00  0.00     0.122 A 
HETATM    8  N2  UNL     1      25.921  -0.088  54.611  1.00  0.00    -0.236 NA
HETATM    9  C8  UNL     1      25.056   0.245  53.689  1.00  0.00     0.178 A 
HETATM   10  O1  UNL     1      23.831   0.024  53.290  1.00  0.00    -0.299 OA
HETATM   11  C9  UNL     1      23.558   0.712  52.271  1.00  0.00     0.048 A 
HETATM   12  C10 UNL     1      24.569   1.603  51.688  1.00  0.00     0.028 A 
HETATM   13  C11 UNL     1      25.330   1.121  52.730  1.00  0.00     0.032 A 
HETATM   14  C12 UNL     1      24.927   2.660  50.867  1.00  0.00     0.076 A 
HETATM   15  C13 UNL     1      24.099   3.496  50.063  1.00  0.00     0.014 A 
HETATM   16  C14 UNL     1      23.812   2.416  50.560  1.00  0.00    -0.012 A 
HETATM   17  C15 UNL     1      22.602   2.219  49.750  1.00  0.00     0.017 C 
HETATM   18  C16 UNL     1      21.506   1.447  50.270  1.00  0.00    -0.004 C 
HETATM   19  C17 UNL     1      21.087   0.651  51.159  1.00  0.00     0.006 C 
HETATM   20  C18 UNL     1      22.318   0.598  51.823  1.00  0.00     0.055 C 
HETATM   21  H6  UNL     1      27.796   3.415  52.301  1.00  0.00     0.159 HD
ENDROOT
BRANCH   1  22
HETATM   22  C1  UNL     1      25.597   5.620  49.284  1.00  0.00     0.120 C 
HETATM   23 CL1  UNL     1      25.720   7.114  50.263  1.00  0.00    -0.130 Cl
ENDBRANCH   1  22
TORSDOF 1
ENDMDL
