MODEL 1
REMARK VINA RESULT:      -8.1      0.000      0.000
REMARK  1 active torsions:
REMARK  status: ('A' for Active; 'I' for Inactive)
REMARK    1  A    between atoms: C14_19  and  C15_20 
ROOT
HETATM    1  C1  UNL     1      24.435   2.484  49.919  1.00  0.00     0.042 C 
HETATM    2  C2  UNL     1      24.147   3.265  50.922  1.00  0.00    -0.043 A 
HETATM    3  C3  UNL     1      23.634   4.578  50.546  1.00  0.00     0.006 A 
HETATM    4  C4  UNL     1      23.300   5.438  51.498  1.00  0.00     0.000 A 
HETATM    5  C5  UNL     1      23.450   5.059  52.895  1.00  0.00    -0.001 A 
HETATM    6  C6  UNL     1      23.912   3.884  53.169  1.00  0.00     0.013 A 
HETATM    7  C7  UNL     1      24.362   2.736  52.278  1.00  0.00     0.099 A 
HETATM    8  N1  UNL     1      25.668   2.510  52.693  1.00  0.00    -0.379 N 
HETATM    9  C8  UNL     1      26.653   1.884  51.941  1.00  0.00     0.218 C 
HETATM   10  C9  UNL     1      26.911   0.442  52.337  1.00  0.00     0.165 C 
HETATM   11  N2  UNL     1      26.774   0.467  53.796  1.00  0.00    -0.198 NA
HETATM   12  N3  UNL     1      27.616   1.405  54.297  1.00  0.00    -0.311 N 
HETATM   13  C10 UNL     1      28.468   2.246  53.477  1.00  0.00     0.214 C 
HETATM   14  N4  UNL     1      27.921   2.557  52.321  1.00  0.00    -0.257 NA
HETATM   15  C11 UNL     1      25.411   0.435  54.198  1.00  0.00     0.217 C 
HETATM   16  C12 UNL     1      25.173  -0.969  54.764  1.00  0.00     0.059 C 
HETATM   17  O1  UNL     1      24.647   0.633  53.025  1.00  0.00    -0.341 OA
HETATM   18  C13 UNL     1      23.295   0.447  53.027  1.00  0.00     0.147 C 
HETATM   19  C14 UNL     1      23.397   1.658  52.607  1.00  0.00     0.002 C 
HETATM   20  H7  UNL     1      26.020   2.994  53.540  1.00  0.00     0.157 HD
HETATM   21  H11 UNL     1      27.655   1.536  55.348  1.00  0.00     0.181 HD
ENDROOT
BRANCH  19  22
HETATM   22  C15 UNL     1      21.952   1.743  52.499  1.00  0.00     0.049 C 
HETATM   23  C16 UNL     1      21.020   1.479  51.612  1.00  0.00     0.090 C 
HETATM   24  C17 UNL     1      21.038   0.945  50.249  1.00  0.00     0.082 C 
HETATM   25  F1  UNL     1      19.743   1.772  52.075  1.00  0.00    -0.211 F 
ENDBRANCH  19  22
TORSDOF 1
ENDMDL
MODEL 2
REMARK VINA RESULT:      -7.3      3.168      5.083
REMARK  1 active torsions:
REMARK  status: ('A' for Active; 'I' for Inactive)
REMARK    1  A    between atoms: C14_19  and  C15_20 
ROOT
HETATM    1  C1  UNL     1      20.609   3.380  52.245  1.00  0.00     0.042 C 
HETATM    2  C2  UNL     1      20.832   2.592  51.231  1.00  0.00    -0.043 A 
HETATM    3  C3  UNL     1      20.223   3.023  49.976  1.00  0.00     0.006 A 
HETATM    4  C4  UNL     1      20.405   2.292  48.885  1.00  0.00     0.000 A 
HETATM    5  C5  UNL     1      21.206   1.079  48.957  1.00  0.00    -0.001 A 
HETATM    6  C6  UNL     1      21.719   0.745  50.094  1.00  0.00     0.013 A 
HETATM    7  C7  UNL     1      21.658   1.397  51.468  1.00  0.00     0.099 A 
HETATM    8  N1  UNL     1      21.137   0.390  52.270  1.00  0.00    -0.379 N 
HETATM    9  C8  UNL     1      20.491   0.584  53.484  1.00  0.00     0.218 C 
HETATM   10  C9  UNL     1      21.350   0.284  54.697  1.00  0.00     0.165 C 
HETATM   11  N2  UNL     1      22.135  -0.878  54.272  1.00  0.00    -0.198 NA
HETATM   12  N3  UNL     1      21.284  -1.852  53.863  1.00  0.00    -0.311 N 
HETATM   13  C10 UNL     1      19.841  -1.705  53.837  1.00  0.00     0.214 C 
HETATM   14  N4  UNL     1      19.456  -0.480  53.548  1.00  0.00    -0.257 NA
HETATM   15  C11 UNL     1      23.240  -0.501  53.461  1.00  0.00     0.217 C 
HETATM   16  C12 UNL     1      24.485  -0.689  54.335  1.00  0.00     0.059 C 
HETATM   17  O1  UNL     1      23.054   0.866  53.150  1.00  0.00    -0.341 OA
HETATM   18  C13 UNL     1      24.047   1.593  52.559  1.00  0.00     0.147 C 
HETATM   19  C14 UNL     1      23.073   1.752  51.734  1.00  0.00     0.002 C 
HETATM   20  H7  UNL     1      21.038  -0.566  51.881  1.00  0.00     0.157 HD
HETATM   21  H11 UNL     1      21.694  -2.775  53.541  1.00  0.00     0.181 HD
ENDROOT
BRANCH  19  22
HETATM   22  C15 UNL     1      23.916   2.588  50.900  1.00  0.00     0.049 C 
HETATM   23  C16 UNL     1      24.187   3.865  50.752  1.00  0.00     0.090 C 
HETATM   24  C17 UNL     1      23.722   5.084  51.415  1.00  0.00     0.082 C 
HETATM   25  F1  UNL     1      25.118   4.101  49.748  1.00  0.00    -0.211 F 
ENDBRANCH  19  22
TORSDOF 1
ENDMDL
MODEL 3
REMARK VINA RESULT:      -7.1      2.331      4.155
REMARK  1 active torsions:
REMARK  status: ('A' for Active; 'I' for Inactive)
REMARK    1  A    between atoms: C14_19  and  C15_20 
ROOT
HETATM    1  C1  UNL     1      21.536   0.927  48.990  1.00  0.00     0.042 C 
HETATM    2  C2  UNL     1      20.866   1.486  49.958  1.00  0.00    -0.043 A 
HETATM    3  C3  UNL     1      19.416   1.458  49.795  1.00  0.00     0.006 A 
HETATM    4  C4  UNL     1      18.649   1.990  50.736  1.00  0.00     0.000 A 
HETATM    5  C5  UNL     1      19.264   2.591  51.911  1.00  0.00    -0.001 A 
HETATM    6  C6  UNL     1      20.552   2.590  52.001  1.00  0.00     0.013 A 
HETATM    7  C7  UNL     1      21.636   2.057  51.075  1.00  0.00     0.099 A 
HETATM    8  N1  UNL     1      22.416   3.179  50.826  1.00  0.00    -0.379 N 
HETATM    9  C8  UNL     1      23.257   3.345  49.734  1.00  0.00     0.218 C 
HETATM   10  C9  UNL     1      24.726   3.130  50.045  1.00  0.00     0.165 C 
HETATM   11  N2  UNL     1      24.871   3.702  51.387  1.00  0.00    -0.198 NA
HETATM   12  N3  UNL     1      24.426   4.983  51.365  1.00  0.00    -0.311 N 
HETATM   13  C10 UNL     1      23.873   5.626  50.187  1.00  0.00     0.214 C 
HETATM   14  N4  UNL     1      23.201   4.796  49.418  1.00  0.00    -0.257 NA
HETATM   15  C11 UNL     1      24.426   2.803  52.394  1.00  0.00     0.217 C 
HETATM   16  C12 UNL     1      25.692   2.292  53.089  1.00  0.00     0.059 C 
HETATM   17  O1  UNL     1      23.769   1.748  51.720  1.00  0.00    -0.341 OA
HETATM   18  C13 UNL     1      23.407   0.610  52.382  1.00  0.00     0.147 C 
HETATM   19  C14 UNL     1      22.284   1.001  51.891  1.00  0.00     0.002 C 
HETATM   20  H7  UNL     1      22.244   4.045  51.369  1.00  0.00     0.157 HD
HETATM   21  H11 UNL     1      24.482   5.551  52.258  1.00  0.00     0.181 HD
ENDROOT
BRANCH  19  22
HETATM   22  C15 UNL     1      21.624  -0.147  52.484  1.00  0.00     0.049 C 
HETATM   23  C16 UNL     1      21.066  -0.472  53.629  1.00  0.00     0.090 C 
HETATM   24  C17 UNL     1      20.854   0.238  54.891  1.00  0.00     0.082 C 
HETATM   25  F1  UNL     1      20.573  -1.770  53.633  1.00  0.00    -0.211 F 
ENDBRANCH  19  22
TORSDOF 1
ENDMDL
MODEL 4
REMARK VINA RESULT:      -7.1      3.150      5.098
REMARK  1 active torsions:
REMARK  status: ('A' for Active; 'I' for Inactive)
REMARK    1  A    between atoms: C14_19  and  C15_20 
ROOT
HETATM    1  C1  UNL     1      23.048   4.734  52.794  1.00  0.00     0.042 C 
HETATM    2  C2  UNL     1      23.503   4.207  51.693  1.00  0.00    -0.043 A 
HETATM    3  C3  UNL     1      24.193   5.141  50.807  1.00  0.00     0.006 A 
HETATM    4  C4  UNL     1      24.703   4.694  49.668  1.00  0.00     0.000 A 
HETATM    5  C5  UNL     1      24.568   3.287  49.322  1.00  0.00    -0.001 A 
HETATM    6  C6  UNL     1      23.945   2.507  50.142  1.00  0.00     0.013 A 
HETATM    7  C7  UNL     1      23.279   2.768  51.485  1.00  0.00     0.099 A 
HETATM    8  N1  UNL     1      21.977   2.331  51.279  1.00  0.00    -0.379 N 
HETATM    9  C8  UNL     1      20.871   2.729  52.018  1.00  0.00     0.218 C 
HETATM   10  C9  UNL     1      20.414   1.710  53.045  1.00  0.00     0.165 C 
HETATM   11  N2  UNL     1      20.628   0.430  52.365  1.00  0.00    -0.198 NA
HETATM   12  N3  UNL     1      19.966   0.451  51.180  1.00  0.00    -0.311 N 
HETATM   13  C10 UNL     1      19.213   1.593  50.696  1.00  0.00     0.214 C 
HETATM   14  N4  UNL     1      19.742   2.744  51.052  1.00  0.00    -0.257 NA
HETATM   15  C11 UNL     1      21.988   0.022  52.422  1.00  0.00     0.217 C 
HETATM   16  C12 UNL     1      22.035  -1.142  53.417  1.00  0.00     0.059 C 
HETATM   17  O1  UNL     1      22.712   1.130  52.920  1.00  0.00    -0.341 OA
HETATM   18  C13 UNL     1      24.018   1.003  53.296  1.00  0.00     0.147 C 
HETATM   19  C14 UNL     1      24.083   1.946  52.423  1.00  0.00     0.002 C 
HETATM   20  H7  UNL     1      21.746   1.820  50.407  1.00  0.00     0.157 HD
HETATM   21  H11 UNL     1      20.001  -0.415  50.569  1.00  0.00     0.181 HD
ENDROOT
BRANCH  19  22
HETATM   22  C15 UNL     1      25.516   2.040  52.630  1.00  0.00     0.049 C 
HETATM   23  C16 UNL     1      26.582   1.294  52.450  1.00  0.00     0.090 C 
HETATM   24  C17 UNL     1      26.799  -0.055  51.924  1.00  0.00     0.082 C 
HETATM   25  F1  UNL     1      27.752   1.929  52.848  1.00  0.00    -0.211 F 
ENDBRANCH  19  22
TORSDOF 1
ENDMDL
MODEL 5
REMARK VINA RESULT:      -7.1      3.321      5.471
REMARK  1 active torsions:
REMARK  status: ('A' for Active; 'I' for Inactive)
REMARK    1  A    between atoms: C14_19  and  C15_20 
ROOT
HETATM    1  C1  UNL     1      22.949   5.765  51.338  1.00  0.00     0.042 C 
HETATM    2  C2  UNL     1      23.818   5.028  50.706  1.00  0.00    -0.043 A 
HETATM    3  C3  UNL     1      25.031   5.730  50.297  1.00  0.00     0.006 A 
HETATM    4  C4  UNL     1      25.981   5.060  49.659  1.00  0.00     0.000 A 
HETATM    5  C5  UNL     1      25.799   3.643  49.379  1.00  0.00    -0.001 A 
HETATM    6  C6  UNL     1      24.704   3.075  49.762  1.00  0.00     0.013 A 
HETATM    7  C7  UNL     1      23.482   3.611  50.494  1.00  0.00     0.099 A 
HETATM    8  N1  UNL     1      22.440   3.309  49.627  1.00  0.00    -0.379 N 
HETATM    9  C8  UNL     1      21.204   3.942  49.606  1.00  0.00     0.218 C 
HETATM   10  C9  UNL     1      20.091   3.150  50.267  1.00  0.00     0.165 C 
HETATM   11  N2  UNL     1      20.399   1.767  49.895  1.00  0.00    -0.198 NA
HETATM   12  N3  UNL     1      20.493   1.689  48.544  1.00  0.00    -0.311 N 
HETATM   13  C10 UNL     1      20.340   2.828  47.657  1.00  0.00     0.214 C 
HETATM   14  N4  UNL     1      20.794   3.948  48.178  1.00  0.00    -0.257 NA
HETATM   15  C11 UNL     1      21.415   1.212  50.720  1.00  0.00     0.217 C 
HETATM   16  C12 UNL     1      20.708   0.212  51.640  1.00  0.00     0.059 C 
HETATM   17  O1  UNL     1      21.947   2.286  51.469  1.00  0.00    -0.341 OA
HETATM   18  C13 UNL     1      22.799   2.061  52.512  1.00  0.00     0.147 C 
HETATM   19  C14 UNL     1      23.492   2.848  51.766  1.00  0.00     0.002 C 
HETATM   20  H7  UNL     1      22.624   2.704  48.805  1.00  0.00     0.157 HD
HETATM   21  H11 UNL     1      20.691   0.744  48.106  1.00  0.00     0.181 HD
ENDROOT
BRANCH  19  22
HETATM   22  C15 UNL     1      24.579   2.800  52.725  1.00  0.00     0.049 C 
HETATM   23  C16 UNL     1      25.658   2.083  52.947  1.00  0.00     0.090 C 
HETATM   24  C17 UNL     1      26.273   0.941  52.270  1.00  0.00     0.082 C 
HETATM   25  F1  UNL     1      26.362   2.509  54.067  1.00  0.00    -0.211 F 
ENDBRANCH  19  22
TORSDOF 1
ENDMDL
MODEL 6
REMARK VINA RESULT:      -7.0      3.566      6.028
REMARK  1 active torsions:
REMARK  status: ('A' for Active; 'I' for Inactive)
REMARK    1  A    between atoms: C14_19  and  C15_20 
ROOT
HETATM    1  C1  UNL     1      22.626   2.516  48.399  1.00  0.00     0.042 C 
HETATM    2  C2  UNL     1      22.564   2.404  49.696  1.00  0.00    -0.043 A 
HETATM    3  C3  UNL     1      21.947   1.170  50.174  1.00  0.00     0.006 A 
HETATM    4  C4  UNL     1      21.850   0.961  51.479  1.00  0.00     0.000 A 
HETATM    5  C5  UNL     1      22.359   1.959  52.409  1.00  0.00    -0.001 A 
HETATM    6  C6  UNL     1      22.893   3.032  51.928  1.00  0.00     0.013 A 
HETATM    7  C7  UNL     1      23.117   3.505  50.499  1.00  0.00     0.099 A 
HETATM    8  N1  UNL     1      22.463   4.730  50.469  1.00  0.00    -0.379 N 
HETATM    9  C8  UNL     1      22.001   5.365  49.323  1.00  0.00     0.218 C 
HETATM   10  C9  UNL     1      22.886   6.501  48.845  1.00  0.00     0.165 C 
HETATM   11  N2  UNL     1      23.342   7.118  50.094  1.00  0.00    -0.198 NA
HETATM   12  N3  UNL     1      22.256   7.452  50.835  1.00  0.00    -0.311 N 
HETATM   13  C10 UNL     1      20.888   7.188  50.429  1.00  0.00     0.214 C 
HETATM   14  N4  UNL     1      20.764   6.072  49.742  1.00  0.00    -0.257 NA
HETATM   15  C11 UNL     1      24.418   6.396  50.678  1.00  0.00     0.217 C 
HETATM   16  C12 UNL     1      25.667   7.255  50.457  1.00  0.00     0.059 C 
HETATM   17  O1  UNL     1      24.516   5.182  49.959  1.00  0.00    -0.341 OA
HETATM   18  C13 UNL     1      25.585   4.350  50.130  1.00  0.00     0.147 C 
HETATM   19  C14 UNL     1      24.595   3.572  50.397  1.00  0.00     0.002 C 
HETATM   20  H7  UNL     1      22.112   5.139  51.354  1.00  0.00     0.157 HD
HETATM   21  H11 UNL     1      22.412   7.933  51.767  1.00  0.00     0.181 HD
ENDROOT
BRANCH  19  22
HETATM   22  C15 UNL     1      25.519   2.479  50.636  1.00  0.00     0.049 C 
HETATM   23  C16 UNL     1      26.098   1.894  51.660  1.00  0.00     0.090 C 
HETATM   24  C17 UNL     1      26.057   2.108  53.107  1.00  0.00     0.082 C 
HETATM   25  F1  UNL     1      26.926   0.846  51.278  1.00  0.00    -0.211 F 
ENDBRANCH  19  22
TORSDOF 1
ENDMDL
MODEL 7
REMARK VINA RESULT:      -6.9      2.963      5.236
REMARK  1 active torsions:
REMARK  status: ('A' for Active; 'I' for Inactive)
REMARK    1  A    between atoms: C14_19  and  C15_20 
ROOT
HETATM    1  C1  UNL     1      23.249   4.411  53.070  1.00  0.00     0.042 C 
HETATM    2  C2  UNL     1      24.153   3.651  52.518  1.00  0.00    -0.043 A 
HETATM    3  C3  UNL     1      24.940   2.857  53.457  1.00  0.00     0.006 A 
HETATM    4  C4  UNL     1      25.875   2.043  52.989  1.00  0.00     0.000 A 
HETATM    5  C5  UNL     1      26.100   1.954  51.554  1.00  0.00    -0.001 A 
HETATM    6  C6  UNL     1      25.375   2.681  50.771  1.00  0.00     0.013 A 
HETATM    7  C7  UNL     1      24.261   3.679  51.051  1.00  0.00     0.099 A 
HETATM    8  N1  UNL     1      24.723   4.843  50.451  1.00  0.00    -0.379 N 
HETATM    9  C8  UNL     1      24.310   6.129  50.771  1.00  0.00     0.218 C 
HETATM   10  C9  UNL     1      23.322   6.725  49.785  1.00  0.00     0.165 C 
HETATM   11  N2  UNL     1      23.800   6.229  48.492  1.00  0.00    -0.198 NA
HETATM   12  N3  UNL     1      25.103   6.578  48.346  1.00  0.00    -0.311 N 
HETATM   13  C10 UNL     1      25.864   7.295  49.352  1.00  0.00     0.214 C 
HETATM   14  N4  UNL     1      25.511   6.983  50.581  1.00  0.00    -0.257 NA
HETATM   15  C11 UNL     1      23.383   4.892  48.251  1.00  0.00     0.217 C 
HETATM   16  C12 UNL     1      22.292   4.980  47.178  1.00  0.00     0.059 C 
HETATM   17  O1  UNL     1      22.842   4.422  49.470  1.00  0.00    -0.341 OA
HETATM   18  C13 UNL     1      22.158   3.242  49.526  1.00  0.00     0.147 C 
HETATM   19  C14 UNL     1      23.082   3.055  50.401  1.00  0.00     0.002 C 
HETATM   20  H7  UNL     1      25.569   4.802  49.853  1.00  0.00     0.157 HD
HETATM   21  H11 UNL     1      25.598   6.312  47.447  1.00  0.00     0.181 HD
ENDROOT
BRANCH  19  22
HETATM   22  C15 UNL     1      22.554   1.733  50.678  1.00  0.00     0.049 C 
HETATM   23  C16 UNL     1      21.739   1.165  51.539  1.00  0.00     0.090 C 
HETATM   24  C17 UNL     1      20.955   1.659  52.671  1.00  0.00     0.082 C 
HETATM   25  F1  UNL     1      21.596  -0.199  51.318  1.00  0.00    -0.211 F 
ENDBRANCH  19  22
TORSDOF 1
ENDMDL
MODEL 8
REMARK VINA RESULT:      -6.8      3.566      5.792
REMARK  1 active torsions:
REMARK  status: ('A' for Active; 'I' for Inactive)
REMARK    1  A    between atoms: C14_19  and  C15_20 
ROOT
HETATM    1  C1  UNL     1      21.983   4.659  52.388  1.00  0.00     0.042 C 
HETATM    2  C2  UNL     1      22.628   3.549  52.167  1.00  0.00    -0.043 A 
HETATM    3  C3  UNL     1      23.977   3.505  52.722  1.00  0.00     0.006 A 
HETATM    4  C4  UNL     1      24.707   2.410  52.560  1.00  0.00     0.000 A 
HETATM    5  C5  UNL     1      24.153   1.276  51.835  1.00  0.00    -0.001 A 
HETATM    6  C6  UNL     1      22.954   1.372  51.364  1.00  0.00     0.013 A 
HETATM    7  C7  UNL     1      21.931   2.497  51.410  1.00  0.00     0.099 A 
HETATM    8  N1  UNL     1      21.659   2.729  50.067  1.00  0.00    -0.379 N 
HETATM    9  C8  UNL     1      21.137   3.905  49.545  1.00  0.00     0.218 C 
HETATM   10  C9  UNL     1      19.657   3.833  49.216  1.00  0.00     0.165 C 
HETATM   11  N2  UNL     1      19.495   2.471  48.701  1.00  0.00    -0.198 NA
HETATM   12  N3  UNL     1      20.365   2.286  47.676  1.00  0.00    -0.311 N 
HETATM   13  C10 UNL     1      21.306   3.294  47.225  1.00  0.00     0.214 C 
HETATM   14  N4  UNL     1      21.761   4.046  48.205  1.00  0.00    -0.257 NA
HETATM   15  C11 UNL     1      19.407   1.517  49.751  1.00  0.00     0.217 C 
HETATM   16  C12 UNL     1      17.942   1.071  49.791  1.00  0.00     0.059 C 
HETATM   17  O1  UNL     1      19.751   2.202  50.939  1.00  0.00    -0.341 OA
HETATM   18  C13 UNL     1      19.561   1.626  52.162  1.00  0.00     0.147 C 
HETATM   19  C14 UNL     1      20.817   1.905  52.190  1.00  0.00     0.002 C 
HETATM   20  H7  UNL     1      22.031   2.074  49.355  1.00  0.00     0.157 HD
HETATM   21  H11 UNL     1      20.360   1.353  47.175  1.00  0.00     0.181 HD
ENDROOT
BRANCH  19  22
HETATM   22  C15 UNL     1      20.909   1.355  53.529  1.00  0.00     0.049 C 
HETATM   23  C16 UNL     1      21.205   0.208  54.098  1.00  0.00     0.090 C 
HETATM   24  C17 UNL     1      21.597  -1.107  53.586  1.00  0.00     0.082 C 
HETATM   25  F1  UNL     1      21.125   0.262  55.484  1.00  0.00    -0.211 F 
ENDBRANCH  19  22
TORSDOF 1
ENDMDL
MODEL 9
REMARK VINA RESULT:      -6.8      3.712      5.616
REMARK  1 active torsions:
REMARK  status: ('A' for Active; 'I' for Inactive)
REMARK    1  A    between atoms: C14_19  and  C15_20 
ROOT
HETATM    1  C1  UNL     1      21.733   5.200  50.174  1.00  0.00     0.042 C 
HETATM    2  C2  UNL     1      21.901   4.312  49.235  1.00  0.00    -0.043 A 
HETATM    3  C3  UNL     1      21.807   4.835  47.876  1.00  0.00     0.006 A 
HETATM    4  C4  UNL     1      21.978   4.009  46.853  1.00  0.00     0.000 A 
HETATM    5  C5  UNL     1      22.255   2.602  47.102  1.00  0.00    -0.001 A 
HETATM    6  C6  UNL     1      22.325   2.195  48.325  1.00  0.00     0.013 A 
HETATM    7  C7  UNL     1      22.167   2.926  49.651  1.00  0.00     0.099 A 
HETATM    8  N1  UNL     1      21.146   2.223  50.277  1.00  0.00    -0.379 N 
HETATM    9  C8  UNL     1      20.337   2.716  51.292  1.00  0.00     0.218 C 
HETATM   10  C9  UNL     1      20.713   2.226  52.677  1.00  0.00     0.165 C 
HETATM   11  N2  UNL     1      21.114   0.836  52.442  1.00  0.00    -0.198 NA
HETATM   12  N3  UNL     1      20.100   0.191  51.814  1.00  0.00    -0.311 N 
HETATM   13  C10 UNL     1      18.854   0.827  51.427  1.00  0.00     0.214 C 
HETATM   14  N4  UNL     1      19.010   2.085  51.074  1.00  0.00    -0.257 NA
HETATM   15  C11 UNL     1      22.443   0.747  51.944  1.00  0.00     0.217 C 
HETATM   16  C12 UNL     1      23.289   0.203  53.100  1.00  0.00     0.059 C 
HETATM   17  O1  UNL     1      22.833   2.067  51.621  1.00  0.00    -0.341 OA
HETATM   18  C13 UNL     1      24.131   2.360  51.313  1.00  0.00     0.147 C 
HETATM   19  C14 UNL     1      23.507   2.786  50.272  1.00  0.00     0.002 C 
HETATM   20  H7  UNL     1      20.812   1.335  49.858  1.00  0.00     0.157 HD
HETATM   21  H11 UNL     1      20.221  -0.838  51.589  1.00  0.00     0.181 HD
ENDROOT
BRANCH  19  22
HETATM   22  C15 UNL     1      24.766   3.215  49.693  1.00  0.00     0.049 C 
HETATM   23  C16 UNL     1      25.474   4.318  49.597  1.00  0.00     0.090 C 
HETATM   24  C17 UNL     1      25.282   5.690  50.068  1.00  0.00     0.082 C 
HETATM   25  F1  UNL     1      26.658   4.133  48.895  1.00  0.00    -0.211 F 
ENDBRANCH  19  22
TORSDOF 1
ENDMDL
