MODEL 1
REMARK VINA RESULT:      -8.0      0.000      0.000
REMARK  8 active torsions:
REMARK  status: ('A' for Active; 'I' for Inactive)
REMARK    1  A    between atoms: O1_2  and  C2_3 
REMARK    2  A    between atoms: C2_3  and  C3_4 
REMARK    3  A    between atoms: C6_7  and  O2_8 
REMARK    4  A    between atoms: O2_8  and  C7_9 
REMARK    5  A    between atoms: C11_14  and  O3_15 
REMARK    6  A    between atoms: C17_22  and  N2_23 
REMARK       I    between atoms: N2_23  and  C18_24 
REMARK       I    between atoms: C18_24  and  N3_26 
REMARK    7  A    between atoms: N3_26  and  C19_27 
REMARK    8  A    between atoms: C19_27  and  C21_29 
ROOT
HETATM    1  C3  UNL     1      21.810   1.526  50.121  1.00  0.00    -0.027 A 
HETATM    2  C4  UNL     1      21.853   1.961  48.849  1.00  0.00     0.010 A 
HETATM    3  C5  UNL     1      23.009   2.869  48.725  1.00  0.00     0.036 A 
HETATM    4  C6  UNL     1      23.598   2.934  49.925  1.00  0.00     0.080 A 
HETATM    5  C17 UNL     1      22.913   2.106  50.915  1.00  0.00     0.175 A 
ENDROOT
BRANCH   4   6
HETATM    6  O2  UNL     1      24.661   3.782  49.773  1.00  0.00    -0.312 OA
BRANCH   6   7
HETATM    7  C7  UNL     1      24.651   5.147  50.013  1.00  0.00     0.085 A 
HETATM    8  C8  UNL     1      23.752   5.951  50.562  1.00  0.00     0.057 A 
HETATM    9  C9  UNL     1      24.001   7.381  50.696  1.00  0.00     0.114 A 
HETATM   10  N1  UNL     1      25.082   7.926  50.297  1.00  0.00    -0.285 NA
HETATM   11  C10 UNL     1      26.195   7.241  49.672  1.00  0.00     0.201 A 
HETATM   12  C11 UNL     1      26.459   7.872  48.367  1.00  0.00     0.097 C 
HETATM   13  C16 UNL     1      25.902   5.788  49.551  1.00  0.00     0.005 A 
HETATM   14  C13 UNL     1      27.469   7.518  47.602  1.00  0.00     0.169 C 
HETATM   15  O4  UNL     1      28.359   6.521  47.974  1.00  0.00    -0.357 OA
HETATM   16  C14 UNL     1      28.162   5.203  48.406  1.00  0.00     0.202 C 
HETATM   17  C15 UNL     1      26.806   4.983  48.991  1.00  0.00     0.012 C 
BRANCH  12  18
HETATM   18  O3  UNL     1      25.593   8.876  47.957  1.00  0.00    -0.356 OA
HETATM   19  C12 UNL     1      25.486   9.186  46.580  1.00  0.00     0.209 C 
ENDBRANCH  12  18
ENDBRANCH   6   7
ENDBRANCH   4   6
BRANCH   5  20
HETATM   20  N2  UNL     1      23.708   1.122  51.593  1.00  0.00    -0.329 N 
HETATM   21  C18 UNL     1      24.577   1.239  52.697  1.00  0.00     0.317 C 
HETATM   22  O5  UNL     1      24.638   2.415  53.132  1.00  0.00    -0.247 OA
HETATM   23  N3  UNL     1      25.251   0.086  53.175  1.00  0.00    -0.333 N 
HETATM   24  H20 UNL     1      25.105  -0.838  52.712  1.00  0.00     0.165 HD
HETATM   25  H19 UNL     1      23.521   0.211  51.085  1.00  0.00     0.165 HD
BRANCH  23  26
HETATM   26  C19 UNL     1      26.141   0.221  54.310  1.00  0.00     0.141 C 
HETATM   27  C20 UNL     1      25.656  -0.526  55.519  1.00  0.00     0.039 C 
BRANCH  26  28
HETATM   28  C21 UNL     1      27.501  -0.268  53.981  1.00  0.00     0.097 A 
HETATM   29  N4  UNL     1      28.052  -1.332  53.690  1.00  0.00    -0.256 NA
HETATM   30  C22 UNL     1      29.367  -1.374  53.451  1.00  0.00     0.124 A 
HETATM   31  C23 UNL     1      30.163  -0.217  53.521  1.00  0.00     0.071 A 
HETATM   32  S1  UNL     1      28.806   1.029  53.987  1.00  0.00    -0.083 SA
ENDBRANCH  26  28
ENDBRANCH  23  26
ENDBRANCH   5  20
BRANCH   1  33
HETATM   33  C2  UNL     1      20.940   0.622  50.912  1.00  0.00     0.204 C 
BRANCH  33  34
HETATM   34  O1  UNL     1      20.842   1.032  52.240  1.00  0.00    -0.392 OA
HETATM   35  C1  UNL     1      20.556  -0.062  53.080  1.00  0.00     0.201 C 
ENDBRANCH  33  34
ENDBRANCH   1  33
TORSDOF 8
ENDMDL
MODEL 2
REMARK VINA RESULT:      -8.0      3.122      8.199
REMARK  8 active torsions:
REMARK  status: ('A' for Active; 'I' for Inactive)
REMARK    1  A    between atoms: O1_2  and  C2_3 
REMARK    2  A    between atoms: C2_3  and  C3_4 
REMARK    3  A    between atoms: C6_7  and  O2_8 
REMARK    4  A    between atoms: O2_8  and  C7_9 
REMARK    5  A    between atoms: C11_14  and  O3_15 
REMARK    6  A    between atoms: C17_22  and  N2_23 
REMARK       I    between atoms: N2_23  and  C18_24 
REMARK       I    between atoms: C18_24  and  N3_26 
REMARK    7  A    between atoms: N3_26  and  C19_27 
REMARK    8  A    between atoms: C19_27  and  C21_29 
ROOT
HETATM    1  C3  UNL     1      27.525   0.452  53.367  1.00  0.00    -0.027 A 
HETATM    2  C4  UNL     1      26.979  -0.756  53.131  1.00  0.00     0.010 A 
HETATM    3  C5  UNL     1      25.514  -0.603  53.184  1.00  0.00     0.036 A 
HETATM    4  C6  UNL     1      25.253   0.683  53.449  1.00  0.00     0.080 A 
HETATM    5  C17 UNL     1      26.477   1.469  53.590  1.00  0.00     0.175 A 
ENDROOT
BRANCH   4   6
HETATM    6  O2  UNL     1      23.890   0.786  53.490  1.00  0.00    -0.312 OA
BRANCH   6   7
HETATM    7  C7  UNL     1      23.048   0.862  52.391  1.00  0.00     0.085 A 
HETATM    8  C8  UNL     1      23.113   1.551  51.262  1.00  0.00     0.057 A 
HETATM    9  C9  UNL     1      22.069   1.442  50.249  1.00  0.00     0.114 A 
HETATM   10  N1  UNL     1      21.053   0.687  50.396  1.00  0.00    -0.285 NA
HETATM   11  C10 UNL     1      20.781  -0.152  51.545  1.00  0.00     0.201 A 
HETATM   12  C11 UNL     1      19.459   0.210  52.085  1.00  0.00     0.097 C 
HETATM   13  C16 UNL     1      21.864  -0.010  52.554  1.00  0.00     0.005 A 
HETATM   14  C13 UNL     1      18.901  -0.441  53.084  1.00  0.00     0.169 C 
HETATM   15  O4  UNL     1      19.523  -1.516  53.700  1.00  0.00    -0.357 OA
HETATM   16  C14 UNL     1      20.801  -1.669  54.251  1.00  0.00     0.202 C 
HETATM   17  C15 UNL     1      21.792  -0.701  53.693  1.00  0.00     0.012 C 
BRANCH  12  18
HETATM   18  O3  UNL     1      18.800   1.281  51.498  1.00  0.00    -0.356 OA
HETATM   19  C12 UNL     1      17.388   1.347  51.551  1.00  0.00     0.209 C 
ENDBRANCH  12  18
ENDBRANCH   6   7
ENDBRANCH   4   6
BRANCH   5  20
HETATM   20  N2  UNL     1      26.605   2.618  52.739  1.00  0.00    -0.329 N 
HETATM   21  C18 UNL     1      26.483   2.749  51.341  1.00  0.00     0.317 C 
HETATM   22  O5  UNL     1      26.218   1.657  50.782  1.00  0.00    -0.247 OA
HETATM   23  N3  UNL     1      26.662   4.024  50.745  1.00  0.00    -0.333 N 
HETATM   24  H20 UNL     1      26.882   4.855  51.337  1.00  0.00     0.165 HD
HETATM   25  H19 UNL     1      26.826   3.426  53.389  1.00  0.00     0.165 HD
BRANCH  23  26
HETATM   26  C19 UNL     1      26.534   4.144  49.307  1.00  0.00     0.141 C 
HETATM   27  C20 UNL     1      25.195   4.679  48.887  1.00  0.00     0.039 C 
BRANCH  26  28
HETATM   28  C21 UNL     1      27.581   5.036  48.753  1.00  0.00     0.097 A 
HETATM   29  N4  UNL     1      28.777   4.982  48.460  1.00  0.00    -0.256 NA
HETATM   30  C22 UNL     1      29.404   6.051  47.958  1.00  0.00     0.124 A 
HETATM   31  C23 UNL     1      28.729   7.266  47.747  1.00  0.00     0.071 A 
HETATM   32  S1  UNL     1      27.008   6.740  48.360  1.00  0.00    -0.083 SA
ENDBRANCH  26  28
ENDBRANCH  23  26
ENDBRANCH   5  20
BRANCH   1  33
HETATM   33  C2  UNL     1      28.898   1.005  53.459  1.00  0.00     0.204 C 
BRANCH  33  34
HETATM   34  O1  UNL     1      28.934   2.169  54.223  1.00  0.00    -0.392 OA
HETATM   35  C1  UNL     1      30.100   2.211  55.013  1.00  0.00     0.201 C 
ENDBRANCH  33  34
ENDBRANCH   1  33
TORSDOF 8
ENDMDL
MODEL 3
REMARK VINA RESULT:      -7.9      3.655      8.374
REMARK  8 active torsions:
REMARK  status: ('A' for Active; 'I' for Inactive)
REMARK    1  A    between atoms: O1_2  and  C2_3 
REMARK    2  A    between atoms: C2_3  and  C3_4 
REMARK    3  A    between atoms: C6_7  and  O2_8 
REMARK    4  A    between atoms: O2_8  and  C7_9 
REMARK    5  A    between atoms: C11_14  and  O3_15 
REMARK    6  A    between atoms: C17_22  and  N2_23 
REMARK       I    between atoms: N2_23  and  C18_24 
REMARK       I    between atoms: C18_24  and  N3_26 
REMARK    7  A    between atoms: N3_26  and  C19_27 
REMARK    8  A    between atoms: C19_27  and  C21_29 
ROOT
HETATM    1  C3  UNL     1      27.448   1.082  52.888  1.00  0.00    -0.027 A 
HETATM    2  C4  UNL     1      27.694  -0.217  52.637  1.00  0.00     0.010 A 
HETATM    3  C5  UNL     1      26.395  -0.904  52.518  1.00  0.00     0.036 A 
HETATM    4  C6  UNL     1      25.437   0.012  52.703  1.00  0.00     0.080 A 
HETATM    5  C17 UNL     1      25.994   1.340  52.952  1.00  0.00     0.175 A 
ENDROOT
BRANCH   4   6
HETATM    6  O2  UNL     1      24.251  -0.659  52.586  1.00  0.00    -0.312 OA
BRANCH   6   7
HETATM    7  C7  UNL     1      23.108  -0.424  53.335  1.00  0.00     0.085 A 
HETATM    8  C8  UNL     1      22.760  -0.772  54.565  1.00  0.00     0.057 A 
HETATM    9  C9  UNL     1      21.469  -0.384  55.121  1.00  0.00     0.114 A 
HETATM   10  N1  UNL     1      20.620   0.302  54.462  1.00  0.00    -0.285 NA
HETATM   11  C10 UNL     1      20.793   0.788  53.109  1.00  0.00     0.201 A 
HETATM   12  C11 UNL     1      19.675   0.292  52.288  1.00  0.00     0.097 C 
HETATM   13  C16 UNL     1      22.116   0.370  52.576  1.00  0.00     0.005 A 
HETATM   14  C13 UNL     1      19.513   0.639  51.029  1.00  0.00     0.169 C 
HETATM   15  O4  UNL     1      20.390   1.500  50.385  1.00  0.00    -0.357 OA
HETATM   16  C14 UNL     1      21.784   1.492  50.254  1.00  0.00     0.202 C 
HETATM   17  C15 UNL     1      22.462   0.716  51.335  1.00  0.00     0.012 C 
BRANCH  12  18
HETATM   18  O3  UNL     1      18.773  -0.572  52.893  1.00  0.00    -0.356 OA
HETATM   19  C12 UNL     1      17.467  -0.701  52.364  1.00  0.00     0.209 C 
ENDBRANCH  12  18
ENDBRANCH   6   7
ENDBRANCH   4   6
BRANCH   5  20
HETATM   20  N2  UNL     1      25.562   2.394  52.079  1.00  0.00    -0.329 N 
HETATM   21  C18 UNL     1      24.659   3.456  52.291  1.00  0.00     0.317 C 
HETATM   22  O5  UNL     1      24.174   3.445  53.449  1.00  0.00    -0.247 OA
HETATM   23  N3  UNL     1      24.407   4.373  51.239  1.00  0.00    -0.333 N 
HETATM   24  H20 UNL     1      24.886   4.261  50.318  1.00  0.00     0.165 HD
HETATM   25  H19 UNL     1      26.075   2.231  51.166  1.00  0.00     0.165 HD
BRANCH  23  26
HETATM   26  C19 UNL     1      23.478   5.460  51.471  1.00  0.00     0.141 C 
HETATM   27  C20 UNL     1      24.044   6.798  51.092  1.00  0.00     0.039 C 
BRANCH  26  28
HETATM   28  C21 UNL     1      22.223   5.258  50.708  1.00  0.00     0.097 A 
HETATM   29  N4  UNL     1      21.010   5.211  50.925  1.00  0.00    -0.256 NA
HETATM   30  C22 UNL     1      20.148   4.998  49.925  1.00  0.00     0.124 A 
HETATM   31  C23 UNL     1      20.588   4.823  48.601  1.00  0.00     0.071 A 
HETATM   32  S1  UNL     1      22.457   4.995  48.901  1.00  0.00    -0.083 SA
ENDBRANCH  26  28
ENDBRANCH  23  26
ENDBRANCH   5  20
BRANCH   1  33
HETATM   33  C2  UNL     1      28.263   2.300  53.114  1.00  0.00     0.204 C 
BRANCH  33  34
HETATM   34  O1  UNL     1      28.543   2.489  54.465  1.00  0.00    -0.392 OA
HETATM   35  C1  UNL     1      29.815   1.975  54.787  1.00  0.00     0.201 C 
ENDBRANCH  33  34
ENDBRANCH   1  33
TORSDOF 8
ENDMDL
MODEL 4
REMARK VINA RESULT:      -7.8      1.662      2.738
REMARK  8 active torsions:
REMARK  status: ('A' for Active; 'I' for Inactive)
REMARK    1  A    between atoms: O1_2  and  C2_3 
REMARK    2  A    between atoms: C2_3  and  C3_4 
REMARK    3  A    between atoms: C6_7  and  O2_8 
REMARK    4  A    between atoms: O2_8  and  C7_9 
REMARK    5  A    between atoms: C11_14  and  O3_15 
REMARK    6  A    between atoms: C17_22  and  N2_23 
REMARK       I    between atoms: N2_23  and  C18_24 
REMARK       I    between atoms: C18_24  and  N3_26 
REMARK    7  A    between atoms: N3_26  and  C19_27 
REMARK    8  A    between atoms: C19_27  and  C21_29 
ROOT
HETATM    1  C3  UNL     1      22.580   3.162  49.497  1.00  0.00    -0.027 A 
HETATM    2  C4  UNL     1      22.616   3.989  48.435  1.00  0.00     0.010 A 
HETATM    3  C5  UNL     1      23.678   4.983  48.679  1.00  0.00     0.036 A 
HETATM    4  C6  UNL     1      24.222   4.706  49.869  1.00  0.00     0.080 A 
HETATM    5  C17 UNL     1      23.595   3.545  50.499  1.00  0.00     0.175 A 
ENDROOT
BRANCH   4   6
HETATM    6  O2  UNL     1      25.199   5.644  50.061  1.00  0.00    -0.312 OA
BRANCH   6   7
HETATM    7  C7  UNL     1      26.390   5.732  49.357  1.00  0.00     0.085 A 
HETATM    8  C8  UNL     1      27.286   4.824  49.001  1.00  0.00     0.057 A 
HETATM    9  C9  UNL     1      28.476   5.194  48.245  1.00  0.00     0.114 A 
HETATM   10  N1  UNL     1      28.714   6.395  47.891  1.00  0.00    -0.285 NA
HETATM   11  C10 UNL     1      27.873   7.542  48.170  1.00  0.00     0.201 A 
HETATM   12  C11 UNL     1      28.678   8.549  48.882  1.00  0.00     0.097 C 
HETATM   13  C16 UNL     1      26.674   7.124  48.944  1.00  0.00     0.005 A 
HETATM   14  C13 UNL     1      28.208   9.738  49.195  1.00  0.00     0.169 C 
HETATM   15  O4  UNL     1      26.915  10.124  48.876  1.00  0.00    -0.357 OA
HETATM   16  C14 UNL     1      25.672   9.519  49.105  1.00  0.00     0.202 C 
HETATM   17  C15 UNL     1      25.777   8.043  49.306  1.00  0.00     0.012 C 
BRANCH  12  18
HETATM   18  O3  UNL     1      29.979   8.205  49.220  1.00  0.00    -0.356 OA
HETATM   19  C12 UNL     1      30.971   9.211  49.296  1.00  0.00     0.209 C 
ENDBRANCH  12  18
ENDBRANCH   6   7
ENDBRANCH   4   6
BRANCH   5  20
HETATM   20  N2  UNL     1      24.465   2.467  50.872  1.00  0.00    -0.329 N 
HETATM   21  C18 UNL     1      24.842   1.983  52.141  1.00  0.00     0.317 C 
HETATM   22  O5  UNL     1      24.307   2.628  53.076  1.00  0.00    -0.247 OA
HETATM   23  N3  UNL     1      25.733   0.882  52.228  1.00  0.00    -0.333 N 
HETATM   24  H20 UNL     1      26.105   0.437  51.360  1.00  0.00     0.165 HD
HETATM   25  H19 UNL     1      24.810   2.055  49.959  1.00  0.00     0.165 HD
BRANCH  23  26
HETATM   26  C19 UNL     1      26.112   0.395  53.539  1.00  0.00     0.141 C 
HETATM   27  C20 UNL     1      25.136  -0.603  54.091  1.00  0.00     0.039 C 
BRANCH  26  28
HETATM   28  C21 UNL     1      27.451  -0.241  53.503  1.00  0.00     0.097 A 
HETATM   29  N4  UNL     1      27.933  -1.367  53.366  1.00  0.00    -0.256 NA
HETATM   30  C22 UNL     1      29.257  -1.549  53.393  1.00  0.00     0.124 A 
HETATM   31  C23 UNL     1      30.142  -0.472  53.577  1.00  0.00     0.071 A 
HETATM   32  S1  UNL     1      28.860   0.923  53.720  1.00  0.00    -0.083 SA
ENDBRANCH  26  28
ENDBRANCH  23  26
ENDBRANCH   5  20
BRANCH   1  33
HETATM   33  C2  UNL     1      21.782   1.980  49.903  1.00  0.00     0.204 C 
BRANCH  33  34
HETATM   34  O1  UNL     1      21.437   2.029  51.251  1.00  0.00    -0.392 OA
HETATM   35  C1  UNL     1      20.253   1.303  51.490  1.00  0.00     0.201 C 
ENDBRANCH  33  34
ENDBRANCH   1  33
TORSDOF 8
ENDMDL
MODEL 5
REMARK VINA RESULT:      -7.8      2.972      7.881
REMARK  8 active torsions:
REMARK  status: ('A' for Active; 'I' for Inactive)
REMARK    1  A    between atoms: O1_2  and  C2_3 
REMARK    2  A    between atoms: C2_3  and  C3_4 
REMARK    3  A    between atoms: C6_7  and  O2_8 
REMARK    4  A    between atoms: O2_8  and  C7_9 
REMARK    5  A    between atoms: C11_14  and  O3_15 
REMARK    6  A    between atoms: C17_22  and  N2_23 
REMARK       I    between atoms: N2_23  and  C18_24 
REMARK       I    between atoms: C18_24  and  N3_26 
REMARK    7  A    between atoms: N3_26  and  C19_27 
REMARK    8  A    between atoms: C19_27  and  C21_29 
ROOT
HETATM    1  C3  UNL     1      25.940   6.167  49.047  1.00  0.00    -0.027 A 
HETATM    2  C4  UNL     1      27.076   5.668  48.524  1.00  0.00     0.010 A 
HETATM    3  C5  UNL     1      27.230   4.289  49.022  1.00  0.00     0.036 A 
HETATM    4  C6  UNL     1      26.185   4.029  49.816  1.00  0.00     0.080 A 
HETATM    5  C17 UNL     1      25.277   5.170  49.913  1.00  0.00     0.175 A 
ENDROOT
BRANCH   4   6
HETATM    6  O2  UNL     1      26.361   2.747  50.258  1.00  0.00    -0.312 OA
BRANCH   6   7
HETATM    7  C7  UNL     1      26.661   2.370  51.558  1.00  0.00     0.085 A 
HETATM    8  C8  UNL     1      27.773   2.441  52.275  1.00  0.00     0.057 A 
HETATM    9  C9  UNL     1      27.815   1.963  53.652  1.00  0.00     0.114 A 
HETATM   10  N1  UNL     1      26.797   1.458  54.230  1.00  0.00    -0.285 NA
HETATM   11  C10 UNL     1      25.486   1.286  53.639  1.00  0.00     0.201 A 
HETATM   12  C11 UNL     1      25.114  -0.136  53.732  1.00  0.00     0.097 C 
HETATM   13  C16 UNL     1      25.485   1.782  52.237  1.00  0.00     0.005 A 
HETATM   14  C13 UNL     1      23.937  -0.586  53.353  1.00  0.00     0.169 C 
HETATM   15  O4  UNL     1      22.962   0.253  52.835  1.00  0.00    -0.357 OA
HETATM   16  C14 UNL     1      22.990   1.195  51.798  1.00  0.00     0.202 C 
HETATM   17  C15 UNL     1      24.365   1.703  51.516  1.00  0.00     0.012 C 
BRANCH  12  18
HETATM   18  O3  UNL     1      26.061  -1.011  54.246  1.00  0.00    -0.356 OA
HETATM   19  C12 UNL     1      26.887  -1.745  53.362  1.00  0.00     0.209 C 
ENDBRANCH  12  18
ENDBRANCH   6   7
ENDBRANCH   4   6
BRANCH   5  20
HETATM   20  N2  UNL     1      23.905   4.933  49.564  1.00  0.00    -0.329 N 
HETATM   21  C18 UNL     1      22.734   4.971  50.348  1.00  0.00     0.317 C 
HETATM   22  O5  UNL     1      22.971   5.265  51.545  1.00  0.00    -0.247 OA
HETATM   23  N3  UNL     1      21.483   4.690  49.740  1.00  0.00    -0.333 N 
HETATM   24  H20 UNL     1      21.433   4.458  48.724  1.00  0.00     0.165 HD
HETATM   25  H19 UNL     1      23.914   4.704  48.529  1.00  0.00     0.165 HD
BRANCH  23  26
HETATM   26  C19 UNL     1      20.288   4.733  50.557  1.00  0.00     0.141 C 
HETATM   27  C20 UNL     1      19.104   5.295  49.824  1.00  0.00     0.039 C 
BRANCH  26  28
HETATM   28  C21 UNL     1      19.928   3.380  51.044  1.00  0.00     0.097 A 
HETATM   29  N4  UNL     1      19.671   2.823  52.113  1.00  0.00    -0.256 NA
HETATM   30  C22 UNL     1      19.379   1.519  52.149  1.00  0.00     0.124 A 
HETATM   31  C23 UNL     1      19.353   0.740  50.978  1.00  0.00     0.071 A 
HETATM   32  S1  UNL     1      19.808   2.098  49.729  1.00  0.00    -0.083 SA
ENDBRANCH  26  28
ENDBRANCH  23  26
ENDBRANCH   5  20
BRANCH   1  33
HETATM   33  C2  UNL     1      25.203   7.451  48.971  1.00  0.00     0.204 C 
BRANCH  33  34
HETATM   34  O1  UNL     1      24.672   7.814  50.207  1.00  0.00    -0.392 OA
HETATM   35  C1  UNL     1      23.428   8.456  50.046  1.00  0.00     0.201 C 
ENDBRANCH  33  34
ENDBRANCH   1  33
TORSDOF 8
ENDMDL
MODEL 6
REMARK VINA RESULT:      -7.7      2.857      8.148
REMARK  8 active torsions:
REMARK  status: ('A' for Active; 'I' for Inactive)
REMARK    1  A    between atoms: O1_2  and  C2_3 
REMARK    2  A    between atoms: C2_3  and  C3_4 
REMARK    3  A    between atoms: C6_7  and  O2_8 
REMARK    4  A    between atoms: O2_8  and  C7_9 
REMARK    5  A    between atoms: C11_14  and  O3_15 
REMARK    6  A    between atoms: C17_22  and  N2_23 
REMARK       I    between atoms: N2_23  and  C18_24 
REMARK       I    between atoms: C18_24  and  N3_26 
REMARK    7  A    between atoms: N3_26  and  C19_27 
REMARK    8  A    between atoms: C19_27  and  C21_29 
ROOT
HETATM    1  C3  UNL     1      27.833   1.281  53.263  1.00  0.00    -0.027 A 
HETATM    2  C4  UNL     1      28.054   0.037  52.798  1.00  0.00     0.010 A 
HETATM    3  C5  UNL     1      26.745  -0.556  52.469  1.00  0.00     0.036 A 
HETATM    4  C6  UNL     1      25.808   0.356  52.753  1.00  0.00     0.080 A 
HETATM    5  C17 UNL     1      26.389   1.591  53.275  1.00  0.00     0.175 A 
ENDROOT
BRANCH   4   6
HETATM    6  O2  UNL     1      24.611  -0.228  52.436  1.00  0.00    -0.312 OA
BRANCH   6   7
HETATM    7  C7  UNL     1      23.472  -0.222  53.226  1.00  0.00     0.085 A 
HETATM    8  C8  UNL     1      23.164  -0.846  54.353  1.00  0.00     0.057 A 
HETATM    9  C9  UNL     1      21.865  -0.657  54.989  1.00  0.00     0.114 A 
HETATM   10  N1  UNL     1      20.970   0.108  54.500  1.00  0.00    -0.285 NA
HETATM   11  C10 UNL     1      21.093   0.884  53.283  1.00  0.00     0.201 A 
HETATM   12  C11 UNL     1      19.987   0.517  52.381  1.00  0.00     0.097 C 
HETATM   13  C16 UNL     1      22.427   0.662  52.664  1.00  0.00     0.005 A 
HETATM   14  C13 UNL     1      19.786   1.119  51.229  1.00  0.00     0.169 C 
HETATM   15  O4  UNL     1      20.605   2.144  50.781  1.00  0.00    -0.357 OA
HETATM   16  C14 UNL     1      21.996   2.240  50.642  1.00  0.00     0.202 C 
HETATM   17  C15 UNL     1      22.732   1.287  51.525  1.00  0.00     0.012 C 
BRANCH  12  18
HETATM   18  O3  UNL     1      19.142  -0.505  52.791  1.00  0.00    -0.356 OA
HETATM   19  C12 UNL     1      17.809  -0.540  52.317  1.00  0.00     0.209 C 
ENDBRANCH  12  18
ENDBRANCH   6   7
ENDBRANCH   4   6
BRANCH   5  20
HETATM   20  N2  UNL     1      26.058   2.802  52.581  1.00  0.00    -0.329 N 
HETATM   21  C18 UNL     1      26.044   3.102  51.204  1.00  0.00     0.317 C 
HETATM   22  O5  UNL     1      26.384   2.120  50.499  1.00  0.00    -0.247 OA
HETATM   23  N3  UNL     1      25.670   4.403  50.780  1.00  0.00    -0.333 N 
HETATM   24  H20 UNL     1      25.409   5.129  51.482  1.00  0.00     0.165 HD
HETATM   25  H19 UNL     1      25.802   3.499  53.337  1.00  0.00     0.165 HD
BRANCH  23  26
HETATM   26  C19 UNL     1      25.661   4.697  49.361  1.00  0.00     0.141 C 
HETATM   27  C20 UNL     1      24.291   5.041  48.850  1.00  0.00     0.039 C 
BRANCH  26  28
HETATM   28  C21 UNL     1      26.567   5.827  49.047  1.00  0.00     0.097 A 
HETATM   29  N4  UNL     1      26.548   7.059  49.075  1.00  0.00    -0.256 NA
HETATM   30  C22 UNL     1      27.617   7.766  48.692  1.00  0.00     0.124 A 
HETATM   31  C23 UNL     1      28.793   7.135  48.248  1.00  0.00     0.071 A 
HETATM   32  S1  UNL     1      28.227   5.330  48.425  1.00  0.00    -0.083 SA
ENDBRANCH  26  28
ENDBRANCH  23  26
ENDBRANCH   5  20
BRANCH   1  33
HETATM   33  C2  UNL     1      28.670   2.400  53.760  1.00  0.00     0.204 C 
BRANCH  33  34
HETATM   34  O1  UNL     1      29.223   2.115  55.006  1.00  0.00    -0.392 OA
HETATM   35  C1  UNL     1      30.589   2.458  55.036  1.00  0.00     0.201 C 
ENDBRANCH  33  34
ENDBRANCH   1  33
TORSDOF 8
ENDMDL
MODEL 7
REMARK VINA RESULT:      -7.7      1.924      2.911
REMARK  8 active torsions:
REMARK  status: ('A' for Active; 'I' for Inactive)
REMARK    1  A    between atoms: O1_2  and  C2_3 
REMARK    2  A    between atoms: C2_3  and  C3_4 
REMARK    3  A    between atoms: C6_7  and  O2_8 
REMARK    4  A    between atoms: O2_8  and  C7_9 
REMARK    5  A    between atoms: C11_14  and  O3_15 
REMARK    6  A    between atoms: C17_22  and  N2_23 
REMARK       I    between atoms: N2_23  and  C18_24 
REMARK       I    between atoms: C18_24  and  N3_26 
REMARK    7  A    between atoms: N3_26  and  C19_27 
REMARK    8  A    between atoms: C19_27  and  C21_29 
ROOT
HETATM    1  C3  UNL     1      23.131   2.204  51.363  1.00  0.00    -0.027 A 
HETATM    2  C4  UNL     1      23.081   2.294  50.021  1.00  0.00     0.010 A 
HETATM    3  C5  UNL     1      23.715   3.569  49.635  1.00  0.00     0.036 A 
HETATM    4  C6  UNL     1      24.110   4.178  50.759  1.00  0.00     0.080 A 
HETATM    5  C17 UNL     1      23.787   3.391  51.948  1.00  0.00     0.175 A 
ENDROOT
BRANCH   4   6
HETATM    6  O2  UNL     1      24.690   5.352  50.363  1.00  0.00    -0.312 OA
BRANCH   6   7
HETATM    7  C7  UNL     1      25.853   5.472  49.618  1.00  0.00     0.085 A 
HETATM    8  C8  UNL     1      26.829   4.619  49.343  1.00  0.00     0.057 A 
HETATM    9  C9  UNL     1      27.962   5.012  48.513  1.00  0.00     0.114 A 
HETATM   10  N1  UNL     1      28.070   6.181  48.015  1.00  0.00    -0.285 NA
HETATM   11  C10 UNL     1      27.125   7.264  48.185  1.00  0.00     0.201 A 
HETATM   12  C11 UNL     1      27.837   8.423  48.751  1.00  0.00     0.097 C 
HETATM   13  C16 UNL     1      25.988   6.826  49.038  1.00  0.00     0.005 A 
HETATM   14  C13 UNL     1      27.255   9.588  48.939  1.00  0.00     0.169 C 
HETATM   15  O4  UNL     1      25.924   9.806  48.617  1.00  0.00    -0.357 OA
HETATM   16  C14 UNL     1      24.754   9.114  48.952  1.00  0.00     0.202 C 
HETATM   17  C15 UNL     1      25.010   7.689  49.318  1.00  0.00     0.012 C 
BRANCH  12  18
HETATM   18  O3  UNL     1      29.172   8.249  49.087  1.00  0.00    -0.356 OA
HETATM   19  C12 UNL     1      29.998   9.382  49.276  1.00  0.00     0.209 C 
ENDBRANCH  12  18
ENDBRANCH   6   7
ENDBRANCH   4   6
BRANCH   5  20
HETATM   20  N2  UNL     1      24.878   3.069  52.822  1.00  0.00    -0.329 N 
HETATM   21  C18 UNL     1      26.132   2.483  52.555  1.00  0.00     0.317 C 
HETATM   22  O5  UNL     1      26.283   2.213  51.338  1.00  0.00    -0.247 OA
HETATM   23  N3  UNL     1      27.042   2.272  53.623  1.00  0.00    -0.333 N 
HETATM   24  H20 UNL     1      26.783   2.548  54.595  1.00  0.00     0.165 HD
HETATM   25  H19 UNL     1      24.563   3.368  53.788  1.00  0.00     0.165 HD
BRANCH  23  26
HETATM   26  C19 UNL     1      28.327   1.669  53.334  1.00  0.00     0.141 C 
HETATM   27  C20 UNL     1      29.356   1.965  54.387  1.00  0.00     0.039 C 
BRANCH  26  28
HETATM   28  C21 UNL     1      28.208   0.197  53.208  1.00  0.00     0.097 A 
HETATM   29  N4  UNL     1      27.348  -0.636  52.915  1.00  0.00    -0.256 NA
HETATM   30  C22 UNL     1      27.637  -1.942  52.914  1.00  0.00     0.124 A 
HETATM   31  C23 UNL     1      28.922  -2.409  53.242  1.00  0.00     0.071 A 
HETATM   32  S1  UNL     1      29.752  -0.733  53.579  1.00  0.00    -0.083 SA
ENDBRANCH  26  28
ENDBRANCH  23  26
ENDBRANCH   5  20
BRANCH   1  33
HETATM   33  C2  UNL     1      22.694   1.221  52.384  1.00  0.00     0.204 C 
BRANCH  33  34
HETATM   34  O1  UNL     1      23.602   0.173  52.512  1.00  0.00    -0.392 OA
HETATM   35  C1  UNL     1      23.545  -0.381  53.806  1.00  0.00     0.201 C 
ENDBRANCH  33  34
ENDBRANCH   1  33
TORSDOF 8
ENDMDL
MODEL 8
REMARK VINA RESULT:      -7.6      2.986      6.701
REMARK  8 active torsions:
REMARK  status: ('A' for Active; 'I' for Inactive)
REMARK    1  A    between atoms: O1_2  and  C2_3 
REMARK    2  A    between atoms: C2_3  and  C3_4 
REMARK    3  A    between atoms: C6_7  and  O2_8 
REMARK    4  A    between atoms: O2_8  and  C7_9 
REMARK    5  A    between atoms: C11_14  and  O3_15 
REMARK    6  A    between atoms: C17_22  and  N2_23 
REMARK       I    between atoms: N2_23  and  C18_24 
REMARK       I    between atoms: C18_24  and  N3_26 
REMARK    7  A    between atoms: N3_26  and  C19_27 
REMARK    8  A    between atoms: C19_27  and  C21_29 
ROOT
HETATM    1  C3  UNL     1      26.251   0.220  53.324  1.00  0.00    -0.027 A 
HETATM    2  C4  UNL     1      25.396  -0.781  53.044  1.00  0.00     0.010 A 
HETATM    3  C5  UNL     1      24.033  -0.219  53.043  1.00  0.00     0.036 A 
HETATM    4  C6  UNL     1      24.136   1.085  53.322  1.00  0.00     0.080 A 
HETATM    5  C17 UNL     1      25.525   1.491  53.525  1.00  0.00     0.175 A 
ENDROOT
BRANCH   4   6
HETATM    6  O2  UNL     1      22.857   1.571  53.313  1.00  0.00    -0.312 OA
BRANCH   6   7
HETATM    7  C7  UNL     1      21.925   1.385  52.303  1.00  0.00     0.085 A 
HETATM    8  C8  UNL     1      21.331   0.302  51.826  1.00  0.00     0.057 A 
HETATM    9  C9  UNL     1      20.367   0.389  50.735  1.00  0.00     0.114 A 
HETATM   10  N1  UNL     1      20.051   1.498  50.191  1.00  0.00    -0.285 NA
HETATM   11  C10 UNL     1      20.574   2.799  50.554  1.00  0.00     0.201 A 
HETATM   12  C11 UNL     1      21.166   3.416  49.354  1.00  0.00     0.097 C 
HETATM   13  C16 UNL     1      21.554   2.667  51.665  1.00  0.00     0.005 A 
HETATM   14  C13 UNL     1      21.649   4.641  49.354  1.00  0.00     0.169 C 
HETATM   15  O4  UNL     1      21.635   5.437  50.489  1.00  0.00    -0.357 OA
HETATM   16  C14 UNL     1      22.080   5.211  51.798  1.00  0.00     0.202 C 
HETATM   17  C15 UNL     1      22.156   3.759  52.140  1.00  0.00     0.012 C 
BRANCH  12  18
HETATM   18  O3  UNL     1      21.199   2.654  48.195  1.00  0.00    -0.356 OA
HETATM   19  C12 UNL     1      22.443   2.207  47.689  1.00  0.00     0.209 C 
ENDBRANCH  12  18
ENDBRANCH   6   7
ENDBRANCH   4   6
BRANCH   5  20
HETATM   20  N2  UNL     1      26.009   2.563  52.703  1.00  0.00    -0.329 N 
HETATM   21  C18 UNL     1      25.825   2.828  51.330  1.00  0.00     0.317 C 
HETATM   22  O5  UNL     1      25.113   1.960  50.769  1.00  0.00    -0.247 OA
HETATM   23  N3  UNL     1      26.427   3.979  50.759  1.00  0.00    -0.333 N 
HETATM   24  H20 UNL     1      26.999   4.621  51.350  1.00  0.00     0.165 HD
HETATM   25  H19 UNL     1      26.579   3.179  53.350  1.00  0.00     0.165 HD
BRANCH  23  26
HETATM   26  C19 UNL     1      26.229   4.239  49.348  1.00  0.00     0.141 C 
HETATM   27  C20 UNL     1      24.956   4.984  49.068  1.00  0.00     0.039 C 
BRANCH  26  28
HETATM   28  C21 UNL     1      27.355   5.026  48.790  1.00  0.00     0.097 A 
HETATM   29  N4  UNL     1      28.534   4.853  48.476  1.00  0.00    -0.256 NA
HETATM   30  C22 UNL     1      29.262   5.859  47.981  1.00  0.00     0.124 A 
HETATM   31  C23 UNL     1      28.714   7.142  47.799  1.00  0.00     0.071 A 
HETATM   32  S1  UNL     1      26.957   6.787  48.432  1.00  0.00    -0.083 SA
ENDBRANCH  26  28
ENDBRANCH  23  26
ENDBRANCH   5  20
BRANCH   1  33
HETATM   33  C2  UNL     1      27.719   0.360  53.479  1.00  0.00     0.204 C 
BRANCH  33  34
HETATM   34  O1  UNL     1      28.047   1.188  54.550  1.00  0.00    -0.392 OA
HETATM   35  C1  UNL     1      29.354   1.695  54.406  1.00  0.00     0.201 C 
ENDBRANCH  33  34
ENDBRANCH   1  33
TORSDOF 8
ENDMDL
MODEL 9
REMARK VINA RESULT:      -7.4      5.925      9.289
REMARK  8 active torsions:
REMARK  status: ('A' for Active; 'I' for Inactive)
REMARK    1  A    between atoms: O1_2  and  C2_3 
REMARK    2  A    between atoms: C2_3  and  C3_4 
REMARK    3  A    between atoms: C6_7  and  O2_8 
REMARK    4  A    between atoms: O2_8  and  C7_9 
REMARK    5  A    between atoms: C11_14  and  O3_15 
REMARK    6  A    between atoms: C17_22  and  N2_23 
REMARK       I    between atoms: N2_23  and  C18_24 
REMARK       I    between atoms: C18_24  and  N3_26 
REMARK    7  A    between atoms: N3_26  and  C19_27 
REMARK    8  A    between atoms: C19_27  and  C21_29 
ROOT
HETATM    1  C3  UNL     1      25.988   6.206  48.826  1.00  0.00    -0.027 A 
HETATM    2  C4  UNL     1      26.157   4.954  49.290  1.00  0.00     0.010 A 
HETATM    3  C5  UNL     1      27.541   4.546  48.984  1.00  0.00     0.036 A 
HETATM    4  C6  UNL     1      28.130   5.568  48.352  1.00  0.00     0.080 A 
HETATM    5  C17 UNL     1      27.225   6.704  48.190  1.00  0.00     0.175 A 
ENDROOT
BRANCH   4   6
HETATM    6  O2  UNL     1      29.407   5.156  48.085  1.00  0.00    -0.312 OA
BRANCH   6   7
HETATM    7  C7  UNL     1      30.566   5.855  48.384  1.00  0.00     0.085 A 
HETATM    8  C8  UNL     1      30.784   6.972  49.061  1.00  0.00     0.057 A 
HETATM    9  C9  UNL     1      32.133   7.500  49.231  1.00  0.00     0.114 A 
HETATM   10  N1  UNL     1      33.159   6.921  48.744  1.00  0.00    -0.285 NA
HETATM   11  C10 UNL     1      33.152   5.693  47.975  1.00  0.00     0.201 A 
HETATM   12  C11 UNL     1      33.803   5.951  46.678  1.00  0.00     0.097 C 
HETATM   13  C16 UNL     1      31.761   5.190  47.820  1.00  0.00     0.005 A 
HETATM   14  C13 UNL     1      34.021   5.000  45.795  1.00  0.00     0.169 C 
HETATM   15  O4  UNL     1      33.650   3.684  46.025  1.00  0.00    -0.357 OA
HETATM   16  C14 UNL     1      32.435   3.107  46.417  1.00  0.00     0.202 C 
HETATM   17  C15 UNL     1      31.544   4.068  47.133  1.00  0.00     0.012 C 
BRANCH  12  18
HETATM   18  O3  UNL     1      34.191   7.255  46.407  1.00  0.00    -0.356 OA
HETATM   19  C12 UNL     1      33.607   7.946  45.319  1.00  0.00     0.209 C 
ENDBRANCH  12  18
ENDBRANCH   6   7
ENDBRANCH   4   6
BRANCH   5  20
HETATM   20  N2  UNL     1      27.671   7.963  48.716  1.00  0.00    -0.329 N 
HETATM   21  C18 UNL     1      28.071   9.146  48.062  1.00  0.00     0.317 C 
HETATM   22  O5  UNL     1      28.014   9.042  46.812  1.00  0.00    -0.247 OA
HETATM   23  N3  UNL     1      28.472  10.265  48.836  1.00  0.00    -0.333 N 
HETATM   24  H20 UNL     1      28.470  10.211  49.878  1.00  0.00     0.165 HD
HETATM   25  H19 UNL     1      27.649   7.851  49.769  1.00  0.00     0.165 HD
BRANCH  23  26
HETATM   26  C19 UNL     1      28.881  11.474  48.151  1.00  0.00     0.141 C 
HETATM   27  C20 UNL     1      28.782  12.695  49.020  1.00  0.00     0.039 C 
BRANCH  26  28
HETATM   28  C21 UNL     1      30.278  11.365  47.667  1.00  0.00     0.097 A 
HETATM   29  N4  UNL     1      31.347  10.879  48.040  1.00  0.00    -0.256 NA
HETATM   30  C22 UNL     1      32.447  10.994  47.288  1.00  0.00     0.124 A 
HETATM   31  C23 UNL     1      32.425  11.668  46.054  1.00  0.00     0.071 A 
HETATM   32  S1  UNL     1      30.591  12.164  46.038  1.00  0.00    -0.083 SA
ENDBRANCH  26  28
ENDBRANCH  23  26
ENDBRANCH   5  20
BRANCH   1  33
HETATM   33  C2  UNL     1      24.882   7.193  48.794  1.00  0.00     0.204 C 
BRANCH  33  34
HETATM   34  O1  UNL     1      24.922   8.047  49.894  1.00  0.00    -0.392 OA
HETATM   35  C1  UNL     1      23.704   8.009  50.600  1.00  0.00     0.201 C 
ENDBRANCH  33  34
ENDBRANCH   1  33
TORSDOF 8
ENDMDL
