MODEL 1
REMARK VINA RESULT:      -6.9      0.000      0.000
REMARK  6 active torsions:
REMARK  status: ('A' for Active; 'I' for Inactive)
REMARK    1  A    between atoms: C2_2  and  O1_3 
REMARK    2  A    between atoms: O1_3  and  C3_4 
REMARK    3  A    between atoms: C3_4  and  C4_5 
REMARK    4  A    between atoms: C4_5  and  O2_6 
REMARK    5  A    between atoms: O2_6  and  C5_7 
REMARK    6  A    between atoms: C14_20  and  O5_21 
ROOT
HETATM    1  C5  UNL     1      26.113   2.400  51.636  1.00  0.00     0.215 A 
HETATM    2  O3  UNL     1      26.881   2.909  50.689  1.00  0.00    -0.298 OA
HETATM    3  C6  UNL     1      26.106   3.268  49.697  1.00  0.00     0.158 A 
HETATM    4  C7  UNL     1      24.771   2.977  50.018  1.00  0.00     0.020 A 
HETATM    5  C8  UNL     1      24.784   2.418  51.269  1.00  0.00     0.128 A 
HETATM    6  N1  UNL     1      23.893   1.890  52.217  1.00  0.00    -0.236 NA
HETATM    7  C9  UNL     1      22.827   2.386  52.675  1.00  0.00     0.235 C 
HETATM    8  N2  UNL     1      22.550   3.642  52.114  1.00  0.00    -0.230 NA
HETATM    9  C10 UNL     1      23.269   4.700  52.196  1.00  0.00     0.252 C 
HETATM   10  O4  UNL     1      22.990   5.975  51.624  1.00  0.00    -0.341 OA
HETATM   11  C11 UNL     1      21.613   6.196  51.257  1.00  0.00     0.204 C 
HETATM   12  C12 UNL     1      21.422   7.323  50.342  1.00  0.00     0.002 C 
HETATM   13  C13 UNL     1      20.918   7.431  49.120  1.00  0.00     0.034 C 
HETATM   14  C14 UNL     1      20.324   6.661  48.040  1.00  0.00     0.065 C 
HETATM   15  C16 UNL     1      20.017   5.365  47.813  1.00  0.00     0.029 C 
HETATM   16  C17 UNL     1      19.972   3.914  48.232  1.00  0.00     0.144 C 
HETATM   17  N3  UNL     1      20.656   3.074  47.316  1.00  0.00    -0.415 N 
HETATM   18  C18 UNL     1      22.036   3.177  47.155  1.00  0.00     0.141 C 
HETATM   19  C19 UNL     1      22.936   2.769  48.228  1.00  0.00    -0.007 C 
HETATM   20  C20 UNL     1      23.866   3.334  48.965  1.00  0.00     0.013 C 
HETATM   21  H23 UNL     1      20.150   2.250  47.007  1.00  0.00     0.153 HD
ENDROOT
BRANCH   1  22
HETATM   22  O2  UNL     1      26.806   1.972  52.767  1.00  0.00    -0.326 OA
BRANCH  22  23
HETATM   23  C4  UNL     1      27.098   0.632  53.053  1.00  0.00     0.204 C 
BRANCH  23  24
HETATM   24  C3  UNL     1      27.101   0.319  54.532  1.00  0.00     0.194 C 
BRANCH  24  25
HETATM   25  O1  UNL     1      28.276  -0.277  54.975  1.00  0.00    -0.389 OA
BRANCH  25  26
HETATM   26  C2  UNL     1      29.364  -0.038  54.173  1.00  0.00     0.163 C 
HETATM   27  C1  UNL     1      29.895  -1.381  53.671  1.00  0.00     0.033 C 
ENDBRANCH  25  26
ENDBRANCH  24  25
ENDBRANCH  23  24
ENDBRANCH  22  23
ENDBRANCH   1  22
BRANCH  14  28
HETATM   28  O5  UNL     1      19.975   7.473  46.933  1.00  0.00    -0.356 OA
HETATM   29  C15 UNL     1      19.333   6.931  45.795  1.00  0.00     0.210 C 
ENDBRANCH  14  28
TORSDOF 6
ENDMDL
MODEL 2
REMARK VINA RESULT:      -6.9      2.462      3.459
REMARK  6 active torsions:
REMARK  status: ('A' for Active; 'I' for Inactive)
REMARK    1  A    between atoms: C2_2  and  O1_3 
REMARK    2  A    between atoms: O1_3  and  C3_4 
REMARK    3  A    between atoms: C3_4  and  C4_5 
REMARK    4  A    between atoms: C4_5  and  O2_6 
REMARK    5  A    between atoms: O2_6  and  C5_7 
REMARK    6  A    between atoms: C14_20  and  O5_21 
ROOT
HETATM    1  C5  UNL     1      24.364   1.848  53.061  1.00  0.00     0.215 A 
HETATM    2  O3  UNL     1      23.939   0.605  52.918  1.00  0.00    -0.298 OA
HETATM    3  C6  UNL     1      22.723   0.653  52.437  1.00  0.00     0.158 A 
HETATM    4  C7  UNL     1      22.343   1.992  52.261  1.00  0.00     0.020 A 
HETATM    5  C8  UNL     1      23.405   2.756  52.665  1.00  0.00     0.128 A 
HETATM    6  N1  UNL     1      23.772   4.106  52.788  1.00  0.00    -0.236 NA
HETATM    7  C9  UNL     1      23.691   5.036  51.938  1.00  0.00     0.235 C 
HETATM    8  N2  UNL     1      23.151   4.590  50.723  1.00  0.00    -0.230 NA
HETATM    9  C10 UNL     1      23.637   3.698  49.941  1.00  0.00     0.252 C 
HETATM   10  O4  UNL     1      23.087   3.244  48.708  1.00  0.00    -0.341 OA
HETATM   11  C11 UNL     1      22.118   4.126  48.105  1.00  0.00     0.204 C 
HETATM   12  C12 UNL     1      21.300   3.483  47.074  1.00  0.00     0.002 C 
HETATM   13  C13 UNL     1      19.996   3.281  46.938  1.00  0.00     0.034 C 
HETATM   14  C14 UNL     1      18.716   3.504  47.589  1.00  0.00     0.065 C 
HETATM   15  C16 UNL     1      18.285   4.067  48.739  1.00  0.00     0.029 C 
HETATM   16  C17 UNL     1      18.534   4.771  50.052  1.00  0.00     0.144 C 
HETATM   17  N3  UNL     1      18.007   4.048  51.152  1.00  0.00    -0.415 N 
HETATM   18  C18 UNL     1      18.537   2.808  51.506  1.00  0.00     0.141 C 
HETATM   19  C19 UNL     1      19.881   2.712  52.064  1.00  0.00    -0.007 C 
HETATM   20  C20 UNL     1      21.010   2.118  51.746  1.00  0.00     0.013 C 
HETATM   21  H23 UNL     1      17.440   4.582  51.804  1.00  0.00     0.153 HD
ENDROOT
BRANCH   1  22
HETATM   22  O2  UNL     1      25.659   1.956  53.568  1.00  0.00    -0.326 OA
BRANCH  22  23
HETATM   23  C4  UNL     1      26.606   0.924  53.537  1.00  0.00     0.204 C 
BRANCH  23  24
HETATM   24  C3  UNL     1      26.822   0.267  54.882  1.00  0.00     0.194 C 
BRANCH  24  25
HETATM   25  O1  UNL     1      28.069  -0.333  55.016  1.00  0.00    -0.389 OA
BRANCH  25  26
HETATM   26  C2  UNL     1      29.057   0.248  54.263  1.00  0.00     0.163 C 
HETATM   27  C1  UNL     1      29.886  -0.862  53.616  1.00  0.00     0.033 C 
ENDBRANCH  25  26
ENDBRANCH  24  25
ENDBRANCH  23  24
ENDBRANCH  22  23
ENDBRANCH   1  22
BRANCH  14  28
HETATM   28  O5  UNL     1      17.634   3.003  46.826  1.00  0.00    -0.356 OA
HETATM   29  C15 UNL     1      17.698   2.928  45.414  1.00  0.00     0.210 C 
ENDBRANCH  14  28
TORSDOF 6
ENDMDL
MODEL 3
REMARK VINA RESULT:      -6.9      3.201      8.306
REMARK  6 active torsions:
REMARK  status: ('A' for Active; 'I' for Inactive)
REMARK    1  A    between atoms: C2_2  and  O1_3 
REMARK    2  A    between atoms: O1_3  and  C3_4 
REMARK    3  A    between atoms: C3_4  and  C4_5 
REMARK    4  A    between atoms: C4_5  and  O2_6 
REMARK    5  A    between atoms: O2_6  and  C5_7 
REMARK    6  A    between atoms: C14_20  and  O5_21 
ROOT
HETATM    1  C5  UNL     1      20.196   3.147  48.606  1.00  0.00     0.215 A 
HETATM    2  O3  UNL     1      20.753   2.326  47.733  1.00  0.00    -0.298 OA
HETATM    3  C6  UNL     1      21.926   1.983  48.200  1.00  0.00     0.158 A 
HETATM    4  C7  UNL     1      22.139   2.613  49.436  1.00  0.00     0.020 A 
HETATM    5  C8  UNL     1      21.020   3.360  49.691  1.00  0.00     0.128 A 
HETATM    6  N1  UNL     1      20.508   4.227  50.670  1.00  0.00    -0.236 NA
HETATM    7  C9  UNL     1      20.432   4.064  51.919  1.00  0.00     0.235 C 
HETATM    8  N2  UNL     1      20.951   2.823  52.319  1.00  0.00    -0.230 NA
HETATM    9  C10 UNL     1      20.526   1.663  51.979  1.00  0.00     0.252 C 
HETATM   10  O4  UNL     1      21.054   0.403  52.383  1.00  0.00    -0.341 OA
HETATM   11  C11 UNL     1      21.879   0.432  53.566  1.00  0.00     0.204 C 
HETATM   12  C12 UNL     1      22.706  -0.765  53.736  1.00  0.00     0.002 C 
HETATM   13  C13 UNL     1      24.014  -0.967  53.814  1.00  0.00     0.034 C 
HETATM   14  C14 UNL     1      25.295  -0.280  53.787  1.00  0.00     0.065 C 
HETATM   15  C16 UNL     1      25.724   0.992  53.643  1.00  0.00     0.029 C 
HETATM   16  C17 UNL     1      25.470   2.467  53.435  1.00  0.00     0.144 C 
HETATM   17  N3  UNL     1      26.138   2.965  52.287  1.00  0.00    -0.415 N 
HETATM   18  C18 UNL     1      25.775   2.535  51.012  1.00  0.00     0.141 C 
HETATM   19  C19 UNL     1      24.486   2.911  50.446  1.00  0.00    -0.007 C 
HETATM   20  C20 UNL     1      23.417   2.289  50.001  1.00  0.00     0.013 C 
HETATM   21  H23 UNL     1      26.676   3.815  52.421  1.00  0.00     0.153 HD
ENDROOT
BRANCH   1  22
HETATM   22  O2  UNL     1      18.929   3.599  48.240  1.00  0.00    -0.326 OA
BRANCH  22  23
HETATM   23  C4  UNL     1      17.755   2.845  48.370  1.00  0.00     0.204 C 
BRANCH  23  24
HETATM   24  C3  UNL     1      17.099   2.982  49.726  1.00  0.00     0.194 C 
BRANCH  24  25
HETATM   25  O1  UNL     1      17.411   1.951  50.604  1.00  0.00    -0.389 OA
BRANCH  25  26
HETATM   26  C2  UNL     1      17.426   0.706  50.028  1.00  0.00     0.163 C 
HETATM   27  C1  UNL     1      17.399  -0.340  51.142  1.00  0.00     0.033 C 
ENDBRANCH  25  26
ENDBRANCH  24  25
ENDBRANCH  23  24
ENDBRANCH  22  23
ENDBRANCH   1  22
BRANCH  14  28
HETATM   28  O5  UNL     1      26.383  -1.173  53.953  1.00  0.00    -0.356 OA
HETATM   29  C15 UNL     1      27.544  -1.077  53.150  1.00  0.00     0.210 C 
ENDBRANCH  14  28
TORSDOF 6
ENDMDL
MODEL 4
REMARK VINA RESULT:      -6.7      2.361      8.140
REMARK  6 active torsions:
REMARK  status: ('A' for Active; 'I' for Inactive)
REMARK    1  A    between atoms: C2_2  and  O1_3 
REMARK    2  A    between atoms: O1_3  and  C3_4 
REMARK    3  A    between atoms: C3_4  and  C4_5 
REMARK    4  A    between atoms: C4_5  and  O2_6 
REMARK    5  A    between atoms: O2_6  and  C5_7 
REMARK    6  A    between atoms: C14_20  and  O5_21 
ROOT
HETATM    1  C5  UNL     1      21.425   4.533  48.496  1.00  0.00     0.215 A 
HETATM    2  O3  UNL     1      21.800   3.664  47.575  1.00  0.00    -0.298 OA
HETATM    3  C6  UNL     1      22.840   3.018  48.037  1.00  0.00     0.158 A 
HETATM    4  C7  UNL     1      23.154   3.493  49.320  1.00  0.00     0.020 A 
HETATM    5  C8  UNL     1      22.237   4.469  49.608  1.00  0.00     0.128 A 
HETATM    6  N1  UNL     1      21.913   5.365  50.639  1.00  0.00    -0.236 NA
HETATM    7  C9  UNL     1      21.757   5.142  51.872  1.00  0.00     0.235 C 
HETATM    8  N2  UNL     1      21.950   3.789  52.188  1.00  0.00    -0.230 NA
HETATM    9  C10 UNL     1      21.274   2.790  51.756  1.00  0.00     0.252 C 
HETATM   10  O4  UNL     1      21.471   1.416  52.075  1.00  0.00    -0.341 OA
HETATM   11  C11 UNL     1      22.238   1.166  53.272  1.00  0.00     0.204 C 
HETATM   12  C12 UNL     1      22.748  -0.203  53.368  1.00  0.00     0.002 C 
HETATM   13  C13 UNL     1      23.967  -0.718  53.455  1.00  0.00     0.034 C 
HETATM   14  C14 UNL     1      25.375  -0.360  53.501  1.00  0.00     0.065 C 
HETATM   15  C16 UNL     1      26.100   0.780  53.459  1.00  0.00     0.029 C 
HETATM   16  C17 UNL     1      26.213   2.282  53.355  1.00  0.00     0.144 C 
HETATM   17  N3  UNL     1      27.020   2.681  52.259  1.00  0.00    -0.415 N 
HETATM   18  C18 UNL     1      26.610   2.437  50.950  1.00  0.00     0.141 C 
HETATM   19  C19 UNL     1      25.467   3.150  50.389  1.00  0.00    -0.007 C 
HETATM   20  C20 UNL     1      24.297   2.834  49.881  1.00  0.00     0.013 C 
HETATM   21  H23 UNL     1      27.740   3.366  52.465  1.00  0.00     0.153 HD
ENDROOT
BRANCH   1  22
HETATM   22  O2  UNL     1      20.316   5.300  48.143  1.00  0.00    -0.326 OA
BRANCH  22  23
HETATM   23  C4  UNL     1      20.314   6.262  47.124  1.00  0.00     0.204 C 
BRANCH  23  24
HETATM   24  C3  UNL     1      21.154   7.479  47.445  1.00  0.00     0.194 C 
BRANCH  24  25
HETATM   25  O1  UNL     1      22.220   7.667  46.573  1.00  0.00    -0.389 OA
BRANCH  25  26
HETATM   26  C2  UNL     1      23.378   7.041  46.958  1.00  0.00     0.163 C 
HETATM   27  C1  UNL     1      23.780   7.576  48.334  1.00  0.00     0.033 C 
ENDBRANCH  25  26
ENDBRANCH  24  25
ENDBRANCH  23  24
ENDBRANCH  22  23
ENDBRANCH   1  22
BRANCH  14  28
HETATM   28  O5  UNL     1      26.212  -1.496  53.619  1.00  0.00    -0.356 OA
HETATM   29  C15 UNL     1      26.908  -2.019  52.504  1.00  0.00     0.210 C 
ENDBRANCH  14  28
TORSDOF 6
ENDMDL
MODEL 5
REMARK VINA RESULT:      -6.4      3.408      6.044
REMARK  6 active torsions:
REMARK  status: ('A' for Active; 'I' for Inactive)
REMARK    1  A    between atoms: C2_2  and  O1_3 
REMARK    2  A    between atoms: O1_3  and  C3_4 
REMARK    3  A    between atoms: C3_4  and  C4_5 
REMARK    4  A    between atoms: C4_5  and  O2_6 
REMARK    5  A    between atoms: O2_6  and  C5_7 
REMARK    6  A    between atoms: C14_20  and  O5_21 
ROOT
HETATM    1  C5  UNL     1      20.300   3.130  50.036  1.00  0.00     0.215 A 
HETATM    2  O3  UNL     1      20.151   3.155  48.723  1.00  0.00    -0.298 OA
HETATM    3  C6  UNL     1      20.949   4.077  48.249  1.00  0.00     0.158 A 
HETATM    4  C7  UNL     1      21.648   4.679  49.307  1.00  0.00     0.020 A 
HETATM    5  C8  UNL     1      21.225   4.063  50.454  1.00  0.00     0.128 A 
HETATM    6  N1  UNL     1      21.444   4.110  51.841  1.00  0.00    -0.236 NA
HETATM    7  C9  UNL     1      22.533   4.093  52.478  1.00  0.00     0.235 C 
HETATM    8  N2  UNL     1      23.641   4.018  51.621  1.00  0.00    -0.230 NA
HETATM    9  C10 UNL     1      23.920   3.074  50.800  1.00  0.00     0.252 C 
HETATM   10  O4  UNL     1      25.044   2.999  49.928  1.00  0.00    -0.341 OA
HETATM   11  C11 UNL     1      26.150   3.858  50.274  1.00  0.00     0.204 C 
HETATM   12  C12 UNL     1      27.108   4.051  49.183  1.00  0.00     0.002 C 
HETATM   13  C13 UNL     1      27.538   5.119  48.526  1.00  0.00     0.034 C 
HETATM   14  C14 UNL     1      27.389   6.563  48.438  1.00  0.00     0.065 C 
HETATM   15  C16 UNL     1      26.656   7.513  49.057  1.00  0.00     0.029 C 
HETATM   16  C17 UNL     1      25.627   7.949  50.073  1.00  0.00     0.144 C 
HETATM   17  N3  UNL     1      24.552   8.653  49.474  1.00  0.00    -0.415 N 
HETATM   18  C18 UNL     1      23.682   8.007  48.597  1.00  0.00     0.141 C 
HETATM   19  C19 UNL     1      22.763   6.987  49.087  1.00  0.00    -0.007 C 
HETATM   20  C20 UNL     1      22.535   5.713  48.857  1.00  0.00     0.013 C 
HETATM   21  H23 UNL     1      24.298   9.533  49.912  1.00  0.00     0.153 HD
ENDROOT
BRANCH   1  22
HETATM   22  O2  UNL     1      19.507   2.185  50.685  1.00  0.00    -0.326 OA
BRANCH  22  23
HETATM   23  C4  UNL     1      19.772   0.809  50.698  1.00  0.00     0.204 C 
BRANCH  23  24
HETATM   24  C3  UNL     1      21.184   0.473  51.124  1.00  0.00     0.194 C 
BRANCH  24  25
HETATM   25  O1  UNL     1      21.260  -0.138  52.370  1.00  0.00    -0.389 OA
BRANCH  25  26
HETATM   26  C2  UNL     1      22.044   0.529  53.276  1.00  0.00     0.163 C 
HETATM   27  C1  UNL     1      23.496   0.099  53.065  1.00  0.00     0.033 C 
ENDBRANCH  25  26
ENDBRANCH  24  25
ENDBRANCH  23  24
ENDBRANCH  22  23
ENDBRANCH   1  22
BRANCH  14  28
HETATM   28  O5  UNL     1      28.227   7.127  47.445  1.00  0.00    -0.356 OA
HETATM   29  C15 UNL     1      27.945   8.389  46.871  1.00  0.00     0.210 C 
ENDBRANCH  14  28
TORSDOF 6
ENDMDL
MODEL 6
REMARK VINA RESULT:      -6.3      3.121      7.172
REMARK  6 active torsions:
REMARK  status: ('A' for Active; 'I' for Inactive)
REMARK    1  A    between atoms: C2_2  and  O1_3 
REMARK    2  A    between atoms: O1_3  and  C3_4 
REMARK    3  A    between atoms: C3_4  and  C4_5 
REMARK    4  A    between atoms: C4_5  and  O2_6 
REMARK    5  A    between atoms: O2_6  and  C5_7 
REMARK    6  A    between atoms: C14_20  and  O5_21 
ROOT
HETATM    1  C5  UNL     1      22.288   7.368  49.110  1.00  0.00     0.215 A 
HETATM    2  O3  UNL     1      22.093   7.903  50.302  1.00  0.00    -0.298 OA
HETATM    3  C6  UNL     1      21.572   6.982  51.072  1.00  0.00     0.158 A 
HETATM    4  C7  UNL     1      21.422   5.793  50.341  1.00  0.00     0.020 A 
HETATM    5  C8  UNL     1      21.886   6.050  49.079  1.00  0.00     0.128 A 
HETATM    6  N1  UNL     1      22.054   5.402  47.844  1.00  0.00    -0.236 NA
HETATM    7  C9  UNL     1      22.593   4.289  47.593  1.00  0.00     0.235 C 
HETATM    8  N2  UNL     1      23.071   3.664  48.755  1.00  0.00    -0.230 NA
HETATM    9  C10 UNL     1      23.971   4.104  49.555  1.00  0.00     0.252 C 
HETATM   10  O4  UNL     1      24.454   3.470  50.736  1.00  0.00    -0.341 OA
HETATM   11  C11 UNL     1      24.191   2.055  50.826  1.00  0.00     0.204 C 
HETATM   12  C12 UNL     1      24.343   1.514  52.179  1.00  0.00     0.002 C 
HETATM   13  C13 UNL     1      23.517   0.897  53.012  1.00  0.00     0.034 C 
HETATM   14  C14 UNL     1      22.150   0.421  53.148  1.00  0.00     0.065 C 
HETATM   15  C16 UNL     1      21.030   0.425  52.393  1.00  0.00     0.029 C 
HETATM   16  C17 UNL     1      20.277   0.776  51.131  1.00  0.00     0.144 C 
HETATM   17  N3  UNL     1      19.129   1.565  51.399  1.00  0.00    -0.415 N 
HETATM   18  C18 UNL     1      19.260   2.859  51.900  1.00  0.00     0.141 C 
HETATM   19  C19 UNL     1      19.817   3.920  51.069  1.00  0.00    -0.007 C 
HETATM   20  C20 UNL     1      20.842   4.741  51.124  1.00  0.00     0.013 C 
HETATM   21  H23 UNL     1      18.266   1.254  50.965  1.00  0.00     0.153 HD
ENDROOT
BRANCH   1  22
HETATM   22  O2  UNL     1      22.846   8.240  48.175  1.00  0.00    -0.326 OA
BRANCH  22  23
HETATM   23  C4  UNL     1      24.213   8.529  48.085  1.00  0.00     0.204 C 
BRANCH  23  24
HETATM   24  C3  UNL     1      25.030   7.397  47.503  1.00  0.00     0.194 C 
BRANCH  24  25
HETATM   25  O1  UNL     1      26.382   7.462  47.821  1.00  0.00    -0.389 OA
BRANCH  25  26
HETATM   26  C2  UNL     1      26.721   6.797  48.972  1.00  0.00     0.163 C 
HETATM   27  C1  UNL     1      27.381   5.473  48.585  1.00  0.00     0.033 C 
ENDBRANCH  25  26
ENDBRANCH  24  25
ENDBRANCH  23  24
ENDBRANCH  22  23
ENDBRANCH   1  22
BRANCH  14  28
HETATM   28  O5  UNL     1      21.925  -0.211  54.396  1.00  0.00    -0.356 OA
HETATM   29  C15 UNL     1      21.245  -1.449  54.483  1.00  0.00     0.210 C 
ENDBRANCH  14  28
TORSDOF 6
ENDMDL
MODEL 7
REMARK VINA RESULT:      -6.2      4.690      6.199
REMARK  6 active torsions:
REMARK  status: ('A' for Active; 'I' for Inactive)
REMARK    1  A    between atoms: C2_2  and  O1_3 
REMARK    2  A    between atoms: O1_3  and  C3_4 
REMARK    3  A    between atoms: C3_4  and  C4_5 
REMARK    4  A    between atoms: C4_5  and  O2_6 
REMARK    5  A    between atoms: O2_6  and  C5_7 
REMARK    6  A    between atoms: C14_20  and  O5_21 
ROOT
HETATM    1  C5  UNL     1      29.014   6.338  48.240  1.00  0.00     0.215 A 
HETATM    2  O3  UNL     1      28.757   5.044  48.177  1.00  0.00    -0.298 OA
HETATM    3  C6  UNL     1      27.530   4.860  48.593  1.00  0.00     0.158 A 
HETATM    4  C7  UNL     1      26.965   6.096  48.942  1.00  0.00     0.020 A 
HETATM    5  C8  UNL     1      27.927   7.043  48.712  1.00  0.00     0.128 A 
HETATM    6  N1  UNL     1      28.113   8.431  48.816  1.00  0.00    -0.236 NA
HETATM    7  C9  UNL     1      27.380   9.369  48.395  1.00  0.00     0.235 C 
HETATM    8  N2  UNL     1      26.236   8.887  47.741  1.00  0.00    -0.230 NA
HETATM    9  C10 UNL     1      26.197   8.164  46.684  1.00  0.00     0.252 C 
HETATM   10  O4  UNL     1      25.035   7.672  46.022  1.00  0.00    -0.341 OA
HETATM   11  C11 UNL     1      23.808   8.362  46.339  1.00  0.00     0.204 C 
HETATM   12  C12 UNL     1      22.602   7.619  45.965  1.00  0.00     0.002 C 
HETATM   13  C13 UNL     1      21.568   7.153  46.651  1.00  0.00     0.034 C 
HETATM   14  C14 UNL     1      21.013   7.063  47.992  1.00  0.00     0.065 C 
HETATM   15  C16 UNL     1      21.376   7.457  49.232  1.00  0.00     0.029 C 
HETATM   16  C17 UNL     1      22.335   8.123  50.190  1.00  0.00     0.144 C 
HETATM   17  N3  UNL     1      22.754   7.245  51.221  1.00  0.00    -0.415 N 
HETATM   18  C18 UNL     1      23.534   6.128  50.928  1.00  0.00     0.141 C 
HETATM   19  C19 UNL     1      24.913   6.288  50.481  1.00  0.00    -0.007 C 
HETATM   20  C20 UNL     1      25.620   5.965  49.421  1.00  0.00     0.013 C 
HETATM   21  H23 UNL     1      22.692   7.609  52.167  1.00  0.00     0.153 HD
ENDROOT
BRANCH   1  22
HETATM   22  O2  UNL     1      30.296   6.690  47.822  1.00  0.00    -0.326 OA
BRANCH  22  23
HETATM   23  C4  UNL     1      31.409   6.766  48.670  1.00  0.00     0.204 C 
BRANCH  23  24
HETATM   24  C3  UNL     1      32.485   5.756  48.343  1.00  0.00     0.194 C 
BRANCH  24  25
HETATM   25  O1  UNL     1      32.085   4.437  48.520  1.00  0.00    -0.389 OA
BRANCH  25  26
HETATM   26  C2  UNL     1      32.788   3.529  47.770  1.00  0.00     0.163 C 
HETATM   27  C1  UNL     1      31.961   3.187  46.530  1.00  0.00     0.033 C 
ENDBRANCH  25  26
ENDBRANCH  24  25
ENDBRANCH  23  24
ENDBRANCH  22  23
ENDBRANCH   1  22
BRANCH  14  28
HETATM   28  O5  UNL     1      19.769   6.387  48.011  1.00  0.00    -0.356 OA
HETATM   29  C15 UNL     1      19.307   5.724  49.173  1.00  0.00     0.210 C 
ENDBRANCH  14  28
TORSDOF 6
ENDMDL
MODEL 8
REMARK VINA RESULT:      -6.2      1.856      2.583
REMARK  6 active torsions:
REMARK  status: ('A' for Active; 'I' for Inactive)
REMARK    1  A    between atoms: C2_2  and  O1_3 
REMARK    2  A    between atoms: O1_3  and  C3_4 
REMARK    3  A    between atoms: C3_4  and  C4_5 
REMARK    4  A    between atoms: C4_5  and  O2_6 
REMARK    5  A    between atoms: O2_6  and  C5_7 
REMARK    6  A    between atoms: C14_20  and  O5_21 
ROOT
HETATM    1  C5  UNL     1      24.714   2.659  52.029  1.00  0.00     0.215 A 
HETATM    2  O3  UNL     1      25.742   2.946  51.250  1.00  0.00    -0.298 OA
HETATM    3  C6  UNL     1      25.271   3.288  50.078  1.00  0.00     0.158 A 
HETATM    4  C7  UNL     1      23.869   3.219  50.100  1.00  0.00     0.020 A 
HETATM    5  C8  UNL     1      23.518   2.814  51.360  1.00  0.00     0.128 A 
HETATM    6  N1  UNL     1      22.369   2.525  52.113  1.00  0.00    -0.236 NA
HETATM    7  C9  UNL     1      21.320   3.211  52.265  1.00  0.00     0.235 C 
HETATM    8  N2  UNL     1      21.376   4.418  51.553  1.00  0.00    -0.230 NA
HETATM    9  C10 UNL     1      22.217   5.371  51.714  1.00  0.00     0.252 C 
HETATM   10  O4  UNL     1      22.276   6.597  50.989  1.00  0.00    -0.341 OA
HETATM   11  C11 UNL     1      21.065   6.958  50.292  1.00  0.00     0.204 C 
HETATM   12  C12 UNL     1      21.261   7.986  49.268  1.00  0.00     0.002 C 
HETATM   13  C13 UNL     1      21.062   8.017  47.957  1.00  0.00     0.034 C 
HETATM   14  C14 UNL     1      20.605   7.213  46.835  1.00  0.00     0.065 C 
HETATM   15  C16 UNL     1      20.155   5.954  46.650  1.00  0.00     0.029 C 
HETATM   16  C17 UNL     1      19.790   4.581  47.165  1.00  0.00     0.144 C 
HETATM   17  N3  UNL     1      20.517   3.556  46.509  1.00  0.00    -0.415 N 
HETATM   18  C18 UNL     1      21.898   3.451  46.668  1.00  0.00     0.141 C 
HETATM   19  C19 UNL     1      22.464   3.053  47.952  1.00  0.00    -0.007 C 
HETATM   20  C20 UNL     1      23.286   3.570  48.838  1.00  0.00     0.013 C 
HETATM   21  H23 UNL     1      19.968   2.777  46.159  1.00  0.00     0.153 HD
ENDROOT
BRANCH   1  22
HETATM   22  O2  UNL     1      25.064   2.276  53.323  1.00  0.00    -0.326 OA
BRANCH  22  23
HETATM   23  C4  UNL     1      25.656   1.049  53.649  1.00  0.00     0.204 C 
BRANCH  23  24
HETATM   24  C3  UNL     1      24.871  -0.146  53.157  1.00  0.00     0.194 C 
BRANCH  24  25
HETATM   25  O1  UNL     1      23.888  -0.572  54.043  1.00  0.00    -0.389 OA
BRANCH  25  26
HETATM   26  C2  UNL     1      22.671  -0.814  53.460  1.00  0.00     0.163 C 
HETATM   27  C1  UNL     1      21.684  -1.220  54.555  1.00  0.00     0.033 C 
ENDBRANCH  25  26
ENDBRANCH  24  25
ENDBRANCH  23  24
ENDBRANCH  22  23
ENDBRANCH   1  22
BRANCH  14  28
HETATM   28  O5  UNL     1      20.641   7.930  45.614  1.00  0.00    -0.356 OA
HETATM   29  C15 UNL     1      21.346   7.439  44.491  1.00  0.00     0.210 C 
ENDBRANCH  14  28
TORSDOF 6
ENDMDL
MODEL 9
REMARK VINA RESULT:      -6.1      2.233      2.979
REMARK  6 active torsions:
REMARK  status: ('A' for Active; 'I' for Inactive)
REMARK    1  A    between atoms: C2_2  and  O1_3 
REMARK    2  A    between atoms: O1_3  and  C3_4 
REMARK    3  A    between atoms: C3_4  and  C4_5 
REMARK    4  A    between atoms: C4_5  and  O2_6 
REMARK    5  A    between atoms: O2_6  and  C5_7 
REMARK    6  A    between atoms: C14_20  and  O5_21 
ROOT
HETATM    1  C5  UNL     1      24.217   2.384  52.541  1.00  0.00     0.215 A 
HETATM    2  O3  UNL     1      23.857   1.198  52.083  1.00  0.00    -0.298 OA
HETATM    3  C6  UNL     1      22.739   1.349  51.420  1.00  0.00     0.158 A 
HETATM    4  C7  UNL     1      22.357   2.699  51.451  1.00  0.00     0.020 A 
HETATM    5  C8  UNL     1      23.314   3.359  52.174  1.00  0.00     0.128 A 
HETATM    6  N1  UNL     1      23.617   4.655  52.624  1.00  0.00    -0.236 NA
HETATM    7  C9  UNL     1      23.656   5.736  51.974  1.00  0.00     0.235 C 
HETATM    8  N2  UNL     1      23.341   5.547  50.620  1.00  0.00    -0.230 NA
HETATM    9  C10 UNL     1      23.977   4.826  49.773  1.00  0.00     0.252 C 
HETATM   10  O4  UNL     1      23.657   4.632  48.398  1.00  0.00    -0.341 OA
HETATM   11  C11 UNL     1      22.780   5.623  47.825  1.00  0.00     0.204 C 
HETATM   12  C12 UNL     1      22.166   5.206  46.562  1.00  0.00     0.002 C 
HETATM   13  C13 UNL     1      20.910   5.044  46.168  1.00  0.00     0.034 C 
HETATM   14  C14 UNL     1      19.533   5.141  46.621  1.00  0.00     0.065 C 
HETATM   15  C16 UNL     1      18.897   5.464  47.768  1.00  0.00     0.029 C 
HETATM   16  C17 UNL     1      18.901   5.890  49.218  1.00  0.00     0.144 C 
HETATM   17  N3  UNL     1      18.216   4.965  50.046  1.00  0.00    -0.415 N 
HETATM   18  C18 UNL     1      18.713   3.676  50.232  1.00  0.00     0.141 C 
HETATM   19  C19 UNL     1      19.945   3.461  50.982  1.00  0.00    -0.007 C 
HETATM   20  C20 UNL     1      21.127   2.935  50.751  1.00  0.00     0.013 C 
HETATM   21  H23 UNL     1      17.532   5.361  50.683  1.00  0.00     0.153 HD
ENDROOT
BRANCH   1  22
HETATM   22  O2  UNL     1      25.403   2.379  53.273  1.00  0.00    -0.326 OA
BRANCH  22  23
HETATM   23  C4  UNL     1      26.239   1.264  53.413  1.00  0.00     0.204 C 
BRANCH  23  24
HETATM   24  C3  UNL     1      27.711   1.612  53.416  1.00  0.00     0.194 C 
BRANCH  24  25
HETATM   25  O1  UNL     1      28.344   1.352  54.626  1.00  0.00    -0.389 OA
BRANCH  25  26
HETATM   26  C2  UNL     1      28.760   0.054  54.776  1.00  0.00     0.163 C 
HETATM   27  C1  UNL     1      29.670  -0.298  53.599  1.00  0.00     0.033 C 
ENDBRANCH  25  26
ENDBRANCH  24  25
ENDBRANCH  23  24
ENDBRANCH  22  23
ENDBRANCH   1  22
BRANCH  14  28
HETATM   28  O5  UNL     1      18.609   4.809  45.599  1.00  0.00    -0.356 OA
HETATM   29  C15 UNL     1      17.280   5.294  45.620  1.00  0.00     0.210 C 
ENDBRANCH  14  28
TORSDOF 6
ENDMDL
