MODEL 1
REMARK VINA RESULT:      -7.6      0.000      0.000
REMARK  5 active torsions:
REMARK  status: ('A' for Active; 'I' for Inactive)
REMARK    1  A    between atoms: C2_2  and  C3_3 
REMARK       I    between atoms: C3_3  and  N1_5 
REMARK    2  A    between atoms: N1_5  and  C4_6 
REMARK    3  A    between atoms: C8_10  and  C9_11 
REMARK    4  A    between atoms: C11_15  and  C12_16 
REMARK    5  A    between atoms: C12_16  and  C13_17 
ROOT
HETATM    1  C4  UNL     1      25.137  -0.636  54.142  1.00  0.00     0.035 A 
HETATM    2  C5  UNL     1      24.456  -1.257  55.166  1.00  0.00     0.029 A 
HETATM    3  C6  UNL     1      23.079  -1.184  55.183  1.00  0.00     0.003 A 
HETATM    4  C7  UNL     1      22.452  -0.491  54.173  1.00  0.00     0.013 A 
HETATM    5  C8  UNL     1      23.074   0.149  53.124  1.00  0.00    -0.009 A 
HETATM    6  C17 UNL     1      24.448   0.040  53.162  1.00  0.00     0.043 A 
ENDROOT
BRANCH   5   7
HETATM    7  C9  UNL     1      22.399   0.879  52.064  1.00  0.00     0.049 C 
HETATM    8  N2  UNL     1      21.356   0.259  51.631  1.00  0.00    -0.245 NA
HETATM    9  C10 UNL     1      20.456   0.665  50.610  1.00  0.00     0.233 C 
HETATM   10  N3  UNL     1      20.709   1.384  49.571  1.00  0.00    -0.242 NA
HETATM   11  C11 UNL     1      21.960   1.944  49.201  1.00  0.00     0.055 C 
HETATM   12  C15 UNL     1      22.897   2.279  50.103  1.00  0.00     0.011 C 
HETATM   13  C16 UNL     1      22.907   2.179  51.592  1.00  0.00     0.089 C 
BRANCH  11  14
HETATM   14  C12 UNL     1      22.277   2.182  47.799  1.00  0.00     0.045 C 
BRANCH  14  15
HETATM   15  C13 UNL     1      21.943   3.224  47.064  1.00  0.00    -0.013 C 
HETATM   16  C14 UNL     1      21.986   3.589  45.629  1.00  0.00     0.056 C 
HETATM   17 BR1  UNL     1      21.181   4.790  47.888  1.00  0.00    -0.056 Br
ENDBRANCH  14  15
ENDBRANCH  11  14
ENDBRANCH   5   7
BRANCH   1  18
HETATM   18  N1  UNL     1      26.554  -0.715  54.128  1.00  0.00    -0.324 N 
HETATM   19  C3  UNL     1      27.582   0.208  54.504  1.00  0.00     0.244 C 
HETATM   20  O1  UNL     1      27.051   1.290  54.923  1.00  0.00    -0.268 OA
HETATM   21  H4  UNL     1      26.687  -1.660  53.758  1.00  0.00     0.169 HD
BRANCH  19  22
HETATM   22  C2  UNL     1      28.966  -0.220  54.352  1.00  0.00     0.064 C 
HETATM   23  C1  UNL     1      29.443  -1.123  53.513  1.00  0.00     0.017 C 
ENDBRANCH  19  22
ENDBRANCH   1  18
TORSDOF 5
ENDMDL
MODEL 2
REMARK VINA RESULT:      -7.6      2.995      3.362
REMARK  5 active torsions:
REMARK  status: ('A' for Active; 'I' for Inactive)
REMARK    1  A    between atoms: C2_2  and  C3_3 
REMARK       I    between atoms: C3_3  and  N1_5 
REMARK    2  A    between atoms: N1_5  and  C4_6 
REMARK    3  A    between atoms: C8_10  and  C9_11 
REMARK    4  A    between atoms: C11_15  and  C12_16 
REMARK    5  A    between atoms: C12_16  and  C13_17 
ROOT
HETATM    1  C4  UNL     1      25.701   0.045  53.102  1.00  0.00     0.035 A 
HETATM    2  C5  UNL     1      24.721  -0.654  53.773  1.00  0.00     0.029 A 
HETATM    3  C6  UNL     1      23.408  -0.263  53.619  1.00  0.00     0.003 A 
HETATM    4  C7  UNL     1      23.140   0.809  52.800  1.00  0.00     0.013 A 
HETATM    5  C8  UNL     1      24.071   1.547  52.103  1.00  0.00    -0.009 A 
HETATM    6  C17 UNL     1      25.364   1.109  52.297  1.00  0.00     0.043 A 
ENDROOT
BRANCH   5   7
HETATM    7  C9  UNL     1      23.774   2.679  51.241  1.00  0.00     0.049 C 
HETATM    8  N2  UNL     1      23.363   2.313  50.077  1.00  0.00    -0.245 NA
HETATM    9  C10 UNL     1      22.983   3.136  48.983  1.00  0.00     0.233 C 
HETATM   10  N3  UNL     1      23.426   4.308  48.682  1.00  0.00    -0.242 NA
HETATM   11  C11 UNL     1      24.408   5.058  49.380  1.00  0.00     0.055 C 
HETATM   12  C15 UNL     1      24.611   4.929  50.702  1.00  0.00     0.011 C 
HETATM   13  C16 UNL     1      23.945   4.063  51.718  1.00  0.00     0.089 C 
BRANCH  11  14
HETATM   14  C12 UNL     1      25.247   6.016  48.673  1.00  0.00     0.045 C 
BRANCH  14  15
HETATM   15  C13 UNL     1      26.564   6.059  48.636  1.00  0.00    -0.013 C 
HETATM   16  C14 UNL     1      27.672   5.079  48.570  1.00  0.00     0.056 C 
HETATM   17 BR1  UNL     1      27.482   7.752  48.667  1.00  0.00    -0.056 Br
ENDBRANCH  14  15
ENDBRANCH  11  14
ENDBRANCH   5   7
BRANCH   1  18
HETATM   18  N1  UNL     1      27.051  -0.361  53.263  1.00  0.00    -0.324 N 
HETATM   19  C3  UNL     1      28.088   0.049  54.162  1.00  0.00     0.244 C 
HETATM   20  O1  UNL     1      27.643   0.957  54.940  1.00  0.00    -0.268 OA
HETATM   21  H4  UNL     1      27.123  -1.073  52.531  1.00  0.00     0.169 HD
BRANCH  19  22
HETATM   22  C2  UNL     1      29.386  -0.601  54.040  1.00  0.00     0.064 C 
HETATM   23  C1  UNL     1      29.666  -1.731  53.413  1.00  0.00     0.017 C 
ENDBRANCH  19  22
ENDBRANCH   1  18
TORSDOF 5
ENDMDL
MODEL 3
REMARK VINA RESULT:      -7.6      3.215      4.768
REMARK  5 active torsions:
REMARK  status: ('A' for Active; 'I' for Inactive)
REMARK    1  A    between atoms: C2_2  and  C3_3 
REMARK       I    between atoms: C3_3  and  N1_5 
REMARK    2  A    between atoms: N1_5  and  C4_6 
REMARK    3  A    between atoms: C8_10  and  C9_11 
REMARK    4  A    between atoms: C11_15  and  C12_16 
REMARK    5  A    between atoms: C12_16  and  C13_17 
ROOT
HETATM    1  C4  UNL     1      26.374   1.395  52.119  1.00  0.00     0.035 A 
HETATM    2  C5  UNL     1      26.554   2.293  51.088  1.00  0.00     0.029 A 
HETATM    3  C6  UNL     1      25.445   2.909  50.548  1.00  0.00     0.003 A 
HETATM    4  C7  UNL     1      24.209   2.595  51.066  1.00  0.00     0.013 A 
HETATM    5  C8  UNL     1      23.964   1.710  52.093  1.00  0.00    -0.009 A 
HETATM    6  C17 UNL     1      25.110   1.128  52.590  1.00  0.00     0.043 A 
ENDROOT
BRANCH   5   7
HETATM    7  C9  UNL     1      22.652   1.387  52.630  1.00  0.00     0.049 C 
HETATM    8  N2  UNL     1      22.685   0.374  53.425  1.00  0.00    -0.245 NA
HETATM    9  C10 UNL     1      21.605  -0.223  54.128  1.00  0.00     0.233 C 
HETATM   10  N3  UNL     1      20.366  -0.281  53.778  1.00  0.00    -0.242 NA
HETATM   11  C11 UNL     1      19.786   0.242  52.593  1.00  0.00     0.055 C 
HETATM   12  C15 UNL     1      20.287   1.314  51.956  1.00  0.00     0.011 C 
HETATM   13  C16 UNL     1      21.465   2.178  52.263  1.00  0.00     0.089 C 
BRANCH  11  14
HETATM   14  C12 UNL     1      18.600  -0.375  52.016  1.00  0.00     0.045 C 
BRANCH  14  15
HETATM   15  C13 UNL     1      17.660  -1.054  52.643  1.00  0.00    -0.013 C 
HETATM   16  C14 UNL     1      17.579  -2.300  53.439  1.00  0.00     0.056 C 
HETATM   17 BR1  UNL     1      15.840  -0.422  52.641  1.00  0.00    -0.056 Br
ENDBRANCH  14  15
ENDBRANCH  11  14
ENDBRANCH   5   7
BRANCH   1  18
HETATM   18  N1  UNL     1      27.518   0.764  52.672  1.00  0.00    -0.324 N 
HETATM   19  C3  UNL     1      28.485   1.184  53.641  1.00  0.00     0.244 C 
HETATM   20  O1  UNL     1      28.203   2.361  54.043  1.00  0.00    -0.268 OA
HETATM   21  H4  UNL     1      27.495  -0.134  52.181  1.00  0.00     0.169 HD
BRANCH  19  22
HETATM   22  C2  UNL     1      29.554   0.253  53.978  1.00  0.00     0.064 C 
HETATM   23  C1  UNL     1      29.727  -0.976  53.521  1.00  0.00     0.017 C 
ENDBRANCH  19  22
ENDBRANCH   1  18
TORSDOF 5
ENDMDL
MODEL 4
REMARK VINA RESULT:      -7.5      3.147      4.854
REMARK  5 active torsions:
REMARK  status: ('A' for Active; 'I' for Inactive)
REMARK    1  A    between atoms: C2_2  and  C3_3 
REMARK       I    between atoms: C3_3  and  N1_5 
REMARK    2  A    between atoms: N1_5  and  C4_6 
REMARK    3  A    between atoms: C8_10  and  C9_11 
REMARK    4  A    between atoms: C11_15  and  C12_16 
REMARK    5  A    between atoms: C12_16  and  C13_17 
ROOT
HETATM    1  C4  UNL     1      26.334   1.903  51.628  1.00  0.00     0.035 A 
HETATM    2  C5  UNL     1      26.775   2.844  50.723  1.00  0.00     0.029 A 
HETATM    3  C6  UNL     1      25.840   3.553  49.998  1.00  0.00     0.003 A 
HETATM    4  C7  UNL     1      24.508   3.284  50.216  1.00  0.00     0.013 A 
HETATM    5  C8  UNL     1      24.004   2.360  51.104  1.00  0.00    -0.009 A 
HETATM    6  C17 UNL     1      24.986   1.685  51.797  1.00  0.00     0.043 A 
ENDROOT
BRANCH   5   7
HETATM    7  C9  UNL     1      22.594   2.085  51.323  1.00  0.00     0.049 C 
HETATM    8  N2  UNL     1      22.027   2.986  52.048  1.00  0.00    -0.245 NA
HETATM    9  C10 UNL     1      20.670   3.049  52.464  1.00  0.00     0.233 C 
HETATM   10  N3  UNL     1      19.865   2.070  52.693  1.00  0.00    -0.242 NA
HETATM   11  C11 UNL     1      20.149   0.684  52.581  1.00  0.00     0.055 C 
HETATM   12  C15 UNL     1      21.064   0.200  51.725  1.00  0.00     0.011 C 
HETATM   13  C16 UNL     1      21.954   0.890  50.745  1.00  0.00     0.089 C 
BRANCH  11  14
HETATM   14  C12 UNL     1      19.441  -0.284  53.408  1.00  0.00     0.045 C 
BRANCH  14  15
HETATM   15  C13 UNL     1      18.400  -1.021  53.072  1.00  0.00    -0.013 C 
HETATM   16  C14 UNL     1      17.810  -2.310  53.499  1.00  0.00     0.056 C 
HETATM   17 BR1  UNL     1      17.207  -0.438  51.676  1.00  0.00    -0.056 Br
ENDBRANCH  14  15
ENDBRANCH  11  14
ENDBRANCH   5   7
BRANCH   1  18
HETATM   18  N1  UNL     1      27.299   1.177  52.371  1.00  0.00    -0.324 N 
HETATM   19  C3  UNL     1      27.927   1.410  53.637  1.00  0.00     0.244 C 
HETATM   20  O1  UNL     1      27.485   2.497  54.138  1.00  0.00    -0.268 OA
HETATM   21  H4  UNL     1      27.461   0.382  51.746  1.00  0.00     0.169 HD
BRANCH  19  22
HETATM   22  C2  UNL     1      28.897   0.427  54.104  1.00  0.00     0.064 C 
HETATM   23  C1  UNL     1      29.279  -0.681  53.492  1.00  0.00     0.017 C 
ENDBRANCH  19  22
ENDBRANCH   1  18
TORSDOF 5
ENDMDL
MODEL 5
REMARK VINA RESULT:      -7.4      6.200      8.099
REMARK  5 active torsions:
REMARK  status: ('A' for Active; 'I' for Inactive)
REMARK    1  A    between atoms: C2_2  and  C3_3 
REMARK       I    between atoms: C3_3  and  N1_5 
REMARK    2  A    between atoms: N1_5  and  C4_6 
REMARK    3  A    between atoms: C8_10  and  C9_11 
REMARK    4  A    between atoms: C11_15  and  C12_16 
REMARK    5  A    between atoms: C12_16  and  C13_17 
ROOT
HETATM    1  C4  UNL     1      29.396   5.840  47.861  1.00  0.00     0.035 A 
HETATM    2  C5  UNL     1      29.075   7.109  47.430  1.00  0.00     0.029 A 
HETATM    3  C6  UNL     1      27.796   7.576  47.646  1.00  0.00     0.003 A 
HETATM    4  C7  UNL     1      26.900   6.748  48.281  1.00  0.00     0.013 A 
HETATM    5  C8  UNL     1      27.158   5.473  48.735  1.00  0.00    -0.009 A 
HETATM    6  C17 UNL     1      28.451   5.064  48.491  1.00  0.00     0.043 A 
ENDROOT
BRANCH   5   7
HETATM    7  C9  UNL     1      26.201   4.608  49.404  1.00  0.00     0.049 C 
HETATM    8  N2  UNL     1      25.202   5.264  49.886  1.00  0.00    -0.245 NA
HETATM    9  C10 UNL     1      24.083   4.757  50.598  1.00  0.00     0.233 C 
HETATM   10  N3  UNL     1      24.033   3.723  51.365  1.00  0.00    -0.242 NA
HETATM   11  C11 UNL     1      25.098   2.839  51.680  1.00  0.00     0.055 C 
HETATM   12  C15 UNL     1      26.121   2.611  50.839  1.00  0.00     0.011 C 
HETATM   13  C16 UNL     1      26.414   3.152  49.479  1.00  0.00     0.089 C 
BRANCH  11  14
HETATM   14  C12 UNL     1      25.118   2.130  52.952  1.00  0.00     0.045 C 
BRANCH  14  15
HETATM   15  C13 UNL     1      25.027   0.830  53.151  1.00  0.00    -0.013 C 
HETATM   16  C14 UNL     1      25.964  -0.311  53.268  1.00  0.00     0.056 C 
HETATM   17 BR1  UNL     1      23.303  -0.001  53.370  1.00  0.00    -0.056 Br
ENDBRANCH  14  15
ENDBRANCH  11  14
ENDBRANCH   5   7
BRANCH   1  18
HETATM   18  N1  UNL     1      30.714   5.364  47.637  1.00  0.00    -0.324 N 
HETATM   19  C3  UNL     1      31.840   5.182  48.502  1.00  0.00     0.244 C 
HETATM   20  O1  UNL     1      31.529   5.535  49.688  1.00  0.00    -0.268 OA
HETATM   21  H4  UNL     1      30.675   5.164  46.634  1.00  0.00     0.169 HD
BRANCH  19  22
HETATM   22  C2  UNL     1      33.068   4.659  47.916  1.00  0.00     0.064 C 
HETATM   23  C1  UNL     1      33.286   3.437  47.461  1.00  0.00     0.017 C 
ENDBRANCH  19  22
ENDBRANCH   1  18
TORSDOF 5
ENDMDL
MODEL 6
REMARK VINA RESULT:      -7.4      4.550      5.162
REMARK  5 active torsions:
REMARK  status: ('A' for Active; 'I' for Inactive)
REMARK    1  A    between atoms: C2_2  and  C3_3 
REMARK       I    between atoms: C3_3  and  N1_5 
REMARK    2  A    between atoms: N1_5  and  C4_6 
REMARK    3  A    between atoms: C8_10  and  C9_11 
REMARK    4  A    between atoms: C11_15  and  C12_16 
REMARK    5  A    between atoms: C12_16  and  C13_17 
ROOT
HETATM    1  C4  UNL     1      26.355   0.825  52.296  1.00  0.00     0.035 A 
HETATM    2  C5  UNL     1      25.099   0.513  52.770  1.00  0.00     0.029 A 
HETATM    3  C6  UNL     1      24.016   1.212  52.281  1.00  0.00     0.003 A 
HETATM    4  C7  UNL     1      24.244   2.191  51.341  1.00  0.00     0.013 A 
HETATM    5  C8  UNL     1      25.471   2.549  50.828  1.00  0.00    -0.009 A 
HETATM    6  C17 UNL     1      26.512   1.816  51.355  1.00  0.00     0.043 A 
ENDROOT
BRANCH   5   7
HETATM    7  C9  UNL     1      25.697   3.587  49.836  1.00  0.00     0.049 C 
HETATM    8  N2  UNL     1      26.950   3.819  49.648  1.00  0.00    -0.245 NA
HETATM    9  C10 UNL     1      27.544   4.757  48.762  1.00  0.00     0.233 C 
HETATM   10  N3  UNL     1      27.068   5.889  48.370  1.00  0.00    -0.242 NA
HETATM   11  C11 UNL     1      25.826   6.468  48.737  1.00  0.00     0.055 C 
HETATM   12  C15 UNL     1      24.756   5.730  49.076  1.00  0.00     0.011 C 
HETATM   13  C16 UNL     1      24.569   4.251  49.159  1.00  0.00     0.089 C 
BRANCH  11  14
HETATM   14  C12 UNL     1      25.662   7.916  48.757  1.00  0.00     0.045 C 
BRANCH  14  15
HETATM   15  C13 UNL     1      26.572   8.832  48.493  1.00  0.00    -0.013 C 
HETATM   16  C14 UNL     1      26.991   9.626  47.315  1.00  0.00     0.056 C 
HETATM   17 BR1  UNL     1      27.776   9.433  49.872  1.00  0.00    -0.056 Br
ENDBRANCH  14  15
ENDBRANCH  11  14
ENDBRANCH   5   7
BRANCH   1  18
HETATM   18  N1  UNL     1      27.466   0.103  52.801  1.00  0.00    -0.324 N 
HETATM   19  C3  UNL     1      28.402   0.369  53.851  1.00  0.00     0.244 C 
HETATM   20  O1  UNL     1      28.124   1.489  54.395  1.00  0.00    -0.268 OA
HETATM   21  H4  UNL     1      27.447  -0.723  52.195  1.00  0.00     0.169 HD
BRANCH  19  22
HETATM   22  C2  UNL     1      29.442  -0.621  54.101  1.00  0.00     0.064 C 
HETATM   23  C1  UNL     1      29.666  -1.740  53.433  1.00  0.00     0.017 C 
ENDBRANCH  19  22
ENDBRANCH   1  18
TORSDOF 5
ENDMDL
MODEL 7
REMARK VINA RESULT:      -7.0      4.879      6.665
REMARK  5 active torsions:
REMARK  status: ('A' for Active; 'I' for Inactive)
REMARK    1  A    between atoms: C2_2  and  C3_3 
REMARK       I    between atoms: C3_3  and  N1_5 
REMARK    2  A    between atoms: N1_5  and  C4_6 
REMARK    3  A    between atoms: C8_10  and  C9_11 
REMARK    4  A    between atoms: C11_15  and  C12_16 
REMARK    5  A    between atoms: C12_16  and  C13_17 
ROOT
HETATM    1  C4  UNL     1      22.378   1.355  50.949  1.00  0.00     0.035 A 
HETATM    2  C5  UNL     1      21.719   1.063  49.774  1.00  0.00     0.029 A 
HETATM    3  C6  UNL     1      22.075   1.746  48.630  1.00  0.00     0.003 A 
HETATM    4  C7  UNL     1      23.074   2.688  48.720  1.00  0.00     0.013 A 
HETATM    5  C8  UNL     1      23.769   3.025  49.860  1.00  0.00    -0.009 A 
HETATM    6  C17 UNL     1      23.368   2.310  50.968  1.00  0.00     0.043 A 
ENDROOT
BRANCH   5   7
HETATM    7  C9  UNL     1      24.821   4.024  49.940  1.00  0.00     0.049 C 
HETATM    8  N2  UNL     1      24.353   5.223  50.007  1.00  0.00    -0.245 NA
HETATM    9  C10 UNL     1      25.076   6.442  50.095  1.00  0.00     0.233 C 
HETATM   10  N3  UNL     1      26.244   6.708  49.618  1.00  0.00    -0.242 NA
HETATM   11  C11 UNL     1      27.087   5.833  48.885  1.00  0.00     0.055 C 
HETATM   12  C15 UNL     1      27.064   4.500  49.047  1.00  0.00     0.011 C 
HETATM   13  C16 UNL     1      26.242   3.634  49.943  1.00  0.00     0.089 C 
BRANCH  11  14
HETATM   14  C12 UNL     1      28.032   6.363  47.910  1.00  0.00     0.045 C 
BRANCH  14  15
HETATM   15  C13 UNL     1      29.342   6.452  48.025  1.00  0.00    -0.013 C 
HETATM   16  C14 UNL     1      30.508   5.576  47.769  1.00  0.00     0.056 C 
HETATM   17 BR1  UNL     1      30.152   8.071  48.684  1.00  0.00    -0.056 Br
ENDBRANCH  14  15
ENDBRANCH  11  14
ENDBRANCH   5   7
BRANCH   1  18
HETATM   18  N1  UNL     1      22.008   0.650  52.123  1.00  0.00    -0.324 N 
HETATM   19  C3  UNL     1      21.066   0.925  53.166  1.00  0.00     0.244 C 
HETATM   20  O1  UNL     1      20.482   2.034  52.930  1.00  0.00    -0.268 OA
HETATM   21  H4  UNL     1      22.618  -0.170  52.051  1.00  0.00     0.169 HD
BRANCH  19  22
HETATM   22  C2  UNL     1      20.947  -0.047  54.245  1.00  0.00     0.064 C 
HETATM   23  C1  UNL     1      21.357  -1.303  54.247  1.00  0.00     0.017 C 
ENDBRANCH  19  22
ENDBRANCH   1  18
TORSDOF 5
ENDMDL
MODEL 8
REMARK VINA RESULT:      -6.9      6.223      8.982
REMARK  5 active torsions:
REMARK  status: ('A' for Active; 'I' for Inactive)
REMARK    1  A    between atoms: C2_2  and  C3_3 
REMARK       I    between atoms: C3_3  and  N1_5 
REMARK    2  A    between atoms: N1_5  and  C4_6 
REMARK    3  A    between atoms: C8_10  and  C9_11 
REMARK    4  A    between atoms: C11_15  and  C12_16 
REMARK    5  A    between atoms: C12_16  and  C13_17 
ROOT
HETATM    1  C4  UNL     1      27.293   7.698  48.070  1.00  0.00     0.035 A 
HETATM    2  C5  UNL     1      28.600   7.431  47.722  1.00  0.00     0.029 A 
HETATM    3  C6  UNL     1      29.088   6.157  47.918  1.00  0.00     0.003 A 
HETATM    4  C7  UNL     1      28.244   5.212  48.454  1.00  0.00     0.013 A 
HETATM    5  C8  UNL     1      26.932   5.415  48.821  1.00  0.00    -0.009 A 
HETATM    6  C17 UNL     1      26.502   6.706  48.601  1.00  0.00     0.043 A 
ENDROOT
BRANCH   5   7
HETATM    7  C9  UNL     1      26.051   4.407  49.388  1.00  0.00     0.049 C 
HETATM    8  N2  UNL     1      24.860   4.855  49.587  1.00  0.00    -0.245 NA
HETATM    9  C10 UNL     1      23.742   4.161  50.123  1.00  0.00     0.233 C 
HETATM   10  N3  UNL     1      23.742   3.200  50.981  1.00  0.00    -0.242 NA
HETATM   11  C11 UNL     1      24.873   2.603  51.597  1.00  0.00     0.055 C 
HETATM   12  C15 UNL     1      26.077   2.551  51.003  1.00  0.00     0.011 C 
HETATM   13  C16 UNL     1      26.538   3.046  49.673  1.00  0.00     0.089 C 
BRANCH  11  14
HETATM   14  C12 UNL     1      24.764   2.010  52.923  1.00  0.00     0.045 C 
BRANCH  14  15
HETATM   15  C13 UNL     1      24.657   0.731  53.227  1.00  0.00    -0.013 C 
HETATM   16  C14 UNL     1      25.571  -0.359  53.638  1.00  0.00     0.056 C 
HETATM   17 BR1  UNL     1      22.938  -0.137  53.182  1.00  0.00    -0.056 Br
ENDBRANCH  14  15
ENDBRANCH  11  14
ENDBRANCH   5   7
BRANCH   1  18
HETATM   18  N1  UNL     1      26.795   9.011  47.865  1.00  0.00    -0.324 N 
HETATM   19  C3  UNL     1      26.617  10.129  48.741  1.00  0.00     0.244 C 
HETATM   20  O1  UNL     1      27.000   9.816  49.917  1.00  0.00    -0.268 OA
HETATM   21  H4  UNL     1      26.572   8.975  46.866  1.00  0.00     0.169 HD
BRANCH  19  22
HETATM   22  C2  UNL     1      26.064  11.353  48.174  1.00  0.00     0.064 C 
HETATM   23  C1  UNL     1      24.847  11.540  47.693  1.00  0.00     0.017 C 
ENDBRANCH  19  22
ENDBRANCH   1  18
TORSDOF 5
ENDMDL
MODEL 9
REMARK VINA RESULT:      -6.8      4.031      6.079
REMARK  5 active torsions:
REMARK  status: ('A' for Active; 'I' for Inactive)
REMARK    1  A    between atoms: C2_2  and  C3_3 
REMARK       I    between atoms: C3_3  and  N1_5 
REMARK    2  A    between atoms: N1_5  and  C4_6 
REMARK    3  A    between atoms: C8_10  and  C9_11 
REMARK    4  A    between atoms: C11_15  and  C12_16 
REMARK    5  A    between atoms: C12_16  and  C13_17 
ROOT
HETATM    1  C4  UNL     1      21.552   0.103  52.805  1.00  0.00     0.035 A 
HETATM    2  C5  UNL     1      22.130  -0.938  53.499  1.00  0.00     0.029 A 
HETATM    3  C6  UNL     1      23.484  -0.889  53.755  1.00  0.00     0.003 A 
HETATM    4  C7  UNL     1      24.193   0.200  53.301  1.00  0.00     0.013 A 
HETATM    5  C8  UNL     1      23.674   1.269  52.604  1.00  0.00    -0.009 A 
HETATM    6  C17 UNL     1      22.319   1.162  52.380  1.00  0.00     0.043 A 
ENDROOT
BRANCH   5   7
HETATM    7  C9  UNL     1      24.435   2.413  52.130  1.00  0.00     0.049 C 
HETATM    8  N2  UNL     1      23.677   3.362  51.702  1.00  0.00    -0.245 NA
HETATM    9  C10 UNL     1      24.064   4.620  51.169  1.00  0.00     0.233 C 
HETATM   10  N3  UNL     1      25.136   4.908  50.514  1.00  0.00    -0.242 NA
HETATM   11  C11 UNL     1      26.190   4.023  50.168  1.00  0.00     0.055 C 
HETATM   12  C15 UNL     1      26.503   2.946  50.907  1.00  0.00     0.011 C 
HETATM   13  C16 UNL     1      25.909   2.415  52.169  1.00  0.00     0.089 C 
BRANCH  11  14
HETATM   14  C12 UNL     1      26.990   4.259  48.973  1.00  0.00     0.045 C 
BRANCH  14  15
HETATM   15  C13 UNL     1      27.478   5.407  48.545  1.00  0.00    -0.013 C 
HETATM   16  C14 UNL     1      26.943   6.744  48.201  1.00  0.00     0.056 C 
HETATM   17 BR1  UNL     1      29.367   5.598  48.218  1.00  0.00    -0.056 Br
ENDBRANCH  14  15
ENDBRANCH  11  14
ENDBRANCH   5   7
BRANCH   1  18
HETATM   18  N1  UNL     1      20.158   0.048  52.545  1.00  0.00    -0.324 N 
HETATM   19  C3  UNL     1      19.382   0.256  51.360  1.00  0.00     0.244 C 
HETATM   20  O1  UNL     1      20.157   0.543  50.388  1.00  0.00    -0.268 OA
HETATM   21  H4  UNL     1      19.801  -0.194  53.474  1.00  0.00     0.169 HD
BRANCH  19  22
HETATM   22  C2  UNL     1      17.935   0.114  51.463  1.00  0.00     0.064 C 
HETATM   23  C1  UNL     1      17.262  -0.786  52.159  1.00  0.00     0.017 C 
ENDBRANCH  19  22
ENDBRANCH   1  18
TORSDOF 5
ENDMDL
