MODEL 1
REMARK VINA RESULT:      -8.3      0.000      0.000
REMARK  3 active torsions:
REMARK  status: ('A' for Active; 'I' for Inactive)
REMARK    1  A    between atoms: C5_7  and  N3_8 
REMARK    2  A    between atoms: N3_8  and  C6_9 
REMARK    3  A    between atoms: C14_21  and  N8_22 
ROOT
HETATM    1  C6  UNL     1      24.756   3.382  51.136  1.00  0.00     0.159 A 
HETATM    2  N4  UNL     1      25.411   4.321  50.473  1.00  0.00    -0.220 NA
HETATM    3  C7  UNL     1      24.963   4.802  49.307  1.00  0.00     0.258 A 
HETATM    4  N5  UNL     1      23.823   4.351  48.754  1.00  0.00    -0.161 NA
HETATM    5  N6  UNL     1      23.144   3.420  49.383  1.00  0.00    -0.239 N 
HETATM    6  C8  UNL     1      21.995   2.814  49.042  1.00  0.00     0.129 A 
HETATM    7  C9  UNL     1      21.723   1.911  50.063  1.00  0.00     0.004 A 
HETATM    8  C10 UNL     1      22.735   1.982  51.031  1.00  0.00     0.012 A 
HETATM    9  C11 UNL     1      23.597   2.941  50.552  1.00  0.00     0.112 A 
HETATM   10  C12 UNL     1      22.383   1.019  52.074  1.00  0.00     0.311 C 
HETATM   11  N7  UNL     1      21.014   1.253  52.565  1.00  0.00     0.090 N 
HETATM   12  C13 UNL     1      20.012   1.147  51.559  1.00  0.00     0.310 C 
HETATM   13  C14 UNL     1      20.565   0.975  50.168  1.00  0.00     0.280 C 
HETATM   14  H11 UNL     1      21.038   2.208  52.992  1.00  0.00     0.316 HD
ENDROOT
BRANCH   1  15
HETATM   15  N3  UNL     1      25.196   2.849  52.337  1.00  0.00    -0.339 N 
HETATM   16  H6  UNL     1      24.816   3.108  53.250  1.00  0.00     0.167 HD
BRANCH  15  17
HETATM   17  C5  UNL     1      26.192   1.890  52.615  1.00  0.00     0.034 A 
HETATM   18  C4  UNL     1      25.899   0.562  52.427  1.00  0.00     0.044 A 
HETATM   19  C3  UNL     1      26.800  -0.443  52.689  1.00  0.00     0.013 A 
HETATM   20  C2  UNL     1      26.807  -1.826  52.607  1.00  0.00     0.152 A 
HETATM   21  C17 UNL     1      28.070  -0.174  53.163  1.00  0.00     0.064 A 
HETATM   22  N2  UNL     1      28.009  -2.333  53.010  1.00  0.00    -0.184 NA
HETATM   23  N1  UNL     1      28.786  -1.295  53.354  1.00  0.00    -0.274 N 
HETATM   24  C1  UNL     1      30.157  -1.397  53.843  1.00  0.00     0.180 C 
HETATM   25  C16 UNL     1      28.399   1.148  53.365  1.00  0.00     0.034 A 
HETATM   26  C15 UNL     1      27.465   2.118  53.089  1.00  0.00     0.032 A 
ENDBRANCH  15  17
ENDBRANCH   1  15
BRANCH  13  27
HETATM   27  N8  UNL     1      19.517   1.336  49.242  1.00  0.00     0.089 N 
HETATM   28  H15 UNL     1      18.733   0.658  49.226  1.00  0.00     0.313 HD
HETATM   29  H16 UNL     1      19.921   1.511  48.277  1.00  0.00     0.313 HD
ENDBRANCH  13  27
TORSDOF 3
ENDMDL
MODEL 2
REMARK VINA RESULT:      -8.2      2.410      7.494
REMARK  3 active torsions:
REMARK  status: ('A' for Active; 'I' for Inactive)
REMARK    1  A    between atoms: C5_7  and  N3_8 
REMARK    2  A    between atoms: N3_8  and  C6_9 
REMARK    3  A    between atoms: C14_21  and  N8_22 
ROOT
HETATM    1  C6  UNL     1      23.262   0.944  52.053  1.00  0.00     0.159 A 
HETATM    2  N4  UNL     1      22.109   0.450  52.477  1.00  0.00    -0.220 NA
HETATM    3  C7  UNL     1      22.045  -0.397  53.511  1.00  0.00     0.258 A 
HETATM    4  N5  UNL     1      23.151  -0.786  54.169  1.00  0.00    -0.161 NA
HETATM    5  N6  UNL     1      24.313  -0.317  53.779  1.00  0.00    -0.239 N 
HETATM    6  C8  UNL     1      25.543  -0.551  54.265  1.00  0.00     0.129 A 
HETATM    7  C9  UNL     1      26.412   0.200  53.482  1.00  0.00     0.004 A 
HETATM    8  C10 UNL     1      25.680   0.896  52.508  1.00  0.00     0.012 A 
HETATM    9  C11 UNL     1      24.374   0.533  52.741  1.00  0.00     0.112 A 
HETATM   10  C12 UNL     1      26.648   1.668  51.730  1.00  0.00     0.311 C 
HETATM   11  N7  UNL     1      27.486   2.500  52.612  1.00  0.00     0.090 N 
HETATM   12  C13 UNL     1      28.233   1.756  53.569  1.00  0.00     0.310 C 
HETATM   13  C14 UNL     1      27.897   0.288  53.594  1.00  0.00     0.280 C 
HETATM   14  H11 UNL     1      26.821   3.167  53.068  1.00  0.00     0.316 HD
ENDROOT
BRANCH   1  15
HETATM   15  N3  UNL     1      23.370   1.810  50.977  1.00  0.00    -0.339 N 
HETATM   16  H6  UNL     1      23.790   1.558  50.080  1.00  0.00     0.167 HD
BRANCH  15  17
HETATM   17  C5  UNL     1      22.968   3.154  50.826  1.00  0.00     0.034 A 
HETATM   18  C4  UNL     1      23.890   4.147  51.042  1.00  0.00     0.044 A 
HETATM   19  C3  UNL     1      23.584   5.483  50.936  1.00  0.00     0.013 A 
HETATM   20  C2  UNL     1      24.264   6.680  51.088  1.00  0.00     0.152 A 
HETATM   21  C17 UNL     1      22.313   5.912  50.600  1.00  0.00     0.064 A 
HETATM   22  N2  UNL     1      23.440   7.743  50.856  1.00  0.00    -0.184 NA
HETATM   23  N1  UNL     1      22.229   7.252  50.554  1.00  0.00    -0.274 N 
HETATM   24  C1  UNL     1      21.052   8.054  50.236  1.00  0.00     0.180 C 
HETATM   25  C16 UNL     1      21.361   4.943  50.376  1.00  0.00     0.034 A 
HETATM   26  C15 UNL     1      21.715   3.620  50.495  1.00  0.00     0.032 A 
ENDBRANCH  15  17
ENDBRANCH   1  15
BRANCH  13  27
HETATM   27  N8  UNL     1      28.356  -0.235  54.860  1.00  0.00     0.089 N 
HETATM   28  H15 UNL     1      29.372  -0.441  54.874  1.00  0.00     0.313 HD
HETATM   29  H16 UNL     1      27.769  -1.071  55.148  1.00  0.00     0.313 HD
ENDBRANCH  13  27
TORSDOF 3
ENDMDL
MODEL 3
REMARK VINA RESULT:      -8.2      1.954      3.938
REMARK  3 active torsions:
REMARK  status: ('A' for Active; 'I' for Inactive)
REMARK    1  A    between atoms: C5_7  and  N3_8 
REMARK    2  A    between atoms: N3_8  and  C6_9 
REMARK    3  A    between atoms: C14_21  and  N8_22 
ROOT
HETATM    1  C6  UNL     1      22.509   0.347  53.395  1.00  0.00     0.159 A 
HETATM    2  N4  UNL     1      22.336  -0.519  54.381  1.00  0.00    -0.220 NA
HETATM    3  C7  UNL     1      21.190  -1.193  54.532  1.00  0.00     0.258 A 
HETATM    4  N5  UNL     1      20.158  -1.020  53.688  1.00  0.00    -0.161 NA
HETATM    5  N6  UNL     1      20.291  -0.170  52.696  1.00  0.00    -0.239 N 
HETATM    6  C8  UNL     1      19.420   0.174  51.734  1.00  0.00     0.129 A 
HETATM    7  C9  UNL     1      20.074   1.113  50.945  1.00  0.00     0.004 A 
HETATM    8  C10 UNL     1      21.364   1.331  51.452  1.00  0.00     0.012 A 
HETATM    9  C11 UNL     1      21.443   0.503  52.547  1.00  0.00     0.112 A 
HETATM   10  C12 UNL     1      21.996   2.316  50.575  1.00  0.00     0.311 C 
HETATM   11  N7  UNL     1      21.929   1.885  49.167  1.00  0.00     0.090 N 
HETATM   12  C13 UNL     1      20.604   1.699  48.682  1.00  0.00     0.310 C 
HETATM   13  C14 UNL     1      19.544   1.824  49.745  1.00  0.00     0.280 C 
HETATM   14  H11 UNL     1      22.487   1.001  49.127  1.00  0.00     0.316 HD
ENDROOT
BRANCH   1  15
HETATM   15  N3  UNL     1      23.675   1.074  53.215  1.00  0.00    -0.339 N 
HETATM   16  H6  UNL     1      23.697   2.065  52.965  1.00  0.00     0.167 HD
BRANCH  15  17
HETATM   17  C5  UNL     1      25.029   0.694  53.320  1.00  0.00     0.034 A 
HETATM   18  C4  UNL     1      25.966   1.659  53.590  1.00  0.00     0.044 A 
HETATM   19  C3  UNL     1      27.309   1.385  53.692  1.00  0.00     0.013 A 
HETATM   20  C2  UNL     1      28.462   2.111  53.943  1.00  0.00     0.152 A 
HETATM   21  C17 UNL     1      27.803   0.105  53.527  1.00  0.00     0.064 A 
HETATM   22  N2  UNL     1      29.562   1.303  53.924  1.00  0.00    -0.184 NA
HETATM   23  N1  UNL     1      29.139   0.057  53.664  1.00  0.00    -0.274 N 
HETATM   24  C1  UNL     1      29.999  -1.117  53.556  1.00  0.00     0.180 C 
HETATM   25  C16 UNL     1      26.891  -0.891  53.254  1.00  0.00     0.034 A 
HETATM   26  C15 UNL     1      25.559  -0.568  53.161  1.00  0.00     0.032 A 
ENDBRANCH  15  17
ENDBRANCH   1  15
BRANCH  13  27
HETATM   27  N8  UNL     1      18.353   1.182  49.242  1.00  0.00     0.089 N 
HETATM   28  H15 UNL     1      17.635   1.019  49.972  1.00  0.00     0.313 HD
HETATM   29  H16 UNL     1      18.606   0.295  48.716  1.00  0.00     0.313 HD
ENDBRANCH  13  27
TORSDOF 3
ENDMDL
MODEL 4
REMARK VINA RESULT:      -8.2      2.385      5.917
REMARK  3 active torsions:
REMARK  status: ('A' for Active; 'I' for Inactive)
REMARK    1  A    between atoms: C5_7  and  N3_8 
REMARK    2  A    between atoms: N3_8  and  C6_9 
REMARK    3  A    between atoms: C14_21  and  N8_22 
ROOT
HETATM    1  C6  UNL     1      25.170   1.605  51.645  1.00  0.00     0.159 A 
HETATM    2  N4  UNL     1      26.412   1.147  51.644  1.00  0.00    -0.220 NA
HETATM    3  C7  UNL     1      26.773   0.094  52.386  1.00  0.00     0.258 A 
HETATM    4  N5  UNL     1      25.889  -0.550  53.168  1.00  0.00    -0.161 NA
HETATM    5  N6  UNL     1      24.647  -0.125  53.195  1.00  0.00    -0.239 N 
HETATM    6  C8  UNL     1      23.593  -0.591  53.886  1.00  0.00     0.129 A 
HETATM    7  C9  UNL     1      22.522   0.226  53.543  1.00  0.00     0.004 A 
HETATM    8  C10 UNL     1      22.951   1.199  52.629  1.00  0.00     0.012 A 
HETATM    9  C11 UNL     1      24.288   0.932  52.450  1.00  0.00     0.112 A 
HETATM   10  C12 UNL     1      21.780   2.014  52.306  1.00  0.00     0.311 C 
HETATM   11  N7  UNL     1      20.660   1.168  51.857  1.00  0.00     0.090 N 
HETATM   12  C13 UNL     1      20.236   0.210  52.822  1.00  0.00     0.310 C 
HETATM   13  C14 UNL     1      21.118   0.146  54.042  1.00  0.00     0.280 C 
HETATM   14  H11 UNL     1      20.998   0.713  50.978  1.00  0.00     0.316 HD
ENDROOT
BRANCH   1  15
HETATM   15  N3  UNL     1      24.762   2.702  50.903  1.00  0.00    -0.339 N 
HETATM   16  H6  UNL     1      23.784   2.947  50.735  1.00  0.00     0.167 HD
BRANCH  15  17
HETATM   17  C5  UNL     1      25.505   3.699  50.237  1.00  0.00     0.034 A 
HETATM   18  C4  UNL     1      25.081   5.001  50.315  1.00  0.00     0.044 A 
HETATM   19  C3  UNL     1      25.731   6.035  49.684  1.00  0.00     0.013 A 
HETATM   20  C2  UNL     1      25.559   7.405  49.572  1.00  0.00     0.152 A 
HETATM   21  C17 UNL     1      26.866   5.823  48.924  1.00  0.00     0.064 A 
HETATM   22  N2  UNL     1      26.533   7.958  48.792  1.00  0.00    -0.184 NA
HETATM   23  N1  UNL     1      27.341   6.963  48.395  1.00  0.00    -0.274 N 
HETATM   24  C1  UNL     1      28.514   7.122  47.543  1.00  0.00     0.180 C 
HETATM   25  C16 UNL     1      27.321   4.527  48.822  1.00  0.00     0.034 A 
HETATM   26  C15 UNL     1      26.637   3.527  49.471  1.00  0.00     0.032 A 
ENDBRANCH  15  17
ENDBRANCH   1  15
BRANCH  13  27
HETATM   27  N8  UNL     1      20.865  -1.121  54.687  1.00  0.00     0.089 N 
HETATM   28  H15 UNL     1      20.207  -1.050  55.485  1.00  0.00     0.313 HD
HETATM   29  H16 UNL     1      21.779  -1.587  54.956  1.00  0.00     0.313 HD
ENDBRANCH  13  27
TORSDOF 3
ENDMDL
MODEL 5
REMARK VINA RESULT:      -7.9      6.004      9.548
REMARK  3 active torsions:
REMARK  status: ('A' for Active; 'I' for Inactive)
REMARK    1  A    between atoms: C5_7  and  N3_8 
REMARK    2  A    between atoms: N3_8  and  C6_9 
REMARK    3  A    between atoms: C14_21  and  N8_22 
ROOT
HETATM    1  C6  UNL     1      30.236   7.075  48.194  1.00  0.00     0.159 A 
HETATM    2  N4  UNL     1      30.266   8.279  48.742  1.00  0.00    -0.220 NA
HETATM    3  C7  UNL     1      31.371   8.760  49.324  1.00  0.00     0.258 A 
HETATM    4  N5  UNL     1      32.504   8.039  49.379  1.00  0.00    -0.161 NA
HETATM    5  N6  UNL     1      32.514   6.839  48.846  1.00  0.00    -0.239 N 
HETATM    6  C8  UNL     1      33.507   5.937  48.774  1.00  0.00     0.129 A 
HETATM    7  C9  UNL     1      32.977   4.840  48.105  1.00  0.00     0.004 A 
HETATM    8  C10 UNL     1      31.639   5.098  47.773  1.00  0.00     0.012 A 
HETATM    9  C11 UNL     1      31.404   6.361  48.262  1.00  0.00     0.112 A 
HETATM   10  C12 UNL     1      31.148   3.914  47.068  1.00  0.00     0.311 C 
HETATM   11  N7  UNL     1      32.030   3.573  45.938  1.00  0.00     0.090 N 
HETATM   12  C13 UNL     1      33.374   3.293  46.317  1.00  0.00     0.310 C 
HETATM   13  C14 UNL     1      33.661   3.556  47.773  1.00  0.00     0.280 C 
HETATM   14  H11 UNL     1      31.970   4.392  45.290  1.00  0.00     0.316 HD
ENDROOT
BRANCH   1  15
HETATM   15  N3  UNL     1      29.107   6.538  47.596  1.00  0.00    -0.339 N 
HETATM   16  H6  UNL     1      29.010   6.386  46.590  1.00  0.00     0.167 HD
BRANCH  15  17
HETATM   17  C5  UNL     1      27.891   6.087  48.151  1.00  0.00     0.034 A 
HETATM   18  C4  UNL     1      27.838   4.823  48.685  1.00  0.00     0.044 A 
HETATM   19  C3  UNL     1      26.693   4.293  49.230  1.00  0.00     0.013 A 
HETATM   20  C2  UNL     1      26.329   3.095  49.824  1.00  0.00     0.152 A 
HETATM   21  C17 UNL     1      25.511   5.009  49.274  1.00  0.00     0.064 A 
HETATM   22  N2  UNL     1      25.015   3.111  50.191  1.00  0.00    -0.184 NA
HETATM   23  N1  UNL     1      24.516   4.307  49.844  1.00  0.00    -0.274 N 
HETATM   24  C1  UNL     1      23.139   4.738  50.058  1.00  0.00     0.180 C 
HETATM   25  C16 UNL     1      25.526   6.281  48.746  1.00  0.00     0.034 A 
HETATM   26  C15 UNL     1      26.695   6.767  48.212  1.00  0.00     0.032 A 
ENDBRANCH  15  17
ENDBRANCH   1  15
BRANCH  13  27
HETATM   27  N8  UNL     1      35.094   3.678  47.912  1.00  0.00     0.089 N 
HETATM   28  H15 UNL     1      35.556   4.067  47.069  1.00  0.00     0.313 HD
HETATM   29  H16 UNL     1      35.515   2.752  48.214  1.00  0.00     0.313 HD
ENDBRANCH  13  27
TORSDOF 3
ENDMDL
MODEL 6
REMARK VINA RESULT:      -7.7      1.368      2.108
REMARK  3 active torsions:
REMARK  status: ('A' for Active; 'I' for Inactive)
REMARK    1  A    between atoms: C5_7  and  N3_8 
REMARK    2  A    between atoms: N3_8  and  C6_9 
REMARK    3  A    between atoms: C14_21  and  N8_22 
ROOT
HETATM    1  C6  UNL     1      23.491   2.169  50.876  1.00  0.00     0.159 A 
HETATM    2  N4  UNL     1      24.214   2.975  50.115  1.00  0.00    -0.220 NA
HETATM    3  C7  UNL     1      23.747   3.456  48.957  1.00  0.00     0.258 A 
HETATM    4  N5  UNL     1      22.518   3.140  48.511  1.00  0.00    -0.161 NA
HETATM    5  N6  UNL     1      21.770   2.343  49.238  1.00  0.00    -0.239 N 
HETATM    6  C8  UNL     1      20.528   1.885  49.013  1.00  0.00     0.129 A 
HETATM    7  C9  UNL     1      20.216   1.079  50.101  1.00  0.00     0.004 A 
HETATM    8  C10 UNL     1      21.299   1.057  50.992  1.00  0.00     0.012 A 
HETATM    9  C11 UNL     1      22.242   1.863  50.400  1.00  0.00     0.112 A 
HETATM   10  C12 UNL     1      20.902   0.203  52.111  1.00  0.00     0.311 C 
HETATM   11  N7  UNL     1      19.618   0.648  52.681  1.00  0.00     0.090 N 
HETATM   12  C13 UNL     1      18.537   0.632  51.753  1.00  0.00     0.310 C 
HETATM   13  C14 UNL     1      18.955   0.317  50.340  1.00  0.00     0.280 C 
HETATM   14  H11 UNL     1      19.802   1.609  53.048  1.00  0.00     0.316 HD
ENDROOT
BRANCH   1  15
HETATM   15  N3  UNL     1      23.946   1.639  52.072  1.00  0.00    -0.339 N 
HETATM   16  H6  UNL     1      23.361   1.513  52.901  1.00  0.00     0.167 HD
BRANCH  15  17
HETATM   17  C5  UNL     1      25.220   1.166  52.451  1.00  0.00     0.034 A 
HETATM   18  C4  UNL     1      26.145   2.065  52.921  1.00  0.00     0.044 A 
HETATM   19  C3  UNL     1      27.415   1.698  53.295  1.00  0.00     0.013 A 
HETATM   20  C2  UNL     1      28.538   2.343  53.789  1.00  0.00     0.152 A 
HETATM   21  C17 UNL     1      27.844   0.386  53.221  1.00  0.00     0.064 A 
HETATM   22  N2  UNL     1      29.560   1.460  53.989  1.00  0.00    -0.184 NA
HETATM   23  N1  UNL     1      29.116   0.246  53.632  1.00  0.00    -0.274 N 
HETATM   24  C1  UNL     1      29.896  -0.986  53.690  1.00  0.00     0.180 C 
HETATM   25  C16 UNL     1      26.942  -0.545  52.753  1.00  0.00     0.034 A 
HETATM   26  C15 UNL     1      25.683  -0.130  52.391  1.00  0.00     0.032 A 
ENDBRANCH  15  17
ENDBRANCH   1  15
BRANCH  13  27
HETATM   27  N8  UNL     1      17.897   0.774  49.469  1.00  0.00     0.089 N 
HETATM   28  H15 UNL     1      16.951   0.656  49.877  1.00  0.00     0.313 HD
HETATM   29  H16 UNL     1      17.986   0.323  48.513  1.00  0.00     0.313 HD
ENDBRANCH  13  27
TORSDOF 3
ENDMDL
MODEL 7
REMARK VINA RESULT:      -7.7      2.254      6.621
REMARK  3 active torsions:
REMARK  status: ('A' for Active; 'I' for Inactive)
REMARK    1  A    between atoms: C5_7  and  N3_8 
REMARK    2  A    between atoms: N3_8  and  C6_9 
REMARK    3  A    between atoms: C14_21  and  N8_22 
ROOT
HETATM    1  C6  UNL     1      24.544   1.854  51.782  1.00  0.00     0.159 A 
HETATM    2  N4  UNL     1      25.810   1.480  51.680  1.00  0.00    -0.220 NA
HETATM    3  C7  UNL     1      26.257   0.351  52.242  1.00  0.00     0.258 A 
HETATM    4  N5  UNL     1      25.439  -0.458  52.939  1.00  0.00    -0.161 NA
HETATM    5  N6  UNL     1      24.176  -0.121  53.061  1.00  0.00    -0.239 N 
HETATM    6  C8  UNL     1      23.175  -0.751  53.698  1.00  0.00     0.129 A 
HETATM    7  C9  UNL     1      22.047   0.039  53.511  1.00  0.00     0.004 A 
HETATM    8  C10 UNL     1      22.388   1.165  52.746  1.00  0.00     0.012 A 
HETATM    9  C11 UNL     1      23.731   1.012  52.495  1.00  0.00     0.112 A 
HETATM   10  C12 UNL     1      21.161   1.943  52.581  1.00  0.00     0.311 C 
HETATM   11  N7  UNL     1      20.077   1.107  52.035  1.00  0.00     0.090 N 
HETATM   12  C13 UNL     1      19.743  -0.011  52.852  1.00  0.00     0.310 C 
HETATM   13  C14 UNL     1      20.668  -0.203  54.026  1.00  0.00     0.280 C 
HETATM   14  H11 UNL     1      20.412   0.812  51.089  1.00  0.00     0.316 HD
ENDROOT
BRANCH   1  15
HETATM   15  N3  UNL     1      24.048   3.022  51.227  1.00  0.00    -0.339 N 
HETATM   16  H6  UNL     1      24.022   3.920  51.714  1.00  0.00     0.167 HD
BRANCH  15  17
HETATM   17  C5  UNL     1      23.495   3.282  49.955  1.00  0.00     0.034 A 
HETATM   18  C4  UNL     1      23.575   4.555  49.449  1.00  0.00     0.044 A 
HETATM   19  C3  UNL     1      23.050   4.905  48.228  1.00  0.00     0.013 A 
HETATM   20  C2  UNL     1      22.968   6.060  47.467  1.00  0.00     0.152 A 
HETATM   21  C17 UNL     1      22.400   3.984  47.426  1.00  0.00     0.064 A 
HETATM   22  N2  UNL     1      22.311   5.828  46.294  1.00  0.00    -0.184 NA
HETATM   23  N1  UNL     1      21.962   4.532  46.280  1.00  0.00    -0.274 N 
HETATM   24  C1  UNL     1      21.238   3.868  45.202  1.00  0.00     0.180 C 
HETATM   25  C16 UNL     1      22.300   2.695  47.903  1.00  0.00     0.034 A 
HETATM   26  C15 UNL     1      22.841   2.394  49.130  1.00  0.00     0.032 A 
ENDBRANCH  15  17
ENDBRANCH   1  15
BRANCH  13  27
HETATM   27  N8  UNL     1      20.511  -1.567  54.476  1.00  0.00     0.089 N 
HETATM   28  H15 UNL     1      20.016  -2.169  53.793  1.00  0.00     0.313 HD
HETATM   29  H16 UNL     1      20.062  -1.589  55.437  1.00  0.00     0.313 HD
ENDBRANCH  13  27
TORSDOF 3
ENDMDL
MODEL 8
REMARK VINA RESULT:      -7.6      2.058      4.287
REMARK  3 active torsions:
REMARK  status: ('A' for Active; 'I' for Inactive)
REMARK    1  A    between atoms: C5_7  and  N3_8 
REMARK    2  A    between atoms: N3_8  and  C6_9 
REMARK    3  A    between atoms: C14_21  and  N8_22 
ROOT
HETATM    1  C6  UNL     1      22.898   3.101  49.719  1.00  0.00     0.159 A 
HETATM    2  N4  UNL     1      22.318   2.205  48.936  1.00  0.00    -0.220 NA
HETATM    3  C7  UNL     1      21.971   2.492  47.676  1.00  0.00     0.258 A 
HETATM    4  N5  UNL     1      22.194   3.707  47.146  1.00  0.00    -0.161 NA
HETATM    5  N6  UNL     1      22.768   4.623  47.892  1.00  0.00    -0.239 N 
HETATM    6  C8  UNL     1      23.092   5.893  47.598  1.00  0.00     0.129 A 
HETATM    7  C9  UNL     1      23.676   6.412  48.748  1.00  0.00     0.004 A 
HETATM    8  C10 UNL     1      23.698   5.428  49.746  1.00  0.00     0.012 A 
HETATM    9  C11 UNL     1      23.116   4.331  49.155  1.00  0.00     0.112 A 
HETATM   10  C12 UNL     1      24.329   6.035  50.917  1.00  0.00     0.311 C 
HETATM   11  N7  UNL     1      25.638   6.615  50.566  1.00  0.00     0.090 N 
HETATM   12  C13 UNL     1      25.572   7.629  49.569  1.00  0.00     0.310 C 
HETATM   13  C14 UNL     1      24.204   7.792  48.959  1.00  0.00     0.280 C 
HETATM   14  H11 UNL     1      26.222   5.803  50.260  1.00  0.00     0.316 HD
ENDROOT
BRANCH   1  15
HETATM   15  N3  UNL     1      23.258   2.846  51.033  1.00  0.00    -0.339 N 
HETATM   16  H6  UNL     1      22.760   3.216  51.844  1.00  0.00     0.167 HD
BRANCH  15  17
HETATM   17  C5  UNL     1      24.309   2.074  51.572  1.00  0.00     0.034 A 
HETATM   18  C4  UNL     1      24.015   1.138  52.531  1.00  0.00     0.044 A 
HETATM   19  C3  UNL     1      24.975   0.354  53.125  1.00  0.00     0.013 A 
HETATM   20  C2  UNL     1      24.998  -0.641  54.089  1.00  0.00     0.152 A 
HETATM   21  C17 UNL     1      26.311   0.463  52.789  1.00  0.00     0.064 A 
HETATM   22  N2  UNL     1      26.271  -1.085  54.302  1.00  0.00    -0.184 NA
HETATM   23  N1  UNL     1      27.079  -0.390  53.488  1.00  0.00    -0.274 N 
HETATM   24  C1  UNL     1      28.527  -0.554  53.399  1.00  0.00     0.180 C 
HETATM   25  C16 UNL     1      26.644   1.394  51.830  1.00  0.00     0.034 A 
HETATM   26  C15 UNL     1      25.649   2.154  51.264  1.00  0.00     0.032 A 
ENDBRANCH  15  17
ENDBRANCH   1  15
BRANCH  13  27
HETATM   27  N8  UNL     1      24.375   8.483  47.702  1.00  0.00     0.089 N 
HETATM   28  H15 UNL     1      25.338   8.839  47.558  1.00  0.00     0.313 HD
HETATM   29  H16 UNL     1      23.641   9.243  47.596  1.00  0.00     0.313 HD
ENDBRANCH  13  27
TORSDOF 3
ENDMDL
MODEL 9
REMARK VINA RESULT:      -7.6      7.194     10.613
REMARK  3 active torsions:
REMARK  status: ('A' for Active; 'I' for Inactive)
REMARK    1  A    between atoms: C5_7  and  N3_8 
REMARK    2  A    between atoms: N3_8  and  C6_9 
REMARK    3  A    between atoms: C14_21  and  N8_22 
ROOT
HETATM    1  C6  UNL     1      31.267   7.344  46.114  1.00  0.00     0.159 A 
HETATM    2  N4  UNL     1      30.958   8.085  45.062  1.00  0.00    -0.220 NA
HETATM    3  C7  UNL     1      31.625   7.980  43.907  1.00  0.00     0.258 A 
HETATM    4  N5  UNL     1      32.643   7.114  43.762  1.00  0.00    -0.161 NA
HETATM    5  N6  UNL     1      32.980   6.361  44.783  1.00  0.00    -0.239 N 
HETATM    6  C8  UNL     1      33.947   5.434  44.888  1.00  0.00     0.129 A 
HETATM    7  C9  UNL     1      33.863   4.942  46.185  1.00  0.00     0.004 A 
HETATM    8  C10 UNL     1      32.823   5.592  46.865  1.00  0.00     0.012 A 
HETATM    9  C11 UNL     1      32.307   6.469  45.940  1.00  0.00     0.112 A 
HETATM   10  C12 UNL     1      32.785   5.023  48.212  1.00  0.00     0.311 C 
HETATM   11  N7  UNL     1      32.690   3.553  48.158  1.00  0.00     0.090 N 
HETATM   12  C13 UNL     1      33.777   2.928  47.483  1.00  0.00     0.310 C 
HETATM   13  C14 UNL     1      34.720   3.899  46.822  1.00  0.00     0.280 C 
HETATM   14  H11 UNL     1      31.775   3.357  47.691  1.00  0.00     0.316 HD
ENDROOT
BRANCH   1  15
HETATM   15  N3  UNL     1      30.609   7.435  47.331  1.00  0.00    -0.339 N 
HETATM   16  H6  UNL     1      31.040   7.789  48.188  1.00  0.00     0.167 HD
BRANCH  15  17
HETATM   17  C5  UNL     1      29.288   7.105  47.696  1.00  0.00     0.034 A 
HETATM   18  C4  UNL     1      29.033   5.846  48.182  1.00  0.00     0.044 A 
HETATM   19  C3  UNL     1      27.775   5.430  48.546  1.00  0.00     0.013 A 
HETATM   20  C2  UNL     1      27.212   4.268  49.050  1.00  0.00     0.152 A 
HETATM   21  C17 UNL     1      26.677   6.263  48.444  1.00  0.00     0.064 A 
HETATM   22  N2  UNL     1      25.867   4.414  49.229  1.00  0.00    -0.184 NA
HETATM   23  N1  UNL     1      25.546   5.659  48.848  1.00  0.00    -0.274 N 
HETATM   24  C1  UNL     1      24.202   6.228  48.879  1.00  0.00     0.180 C 
HETATM   25  C16 UNL     1      26.894   7.533  47.959  1.00  0.00     0.034 A 
HETATM   26  C15 UNL     1      28.170   7.904  47.608  1.00  0.00     0.032 A 
ENDBRANCH  15  17
ENDBRANCH   1  15
BRANCH  13  27
HETATM   27  N8  UNL     1      35.468   3.162  45.830  1.00  0.00     0.089 N 
HETATM   28  H15 UNL     1      36.213   3.724  45.378  1.00  0.00     0.313 HD
HETATM   29  H16 UNL     1      34.810   2.719  45.125  1.00  0.00     0.313 HD
ENDBRANCH  13  27
TORSDOF 3
ENDMDL
