MODEL 1
REMARK VINA RESULT:     -10.3      0.000      0.000
REMARK  1 active torsions:
REMARK  status: ('A' for Active; 'I' for Inactive)
REMARK       I    between atoms: C2_2  and  N1_4 
REMARK    1  A    between atoms: N1_4  and  C4_6 
ROOT
HETATM    1  C4  UNL     1      22.630   3.614  49.561  1.00  0.00     0.100 C 
HETATM    2  C5  UNL     1      24.082   3.612  49.769  1.00  0.00     0.116 C 
HETATM    3  N2  UNL     1      24.621   4.290  50.994  1.00  0.00    -0.276 NA
HETATM    4  C6  UNL     1      24.234   3.446  52.169  1.00  0.00     0.185 A 
HETATM    5  N3  UNL     1      24.276   3.850  53.429  1.00  0.00    -0.360 N 
HETATM    6  C7  UNL     1      24.225   2.368  52.843  1.00  0.00     0.152 A 
HETATM    7  C8  UNL     1      23.364   1.346  53.162  1.00  0.00     0.051 A 
HETATM    8  C9  UNL     1      23.674   0.034  53.434  1.00  0.00     0.037 A 
HETATM    9  C10 UNL     1      25.076   0.025  53.295  1.00  0.00    -0.026 A 
HETATM   10  C11 UNL     1      25.755   1.261  52.931  1.00  0.00     0.037 A 
HETATM   11  C12 UNL     1      25.472   2.676  52.628  1.00  0.00     0.112 A 
HETATM   12  C13 UNL     1      27.184   0.809  52.779  1.00  0.00     0.249 A 
HETATM   13  O2  UNL     1      28.049   1.698  52.449  1.00  0.00    -0.268 OA
HETATM   14  N4  UNL     1      27.279  -0.610  53.050  1.00  0.00    -0.353 N 
HETATM   15  C14 UNL     1      25.980  -1.132  53.461  1.00  0.00     0.162 A 
HETATM   16  N5  UNL     1      22.051   1.703  52.844  1.00  0.00    -0.319 N 
HETATM   17  C15 UNL     1      20.941   0.883  52.873  1.00  0.00     0.043 A 
HETATM   18  C16 UNL     1      20.756  -0.104  53.760  1.00  0.00     0.030 A 
HETATM   19  C17 UNL     1      19.573  -0.796  53.423  1.00  0.00     0.002 A 
HETATM   20  C18 UNL     1      18.759  -0.458  52.326  1.00  0.00     0.001 A 
HETATM   21  C19 UNL     1      19.103   0.618  51.494  1.00  0.00     0.010 A 
HETATM   22  C20 UNL     1      20.265   1.401  51.714  1.00  0.00    -0.023 A 
HETATM   23  C21 UNL     1      20.895   2.599  51.088  1.00  0.00     0.072 C 
HETATM   24  C22 UNL     1      21.827   2.349  49.920  1.00  0.00     0.040 C 
HETATM   25  C23 UNL     1      21.815   3.057  52.215  1.00  0.00     0.241 C 
HETATM   26  O3  UNL     1      23.043   3.206  51.631  1.00  0.00    -0.324 OA
HETATM   27  H10 UNL     1      24.129   5.212  51.082  1.00  0.00     0.126 HD
HETATM   28  H11 UNL     1      24.315   4.732  54.034  1.00  0.00     0.159 HD
HETATM   29  H13 UNL     1      28.175  -1.055  52.931  1.00  0.00     0.163 HD
ENDROOT
BRANCH   1  30
HETATM   30  N1  UNL     1      22.432   3.801  48.110  1.00  0.00    -0.351 N 
HETATM   31  C2  UNL     1      22.321   5.151  47.676  1.00  0.00     0.215 C 
HETATM   32  C1  UNL     1      22.119   5.496  46.241  1.00  0.00     0.117 C 
HETATM   33  O1  UNL     1      22.382   6.152  48.451  1.00  0.00    -0.274 OA
HETATM   34  C3  UNL     1      22.341   2.743  47.092  1.00  0.00     0.153 C 
ENDBRANCH   1  30
TORSDOF 1
ENDMDL
MODEL 2
REMARK VINA RESULT:      -9.7      2.173      5.468
REMARK  1 active torsions:
REMARK  status: ('A' for Active; 'I' for Inactive)
REMARK       I    between atoms: C2_2  and  N1_4 
REMARK    1  A    between atoms: N1_4  and  C4_6 
ROOT
HETATM    1  C4  UNL     1      21.296   1.795  52.022  1.00  0.00     0.100 C 
HETATM    2  C5  UNL     1      21.206   3.086  51.331  1.00  0.00     0.116 C 
HETATM    3  N2  UNL     1      21.576   4.322  52.096  1.00  0.00    -0.276 NA
HETATM    4  C6  UNL     1      23.059   4.287  52.296  1.00  0.00     0.185 A 
HETATM    5  N3  UNL     1      23.719   5.044  53.160  1.00  0.00    -0.360 N 
HETATM    6  C7  UNL     1      24.263   4.252  51.887  1.00  0.00     0.152 A 
HETATM    7  C8  UNL     1      25.312   3.367  51.809  1.00  0.00     0.051 A 
HETATM    8  C9  UNL     1      26.317   3.330  50.872  1.00  0.00     0.037 A 
HETATM    9  C10 UNL     1      25.985   4.415  50.036  1.00  0.00    -0.026 A 
HETATM   10  C11 UNL     1      24.795   5.198  50.339  1.00  0.00     0.037 A 
HETATM   11  C12 UNL     1      23.694   5.274  51.316  1.00  0.00     0.112 A 
HETATM   12  C13 UNL     1      24.738   6.157  49.178  1.00  0.00     0.249 A 
HETATM   13  O2  UNL     1      23.768   6.997  49.158  1.00  0.00    -0.268 OA
HETATM   14  N4  UNL     1      25.849   5.908  48.284  1.00  0.00    -0.353 N 
HETATM   15  C14 UNL     1      26.712   4.866  48.831  1.00  0.00     0.162 A 
HETATM   16  N5  UNL     1      25.065   2.252  52.614  1.00  0.00    -0.319 N 
HETATM   17  C15 UNL     1      25.808   1.091  52.669  1.00  0.00     0.043 A 
HETATM   18  C16 UNL     1      27.138   1.040  52.522  1.00  0.00     0.030 A 
HETATM   19  C17 UNL     1      27.541  -0.313  52.527  1.00  0.00     0.002 A 
HETATM   20  C18 UNL     1      26.647  -1.390  52.671  1.00  0.00     0.001 A 
HETATM   21  C19 UNL     1      25.273  -1.155  52.820  1.00  0.00     0.010 A 
HETATM   22  C20 UNL     1      24.728   0.155  52.832  1.00  0.00    -0.023 A 
HETATM   23  C21 UNL     1      23.376   0.762  53.008  1.00  0.00     0.072 C 
HETATM   24  C22 UNL     1      22.522   0.899  51.764  1.00  0.00     0.040 C 
HETATM   25  C23 UNL     1      23.754   2.195  53.366  1.00  0.00     0.241 C 
HETATM   26  O3  UNL     1      23.019   2.978  52.519  1.00  0.00    -0.324 OA
HETATM   27  H10 UNL     1      21.120   4.254  53.039  1.00  0.00     0.126 HD
HETATM   28  H11 UNL     1      23.582   5.643  54.036  1.00  0.00     0.159 HD
HETATM   29  H13 UNL     1      25.902   6.447  47.434  1.00  0.00     0.163 HD
ENDROOT
BRANCH   1  30
HETATM   30  N1  UNL     1      20.135   1.009  51.555  1.00  0.00    -0.351 N 
HETATM   31  C2  UNL     1      19.516   0.188  52.539  1.00  0.00     0.215 C 
HETATM   32  C1  UNL     1      18.336  -0.661  52.217  1.00  0.00     0.117 C 
HETATM   33  O1  UNL     1      19.905   0.110  53.743  1.00  0.00    -0.274 OA
HETATM   34  C3  UNL     1      19.572   0.995  50.197  1.00  0.00     0.153 C 
ENDBRANCH   1  30
TORSDOF 1
ENDMDL
MODEL 3
REMARK VINA RESULT:      -9.4      2.064      5.806
REMARK  1 active torsions:
REMARK  status: ('A' for Active; 'I' for Inactive)
REMARK       I    between atoms: C2_2  and  N1_4 
REMARK    1  A    between atoms: N1_4  and  C4_6 
ROOT
HETATM    1  C4  UNL     1      26.524   1.596  52.126  1.00  0.00     0.100 C 
HETATM    2  C5  UNL     1      26.780   2.859  51.425  1.00  0.00     0.116 C 
HETATM    3  N2  UNL     1      26.358   2.967  49.989  1.00  0.00    -0.276 NA
HETATM    4  C6  UNL     1      24.861   3.012  49.974  1.00  0.00     0.185 A 
HETATM    5  N3  UNL     1      24.115   2.820  48.897  1.00  0.00    -0.360 N 
HETATM    6  C7  UNL     1      23.734   3.515  50.281  1.00  0.00     0.152 A 
HETATM    7  C8  UNL     1      22.668   3.255  51.109  1.00  0.00     0.051 A 
HETATM    8  C9  UNL     1      21.817   4.159  51.700  1.00  0.00     0.037 A 
HETATM    9  C10 UNL     1      22.325   5.390  51.240  1.00  0.00    -0.026 A 
HETATM   10  C11 UNL     1      23.491   5.388  50.367  1.00  0.00     0.037 A 
HETATM   11  C12 UNL     1      24.433   4.457  49.717  1.00  0.00     0.112 A 
HETATM   12  C13 UNL     1      23.772   6.859  50.203  1.00  0.00     0.249 A 
HETATM   13  O2  UNL     1      24.773   7.187  49.470  1.00  0.00    -0.268 OA
HETATM   14  N4  UNL     1      22.799   7.627  50.950  1.00  0.00    -0.353 N 
HETATM   15  C14 UNL     1      21.814   6.739  51.558  1.00  0.00     0.162 A 
HETATM   16  N5  UNL     1      22.735   1.943  51.586  1.00  0.00    -0.319 N 
HETATM   17  C15 UNL     1      21.936   1.374  52.557  1.00  0.00     0.043 A 
HETATM   18  C16 UNL     1      20.643   1.672  52.739  1.00  0.00     0.030 A 
HETATM   19  C17 UNL     1      20.179   0.986  53.883  1.00  0.00     0.002 A 
HETATM   20  C18 UNL     1      20.988   0.139  54.662  1.00  0.00     0.001 A 
HETATM   21  C19 UNL     1      22.333  -0.066  54.324  1.00  0.00     0.010 A 
HETATM   22  C20 UNL     1      22.932   0.560  53.200  1.00  0.00    -0.023 A 
HETATM   23  C21 UNL     1      24.269   0.540  52.537  1.00  0.00     0.072 C 
HETATM   24  C22 UNL     1      25.309   1.505  53.069  1.00  0.00     0.040 C 
HETATM   25  C23 UNL     1      23.910   1.091  51.161  1.00  0.00     0.241 C 
HETATM   26  O3  UNL     1      24.803   2.104  50.942  1.00  0.00    -0.324 OA
HETATM   27  H10 UNL     1      26.660   2.085  49.508  1.00  0.00     0.126 HD
HETATM   28  H11 UNL     1      24.145   2.409  47.910  1.00  0.00     0.159 HD
HETATM   29  H13 UNL     1      22.903   8.630  50.971  1.00  0.00     0.163 HD
ENDROOT
BRANCH   1  30
HETATM   30  N1  UNL     1      27.702   1.369  52.987  1.00  0.00    -0.351 N 
HETATM   31  C2  UNL     1      28.066   0.007  53.179  1.00  0.00     0.215 C 
HETATM   32  C1  UNL     1      29.232  -0.378  54.022  1.00  0.00     0.117 C 
HETATM   33  O1  UNL     1      27.446  -0.971  52.665  1.00  0.00    -0.274 OA
HETATM   34  C3  UNL     1      28.518   2.397  53.650  1.00  0.00     0.153 C 
ENDBRANCH   1  30
TORSDOF 1
ENDMDL
MODEL 4
REMARK VINA RESULT:      -9.4      2.362      5.325
REMARK  1 active torsions:
REMARK  status: ('A' for Active; 'I' for Inactive)
REMARK       I    between atoms: C2_2  and  N1_4 
REMARK    1  A    between atoms: N1_4  and  C4_6 
ROOT
HETATM    1  C4  UNL     1      22.659   4.579  50.462  1.00  0.00     0.100 C 
HETATM    2  C5  UNL     1      21.270   4.271  50.106  1.00  0.00     0.116 C 
HETATM    3  N2  UNL     1      21.026   3.242  49.041  1.00  0.00    -0.276 NA
HETATM    4  C6  UNL     1      21.401   1.913  49.621  1.00  0.00     0.185 A 
HETATM    5  N3  UNL     1      21.596   0.812  48.911  1.00  0.00    -0.360 N 
HETATM    6  C7  UNL     1      21.299   0.972  50.470  1.00  0.00     0.152 A 
HETATM    7  C8  UNL     1      21.993   0.450  51.535  1.00  0.00     0.051 A 
HETATM    8  C9  UNL     1      21.486  -0.194  52.640  1.00  0.00     0.037 A 
HETATM    9  C10 UNL     1      20.100  -0.169  52.389  1.00  0.00    -0.026 A 
HETATM   10  C11 UNL     1      19.617   0.468  51.171  1.00  0.00     0.037 A 
HETATM   11  C12 UNL     1      20.112   1.168  49.972  1.00  0.00     0.112 A 
HETATM   12  C13 UNL     1      18.122   0.382  51.335  1.00  0.00     0.249 A 
HETATM   13  O2  UNL     1      17.399   0.877  50.397  1.00  0.00    -0.268 OA
HETATM   14  N4  UNL     1      17.805  -0.274  52.586  1.00  0.00    -0.353 N 
HETATM   15  C14 UNL     1      19.029  -0.713  53.249  1.00  0.00     0.162 A 
HETATM   16  N5  UNL     1      23.297   0.951  51.555  1.00  0.00    -0.319 N 
HETATM   17  C15 UNL     1      24.233   0.782  52.556  1.00  0.00     0.043 A 
HETATM   18  C16 UNL     1      24.347  -0.325  53.301  1.00  0.00     0.030 A 
HETATM   19  C17 UNL     1      25.331  -0.103  54.289  1.00  0.00     0.002 A 
HETATM   20  C18 UNL     1      26.044   1.103  54.419  1.00  0.00     0.001 A 
HETATM   21  C19 UNL     1      25.799   2.170  53.543  1.00  0.00     0.010 A 
HETATM   22  C20 UNL     1      24.837   2.086  52.502  1.00  0.00    -0.023 A 
HETATM   23  C21 UNL     1      24.361   2.968  51.397  1.00  0.00     0.072 C 
HETATM   24  C22 UNL     1      23.256   3.949  51.734  1.00  0.00     0.040 C 
HETATM   25  C23 UNL     1      23.693   1.944  50.486  1.00  0.00     0.241 C 
HETATM   26  O3  UNL     1      22.448   2.452  50.235  1.00  0.00    -0.324 OA
HETATM   27  H10 UNL     1      21.686   3.448  48.252  1.00  0.00     0.126 HD
HETATM   28  H11 UNL     1      21.797   0.471  47.917  1.00  0.00     0.159 HD
HETATM   29  H13 UNL     1      16.835  -0.350  52.848  1.00  0.00     0.163 HD
ENDROOT
BRANCH   1  30
HETATM   30  N1  UNL     1      22.699   6.037  50.695  1.00  0.00    -0.351 N 
HETATM   31  C2  UNL     1      23.942   6.669  50.413  1.00  0.00     0.215 C 
HETATM   32  C1  UNL     1      24.133   8.134  50.600  1.00  0.00     0.117 C 
HETATM   33  O1  UNL     1      24.967   6.056  49.988  1.00  0.00    -0.274 OA
HETATM   34  C3  UNL     1      21.596   6.879  51.183  1.00  0.00     0.153 C 
ENDBRANCH   1  30
TORSDOF 1
ENDMDL
MODEL 5
REMARK VINA RESULT:      -8.9      2.573      4.173
REMARK  1 active torsions:
REMARK  status: ('A' for Active; 'I' for Inactive)
REMARK       I    between atoms: C2_2  and  N1_4 
REMARK    1  A    between atoms: N1_4  and  C4_6 
ROOT
HETATM    1  C4  UNL     1      19.875   3.783  49.978  1.00  0.00     0.100 C 
HETATM    2  C5  UNL     1      20.660   4.820  49.301  1.00  0.00     0.116 C 
HETATM    3  N2  UNL     1      21.192   5.955  50.126  1.00  0.00    -0.276 NA
HETATM    4  C6  UNL     1      22.276   5.395  50.994  1.00  0.00     0.185 A 
HETATM    5  N3  UNL     1      22.784   6.010  52.052  1.00  0.00    -0.360 N 
HETATM    6  C7  UNL     1      23.387   4.809  51.193  1.00  0.00     0.152 A 
HETATM    7  C8  UNL     1      23.861   3.594  51.628  1.00  0.00     0.051 A 
HETATM    8  C9  UNL     1      25.029   2.965  51.268  1.00  0.00     0.037 A 
HETATM    9  C10 UNL     1      25.589   3.879  50.353  1.00  0.00    -0.026 A 
HETATM   10  C11 UNL     1      24.865   5.106  50.053  1.00  0.00     0.037 A 
HETATM   11  C12 UNL     1      23.622   5.817  50.404  1.00  0.00     0.112 A 
HETATM   12  C13 UNL     1      25.721   5.730  48.981  1.00  0.00     0.249 A 
HETATM   13  O2  UNL     1      25.330   6.852  48.497  1.00  0.00    -0.268 OA
HETATM   14  N4  UNL     1      26.862   4.880  48.712  1.00  0.00    -0.353 N 
HETATM   15  C14 UNL     1      26.862   3.735  49.617  1.00  0.00     0.162 A 
HETATM   16  N5  UNL     1      22.839   2.870  52.247  1.00  0.00    -0.319 N 
HETATM   17  C15 UNL     1      22.892   1.555  52.664  1.00  0.00     0.043 A 
HETATM   18  C16 UNL     1      23.989   0.964  53.154  1.00  0.00     0.030 A 
HETATM   19  C17 UNL     1      23.707  -0.402  53.371  1.00  0.00     0.002 A 
HETATM   20  C18 UNL     1      22.457  -0.989  53.102  1.00  0.00     0.001 A 
HETATM   21  C19 UNL     1      21.405  -0.216  52.590  1.00  0.00     0.010 A 
HETATM   22  C20 UNL     1      21.549   1.170  52.323  1.00  0.00    -0.023 A 
HETATM   23  C21 UNL     1      20.670   2.274  51.838  1.00  0.00     0.072 C 
HETATM   24  C22 UNL     1      20.559   2.450  50.338  1.00  0.00     0.040 C 
HETATM   25  C23 UNL     1      21.462   3.491  52.304  1.00  0.00     0.241 C 
HETATM   26  O3  UNL     1      21.571   4.288  51.198  1.00  0.00    -0.324 OA
HETATM   27  H10 UNL     1      20.413   6.278  50.750  1.00  0.00     0.126 HD
HETATM   28  H11 UNL     1      22.583   6.793  52.752  1.00  0.00     0.159 HD
HETATM   29  H13 UNL     1      27.492   5.154  47.974  1.00  0.00     0.163 HD
ENDROOT
BRANCH   1  30
HETATM   30  N1  UNL     1      18.792   3.423  49.040  1.00  0.00    -0.351 N 
HETATM   31  C2  UNL     1      17.496   3.311  49.616  1.00  0.00     0.215 C 
HETATM   32  C1  UNL     1      16.306   2.955  48.794  1.00  0.00     0.117 C 
HETATM   33  O1  UNL     1      17.248   3.499  50.844  1.00  0.00    -0.274 OA
HETATM   34  C3  UNL     1      18.926   3.175  47.597  1.00  0.00     0.153 C 
ENDBRANCH   1  30
TORSDOF 1
ENDMDL
MODEL 6
REMARK VINA RESULT:      -8.6     22.891     25.640
REMARK  1 active torsions:
REMARK  status: ('A' for Active; 'I' for Inactive)
REMARK       I    between atoms: C2_2  and  N1_4 
REMARK    1  A    between atoms: N1_4  and  C4_6 
ROOT
HETATM    1  C4  UNL     1      39.165   1.535  70.001  1.00  0.00     0.100 C 
HETATM    2  C5  UNL     1      38.282   0.704  69.177  1.00  0.00     0.116 C 
HETATM    3  N2  UNL     1      38.527   0.666  67.697  1.00  0.00    -0.276 NA
HETATM    4  C6  UNL     1      39.800  -0.094  67.483  1.00  0.00     0.185 A 
HETATM    5  N3  UNL     1      40.492  -0.096  66.354  1.00  0.00    -0.360 N 
HETATM    6  C7  UNL     1      40.540  -1.125  67.572  1.00  0.00     0.152 A 
HETATM    7  C8  UNL     1      41.630  -1.567  68.283  1.00  0.00     0.051 A 
HETATM    8  C9  UNL     1      41.943  -2.859  68.632  1.00  0.00     0.037 A 
HETATM    9  C10 UNL     1      40.868  -3.585  68.081  1.00  0.00    -0.026 A 
HETATM   10  C11 UNL     1      39.820  -2.862  67.375  1.00  0.00     0.037 A 
HETATM   11  C12 UNL     1      39.439  -1.493  66.982  1.00  0.00     0.112 A 
HETATM   12  C13 UNL     1      38.836  -3.957  67.053  1.00  0.00     0.249 A 
HETATM   13  O2  UNL     1      37.773  -3.621  66.418  1.00  0.00    -0.268 OA
HETATM   14  N4  UNL     1      39.329  -5.220  67.559  1.00  0.00    -0.353 N 
HETATM   15  C14 UNL     1      40.653  -5.045  68.147  1.00  0.00     0.162 A 
HETATM   16  N5  UNL     1      42.248  -0.497  68.935  1.00  0.00    -0.319 N 
HETATM   17  C15 UNL     1      43.267  -0.570  69.863  1.00  0.00     0.043 A 
HETATM   18  C16 UNL     1      44.246  -1.484  69.835  1.00  0.00     0.030 A 
HETATM   19  C17 UNL     1      45.042  -1.327  70.990  1.00  0.00     0.002 A 
HETATM   20  C18 UNL     1      44.800  -0.351  71.974  1.00  0.00     0.001 A 
HETATM   21  C19 UNL     1      43.722   0.536  71.842  1.00  0.00     0.010 A 
HETATM   22  C20 UNL     1      42.840   0.493  70.732  1.00  0.00    -0.023 A 
HETATM   23  C21 UNL     1      41.662   1.275  70.256  1.00  0.00     0.072 C 
HETATM   24  C22 UNL     1      40.306   0.857  70.784  1.00  0.00     0.040 C 
HETATM   25  C23 UNL     1      41.635   0.878  68.784  1.00  0.00     0.241 C 
HETATM   26  O3  UNL     1      40.347   0.482  68.548  1.00  0.00    -0.324 OA
HETATM   27  H10 UNL     1      38.684   1.654  67.381  1.00  0.00     0.126 HD
HETATM   28  H11 UNL     1      40.626   0.448  65.443  1.00  0.00     0.159 HD
HETATM   29  H13 UNL     1      38.740  -6.032  67.458  1.00  0.00     0.163 HD
ENDROOT
BRANCH   1  30
HETATM   30  N1  UNL     1      38.298   2.145  71.030  1.00  0.00    -0.351 N 
HETATM   31  C2  UNL     1      38.644   3.470  71.415  1.00  0.00     0.215 C 
HETATM   32  C1  UNL     1      37.862   4.214  72.441  1.00  0.00     0.117 C 
HETATM   33  O1  UNL     1      39.622   4.116  70.932  1.00  0.00    -0.274 OA
HETATM   34  C3  UNL     1      37.135   1.523  71.679  1.00  0.00     0.153 C 
ENDBRANCH   1  30
TORSDOF 1
ENDMDL
MODEL 7
REMARK VINA RESULT:      -8.6      2.296      5.863
REMARK  1 active torsions:
REMARK  status: ('A' for Active; 'I' for Inactive)
REMARK       I    between atoms: C2_2  and  N1_4 
REMARK    1  A    between atoms: N1_4  and  C4_6 
ROOT
HETATM    1  C4  UNL     1      22.751   0.637  52.449  1.00  0.00     0.100 C 
HETATM    2  C5  UNL     1      23.661   1.783  52.555  1.00  0.00     0.116 C 
HETATM    3  N2  UNL     1      24.491   2.139  51.357  1.00  0.00    -0.276 NA
HETATM    4  C6  UNL     1      23.558   2.699  50.328  1.00  0.00     0.185 A 
HETATM    5  N3  UNL     1      23.860   2.859  49.049  1.00  0.00    -0.360 N 
HETATM    6  C7  UNL     1      22.697   3.535  49.906  1.00  0.00     0.152 A 
HETATM    7  C8  UNL     1      21.352   3.596  49.632  1.00  0.00     0.051 A 
HETATM    8  C9  UNL     1      20.523   4.691  49.709  1.00  0.00     0.037 A 
HETATM    9  C10 UNL     1      21.406   5.702  50.138  1.00  0.00    -0.026 A 
HETATM   10  C11 UNL     1      22.803   5.364  50.371  1.00  0.00     0.037 A 
HETATM   11  C12 UNL     1      23.729   4.218  50.309  1.00  0.00     0.112 A 
HETATM   12  C13 UNL     1      23.360   6.656  50.910  1.00  0.00     0.249 A 
HETATM   13  O2  UNL     1      24.605   6.673  51.222  1.00  0.00    -0.268 OA
HETATM   14  N4  UNL     1      22.313   7.654  50.965  1.00  0.00    -0.353 N 
HETATM   15  C14 UNL     1      21.075   7.116  50.409  1.00  0.00     0.162 A 
HETATM   16  N5  UNL     1      20.808   2.310  49.586  1.00  0.00    -0.319 N 
HETATM   17  C15 UNL     1      19.471   1.979  49.496  1.00  0.00     0.043 A 
HETATM   18  C16 UNL     1      18.564   2.690  48.814  1.00  0.00     0.030 A 
HETATM   19  C17 UNL     1      17.290   2.122  49.031  1.00  0.00     0.002 A 
HETATM   20  C18 UNL     1      17.071   0.991  49.839  1.00  0.00     0.001 A 
HETATM   21  C19 UNL     1      18.145   0.361  50.483  1.00  0.00     0.010 A 
HETATM   22  C20 UNL     1      19.480   0.825  50.354  1.00  0.00    -0.023 A 
HETATM   23  C21 UNL     1      20.825   0.396  50.837  1.00  0.00     0.072 C 
HETATM   24  C22 UNL     1      21.254   0.899  52.200  1.00  0.00     0.040 C 
HETATM   25  C23 UNL     1      21.727   1.140  49.858  1.00  0.00     0.241 C 
HETATM   26  O3  UNL     1      22.636   1.796  50.642  1.00  0.00    -0.324 OA
HETATM   27  H10 UNL     1      24.892   1.247  50.979  1.00  0.00     0.126 HD
HETATM   28  H11 UNL     1      24.550   2.539  48.297  1.00  0.00     0.159 HD
HETATM   29  H13 UNL     1      22.538   8.554  51.359  1.00  0.00     0.163 HD
ENDROOT
BRANCH   1  30
HETATM   30  N1  UNL     1      22.814  -0.048  53.756  1.00  0.00    -0.351 N 
HETATM   31  C2  UNL     1      24.079  -0.603  54.096  1.00  0.00     0.215 C 
HETATM   32  C1  UNL     1      24.295  -1.323  55.381  1.00  0.00     0.117 C 
HETATM   33  O1  UNL     1      25.105  -0.535  53.355  1.00  0.00    -0.274 OA
HETATM   34  C3  UNL     1      21.713  -0.207  54.718  1.00  0.00     0.153 C 
ENDBRANCH   1  30
TORSDOF 1
ENDMDL
MODEL 8
REMARK VINA RESULT:      -8.5      2.089      6.064
REMARK  1 active torsions:
REMARK  status: ('A' for Active; 'I' for Inactive)
REMARK       I    between atoms: C2_2  and  N1_4 
REMARK    1  A    between atoms: N1_4  and  C4_6 
ROOT
HETATM    1  C4  UNL     1      23.653   1.490  51.965  1.00  0.00     0.100 C 
HETATM    2  C5  UNL     1      23.761   2.718  51.168  1.00  0.00     0.116 C 
HETATM    3  N2  UNL     1      23.672   2.600  49.675  1.00  0.00    -0.276 NA
HETATM    4  C6  UNL     1      22.253   2.253  49.346  1.00  0.00     0.185 A 
HETATM    5  N3  UNL     1      21.846   1.790  48.174  1.00  0.00    -0.360 N 
HETATM    6  C7  UNL     1      20.999   2.467  49.344  1.00  0.00     0.152 A 
HETATM    7  C8  UNL     1      19.862   2.004  49.961  1.00  0.00     0.051 A 
HETATM    8  C9  UNL     1      18.708   2.698  50.237  1.00  0.00     0.037 A 
HETATM    9  C10 UNL     1      19.004   3.979  49.730  1.00  0.00    -0.026 A 
HETATM   10  C11 UNL     1      20.308   4.213  49.126  1.00  0.00     0.037 A 
HETATM   11  C12 UNL     1      21.568   3.512  48.815  1.00  0.00     0.112 A 
HETATM   12  C13 UNL     1      20.263   5.689  48.827  1.00  0.00     0.249 A 
HETATM   13  O2  UNL     1      21.301   6.208  48.279  1.00  0.00    -0.268 OA
HETATM   14  N4  UNL     1      18.990   6.234  49.248  1.00  0.00    -0.353 N 
HETATM   15  C14 UNL     1      18.129   5.169  49.752  1.00  0.00     0.162 A 
HETATM   16  N5  UNL     1      20.124   0.796  50.613  1.00  0.00    -0.319 N 
HETATM   17  C15 UNL     1      19.278   0.116  51.466  1.00  0.00     0.043 A 
HETATM   18  C16 UNL     1      17.946   0.080  51.336  1.00  0.00     0.030 A 
HETATM   19  C17 UNL     1      17.403  -0.611  52.440  1.00  0.00     0.002 A 
HETATM   20  C18 UNL     1      18.184  -1.156  53.476  1.00  0.00     0.001 A 
HETATM   21  C19 UNL     1      19.580  -1.029  53.453  1.00  0.00     0.010 A 
HETATM   22  C20 UNL     1      20.260  -0.358  52.404  1.00  0.00    -0.023 A 
HETATM   23  C21 UNL     1      21.680  -0.081  52.040  1.00  0.00     0.072 C 
HETATM   24  C22 UNL     1      22.309   1.159  52.640  1.00  0.00     0.040 C 
HETATM   25  C23 UNL     1      21.533   0.249  50.558  1.00  0.00     0.241 C 
HETATM   26  O3  UNL     1      22.187   1.439  50.394  1.00  0.00    -0.324 OA
HETATM   27  H10 UNL     1      24.277   1.793  49.389  1.00  0.00     0.126 HD
HETATM   28  H11 UNL     1      22.202   1.325  47.279  1.00  0.00     0.159 HD
HETATM   29  H13 UNL     1      18.847   7.227  49.155  1.00  0.00     0.163 HD
ENDROOT
BRANCH   1  30
HETATM   30  N1  UNL     1      24.618   1.645  53.073  1.00  0.00    -0.351 N 
HETATM   31  C2  UNL     1      25.286   0.455  53.473  1.00  0.00     0.215 C 
HETATM   32  C1  UNL     1      26.286   0.455  54.576  1.00  0.00     0.117 C 
HETATM   33  O1  UNL     1      25.094  -0.679  52.940  1.00  0.00    -0.274 OA
HETATM   34  C3  UNL     1      24.944   2.889  53.786  1.00  0.00     0.153 C 
ENDBRANCH   1  30
TORSDOF 1
ENDMDL
MODEL 9
REMARK VINA RESULT:      -8.5      8.927     12.716
REMARK  1 active torsions:
REMARK  status: ('A' for Active; 'I' for Inactive)
REMARK       I    between atoms: C2_2  and  N1_4 
REMARK    1  A    between atoms: N1_4  and  C4_6 
ROOT
HETATM    1  C4  UNL     1      32.282   6.044  47.636  1.00  0.00     0.100 C 
HETATM    2  C5  UNL     1      30.898   5.680  47.957  1.00  0.00     0.116 C 
HETATM    3  N2  UNL     1      30.241   6.359  49.122  1.00  0.00    -0.276 NA
HETATM    4  C6  UNL     1      30.003   7.783  48.722  1.00  0.00     0.185 A 
HETATM    5  N3  UNL     1      29.709   8.760  49.566  1.00  0.00    -0.360 N 
HETATM    6  C7  UNL     1      29.500   8.690  47.986  1.00  0.00     0.152 A 
HETATM    7  C8  UNL     1      29.895   9.591  47.026  1.00  0.00     0.051 A 
HETATM    8  C9  UNL     1      29.154  10.091  45.981  1.00  0.00     0.037 A 
HETATM    9  C10 UNL     1      27.916   9.443  46.158  1.00  0.00    -0.026 A 
HETATM   10  C11 UNL     1      27.761   8.511  47.266  1.00  0.00     0.037 A 
HETATM   11  C12 UNL     1      28.517   7.942  48.398  1.00  0.00     0.112 A 
HETATM   12  C13 UNL     1      26.374   7.968  47.039  1.00  0.00     0.249 A 
HETATM   13  O2  UNL     1      25.941   7.096  47.874  1.00  0.00    -0.268 OA
HETATM   14  N4  UNL     1      25.798   8.580  45.860  1.00  0.00    -0.353 N 
HETATM   15  C14 UNL     1      26.710   9.582  45.316  1.00  0.00     0.162 A 
HETATM   16  N5  UNL     1      31.288   9.703  47.012  1.00  0.00    -0.319 N 
HETATM   17  C15 UNL     1      32.054  10.383  46.087  1.00  0.00     0.043 A 
HETATM   18  C16 UNL     1      31.676  11.518  45.484  1.00  0.00     0.030 A 
HETATM   19  C17 UNL     1      32.653  11.867  44.527  1.00  0.00     0.002 A 
HETATM   20  C18 UNL     1      33.815  11.110  44.292  1.00  0.00     0.001 A 
HETATM   21  C19 UNL     1      34.059   9.939  45.023  1.00  0.00     0.010 A 
HETATM   22  C20 UNL     1      33.161   9.469  46.016  1.00  0.00    -0.023 A 
HETATM   23  C21 UNL     1      33.118   8.334  46.984  1.00  0.00     0.072 C 
HETATM   24  C22 UNL     1      32.542   7.027  46.479  1.00  0.00     0.040 C 
HETATM   25  C23 UNL     1      32.079   8.847  47.975  1.00  0.00     0.241 C 
HETATM   26  O3  UNL     1      31.177   7.827  48.102  1.00  0.00    -0.324 OA
HETATM   27  H10 UNL     1      30.929   6.356  49.913  1.00  0.00     0.126 HD
HETATM   28  H11 UNL     1      29.749   9.024  50.602  1.00  0.00     0.159 HD
HETATM   29  H13 UNL     1      24.889   8.266  45.561  1.00  0.00     0.163 HD
ENDROOT
BRANCH   1  30
HETATM   30  N1  UNL     1      32.945   4.787  47.234  1.00  0.00    -0.351 N 
HETATM   31  C2  UNL     1      34.220   4.553  47.821  1.00  0.00     0.215 C 
HETATM   32  C1  UNL     1      35.008   3.328  47.511  1.00  0.00     0.117 C 
HETATM   33  O1  UNL     1      34.782   5.345  48.635  1.00  0.00    -0.274 OA
HETATM   34  C3  UNL     1      32.421   3.776  46.304  1.00  0.00     0.153 C 
ENDBRANCH   1  30
TORSDOF 1
ENDMDL
