MODEL 1
REMARK VINA RESULT:      -7.8      0.000      0.000
REMARK  7 active torsions:
REMARK  status: ('A' for Active; 'I' for Inactive)
REMARK    1  A    between atoms: C2_2  and  C3_3 
REMARK    2  A    between atoms: C3_3  and  C5_5 
REMARK    3  A    between atoms: C11_12  and  C12_13 
REMARK    4  A    between atoms: N2_15  and  N3_16 
REMARK    5  A    between atoms: N3_16  and  C13_17 
REMARK    6  A    between atoms: C14_18  and  C17_21 
REMARK    7  A    between atoms: C17_21  and  C18_22 
ROOT
HETATM    1  C5  UNL     1      22.139   2.555  51.082  1.00  0.00     0.009 C 
HETATM    2  C6  UNL     1      23.355   2.623  50.171  1.00  0.00     0.010 C 
HETATM    3  C7  UNL     1      24.521   2.875  51.135  1.00  0.00     0.029 C 
HETATM    4  C8  UNL     1      24.770   1.524  51.763  1.00  0.00     0.001 C 
HETATM    5  C9  UNL     1      23.664   1.126  52.431  1.00  0.00     0.042 C 
HETATM    6  C10 UNL     1      22.472   2.037  52.431  1.00  0.00     0.105 C 
HETATM    7  S1  UNL     1      21.261   0.853  53.114  1.00  0.00    -0.125 SA
HETATM    8  C11 UNL     1      22.239  -0.658  53.011  1.00  0.00     0.211 C 
HETATM    9  N2  UNL     1      23.588  -0.108  53.120  1.00  0.00    -0.257 N 
ENDROOT
BRANCH   9  10
HETATM   10  N3  UNL     1      24.499  -0.788  53.792  1.00  0.00    -0.197 NA
BRANCH  10  11
HETATM   11  C13 UNL     1      25.713  -0.313  54.117  1.00  0.00     0.127 A 
HETATM   12  C14 UNL     1      27.060  -0.721  53.565  1.00  0.00     0.023 A 
HETATM   13  C15 UNL     1      28.447  -0.728  53.455  1.00  0.00     0.035 A 
HETATM   14  C19 UNL     1      26.990  -1.674  52.478  1.00  0.00    -0.026 A 
HETATM   15  C18 UNL     1      26.822  -0.821  53.471  1.00  0.00     0.023 A 
HETATM   16  C16 UNL     1      28.740   0.285  54.582  1.00  0.00    -0.039 A 
HETATM   17  C17 UNL     1      27.415   0.192  54.567  1.00  0.00     0.035 A 
ENDBRANCH  10  11
ENDBRANCH   9  10
BRANCH   8  18
HETATM   18  C12 UNL     1      21.890  -1.625  54.092  1.00  0.00     0.118 C 
HETATM   19  N1  UNL     1      22.111  -1.616  55.330  1.00  0.00    -0.313 NA
HETATM   20  H19 UNL     1      21.821  -2.359  56.008  1.00  0.00     0.185 HD
ENDBRANCH   8  18
BRANCH   1  21
HETATM   21  C3  UNL     1      20.945   1.933  50.431  1.00  0.00    -0.013 C 
HETATM   22  C4  UNL     1      21.253   0.966  49.344  1.00  0.00     0.010 C 
BRANCH  21  23
HETATM   23  C2  UNL     1      19.995   3.024  49.915  1.00  0.00     0.000 C 
HETATM   24  C1  UNL     1      19.601   3.892  51.093  1.00  0.00     0.005 C 
ENDBRANCH  21  23
ENDBRANCH   1  21
TORSDOF 7
ENDMDL
MODEL 2
REMARK VINA RESULT:      -7.7      1.725      2.157
REMARK  7 active torsions:
REMARK  status: ('A' for Active; 'I' for Inactive)
REMARK    1  A    between atoms: C2_2  and  C3_3 
REMARK    2  A    between atoms: C3_3  and  C5_5 
REMARK    3  A    between atoms: C11_12  and  C12_13 
REMARK    4  A    between atoms: N2_15  and  N3_16 
REMARK    5  A    between atoms: N3_16  and  C13_17 
REMARK    6  A    between atoms: C14_18  and  C17_21 
REMARK    7  A    between atoms: C17_21  and  C18_22 
ROOT
HETATM    1  C5  UNL     1      24.226   3.807  50.253  1.00  0.00     0.009 C 
HETATM    2  C6  UNL     1      25.425   3.459  49.384  1.00  0.00     0.010 C 
HETATM    3  C7  UNL     1      26.590   3.394  50.379  1.00  0.00     0.029 C 
HETATM    4  C8  UNL     1      26.403   2.062  51.068  1.00  0.00     0.001 C 
HETATM    5  C9  UNL     1      25.214   2.049  51.711  1.00  0.00     0.042 C 
HETATM    6  C10 UNL     1      24.355   3.277  51.632  1.00  0.00     0.105 C 
HETATM    7  S1  UNL     1      22.827   2.549  52.317  1.00  0.00    -0.125 SA
HETATM    8  C11 UNL     1      23.302   0.810  52.308  1.00  0.00     0.211 C 
HETATM    9  N2  UNL     1      24.751   0.931  52.444  1.00  0.00    -0.257 N 
ENDROOT
BRANCH   9  10
HETATM   10  N3  UNL     1      25.397   0.041  53.175  1.00  0.00    -0.197 NA
BRANCH  10  11
HETATM   11  C13 UNL     1      26.729   0.026  53.349  1.00  0.00     0.127 A 
HETATM   12  C14 UNL     1      27.700  -1.100  53.075  1.00  0.00     0.023 A 
HETATM   13  C15 UNL     1      28.930  -1.748  53.050  1.00  0.00     0.035 A 
HETATM   14  C19 UNL     1      27.101  -2.259  52.451  1.00  0.00    -0.026 A 
HETATM   15  C18 UNL     1      27.432  -1.115  53.016  1.00  0.00     0.023 A 
HETATM   16  C16 UNL     1      29.762  -0.621  53.699  1.00  0.00    -0.039 A 
HETATM   17  C17 UNL     1      28.529  -0.128  53.652  1.00  0.00     0.035 A 
ENDBRANCH  10  11
ENDBRANCH   9  10
BRANCH   8  18
HETATM   18  C12 UNL     1      22.651   0.047  53.414  1.00  0.00     0.118 C 
HETATM   19  N1  UNL     1      22.412  -1.179  53.560  1.00  0.00    -0.313 NA
HETATM   20  H19 UNL     1      21.939  -1.614  54.386  1.00  0.00     0.185 HD
ENDBRANCH   8  18
BRANCH   1  21
HETATM   21  C3  UNL     1      22.914   3.543  49.584  1.00  0.00    -0.013 C 
HETATM   22  C4  UNL     1      22.971   2.599  48.437  1.00  0.00     0.010 C 
BRANCH  21  23
HETATM   23  C2  UNL     1      22.268   4.867  49.149  1.00  0.00     0.000 C 
HETATM   24  C1  UNL     1      22.666   5.127  47.710  1.00  0.00     0.005 C 
ENDBRANCH  21  23
ENDBRANCH   1  21
TORSDOF 7
ENDMDL
MODEL 3
REMARK VINA RESULT:      -7.4      1.922      3.508
REMARK  7 active torsions:
REMARK  status: ('A' for Active; 'I' for Inactive)
REMARK    1  A    between atoms: C2_2  and  C3_3 
REMARK    2  A    between atoms: C3_3  and  C5_5 
REMARK    3  A    between atoms: C11_12  and  C12_13 
REMARK    4  A    between atoms: N2_15  and  N3_16 
REMARK    5  A    between atoms: N3_16  and  C13_17 
REMARK    6  A    between atoms: C14_18  and  C17_21 
REMARK    7  A    between atoms: C17_21  and  C18_22 
ROOT
HETATM    1  C5  UNL     1      20.545   0.380  52.130  1.00  0.00     0.009 C 
HETATM    2  C6  UNL     1      20.401   0.044  53.607  1.00  0.00     0.010 C 
HETATM    3  C7  UNL     1      21.446  -1.055  53.836  1.00  0.00     0.029 C 
HETATM    4  C8  UNL     1      22.756  -0.302  53.890  1.00  0.00     0.001 C 
HETATM    5  C9  UNL     1      22.963   0.328  52.712  1.00  0.00     0.042 C 
HETATM    6  C10 UNL     1      21.928   0.175  51.637  1.00  0.00     0.105 C 
HETATM    7  S1  UNL     1      22.541   1.484  50.521  1.00  0.00    -0.125 SA
HETATM    8  C11 UNL     1      23.748   2.259  51.615  1.00  0.00     0.211 C 
HETATM    9  N2  UNL     1      24.106   1.123  52.460  1.00  0.00    -0.257 N 
ENDROOT
BRANCH   9  10
HETATM   10  N3  UNL     1      25.359   0.998  52.858  1.00  0.00    -0.197 NA
BRANCH  10  11
HETATM   11  C13 UNL     1      26.053  -0.152  52.827  1.00  0.00     0.127 A 
HETATM   12  C14 UNL     1      27.521  -0.372  53.116  1.00  0.00     0.023 A 
HETATM   13  C15 UNL     1      28.709  -1.088  53.221  1.00  0.00     0.035 A 
HETATM   14  C19 UNL     1      28.216   0.809  53.580  1.00  0.00    -0.026 A 
HETATM   15  C18 UNL     1      27.397  -0.128  53.144  1.00  0.00     0.023 A 
HETATM   16  C16 UNL     1      28.160  -2.453  52.755  1.00  0.00    -0.039 A 
HETATM   17  C17 UNL     1      27.105  -1.646  52.707  1.00  0.00     0.035 A 
ENDBRANCH  10  11
ENDBRANCH   9  10
BRANCH   8  18
HETATM   18  C12 UNL     1      24.897   2.839  50.859  1.00  0.00     0.118 C 
HETATM   19  N1  UNL     1      25.829   3.607  51.207  1.00  0.00    -0.313 NA
HETATM   20  H19 UNL     1      26.593   3.962  50.586  1.00  0.00     0.185 HD
ENDBRANCH   8  18
BRANCH   1  21
HETATM   21  C3  UNL     1      19.915   1.683  51.755  1.00  0.00    -0.013 C 
HETATM   22  C4  UNL     1      20.162   2.799  52.708  1.00  0.00     0.010 C 
BRANCH  21  23
HETATM   23  C2  UNL     1      18.405   1.497  51.537  1.00  0.00     0.000 C 
HETATM   24  C1  UNL     1      18.212   0.317  50.608  1.00  0.00     0.005 C 
ENDBRANCH  21  23
ENDBRANCH   1  21
TORSDOF 7
ENDMDL
MODEL 4
REMARK VINA RESULT:      -7.4      3.132      5.853
REMARK  7 active torsions:
REMARK  status: ('A' for Active; 'I' for Inactive)
REMARK    1  A    between atoms: C2_2  and  C3_3 
REMARK    2  A    between atoms: C3_3  and  C5_5 
REMARK    3  A    between atoms: C11_12  and  C12_13 
REMARK    4  A    between atoms: N2_15  and  N3_16 
REMARK    5  A    between atoms: N3_16  and  C13_17 
REMARK    6  A    between atoms: C14_18  and  C17_21 
REMARK    7  A    between atoms: C17_21  and  C18_22 
ROOT
HETATM    1  C5  UNL     1      22.288   1.276  52.729  1.00  0.00     0.009 C 
HETATM    2  C6  UNL     1      21.595   0.869  51.437  1.00  0.00     0.010 C 
HETATM    3  C7  UNL     1      21.587   2.157  50.605  1.00  0.00     0.029 C 
HETATM    4  C8  UNL     1      23.004   2.264  50.090  1.00  0.00     0.001 C 
HETATM    5  C9  UNL     1      23.857   2.366  51.134  1.00  0.00     0.042 C 
HETATM    6  C10 UNL     1      23.282   2.357  52.520  1.00  0.00     0.105 C 
HETATM    7  S1  UNL     1      24.849   2.139  53.432  1.00  0.00    -0.125 SA
HETATM    8  C11 UNL     1      25.943   1.763  52.049  1.00  0.00     0.211 C 
HETATM    9  N2  UNL     1      25.259   2.472  50.971  1.00  0.00    -0.257 N 
ENDROOT
BRANCH   9  10
HETATM   10  N3  UNL     1      25.984   3.073  50.044  1.00  0.00    -0.197 NA
BRANCH  10  11
HETATM   11  C13 UNL     1      25.713   4.288  49.539  1.00  0.00     0.127 A 
HETATM   12  C14 UNL     1      26.659   5.259  48.870  1.00  0.00     0.023 A 
HETATM   13  C15 UNL     1      27.053   6.450  48.269  1.00  0.00     0.035 A 
HETATM   14  C19 UNL     1      27.996   4.743  48.674  1.00  0.00    -0.026 A 
HETATM   15  C18 UNL     1      26.735   5.008  48.951  1.00  0.00     0.023 A 
HETATM   16  C16 UNL     1      25.698   7.182  48.373  1.00  0.00    -0.039 A 
HETATM   17  C17 UNL     1      25.467   5.994  48.920  1.00  0.00     0.035 A 
ENDBRANCH  10  11
ENDBRANCH   9  10
BRANCH   8  18
HETATM   18  C12 UNL     1      27.338   2.235  52.295  1.00  0.00     0.118 C 
HETATM   19  N1  UNL     1      27.877   2.776  53.294  1.00  0.00    -0.313 NA
HETATM   20  H19 UNL     1      28.877   3.076  53.360  1.00  0.00     0.185 HD
ENDBRANCH   8  18
BRANCH   1  21
HETATM   21  C3  UNL     1      22.765   0.112  53.538  1.00  0.00    -0.013 C 
HETATM   22  C4  UNL     1      23.016  -1.132  52.762  1.00  0.00     0.010 C 
BRANCH  21  23
HETATM   23  C2  UNL     1      21.786  -0.169  54.688  1.00  0.00     0.000 C 
HETATM   24  C1  UNL     1      21.179  -1.538  54.457  1.00  0.00     0.005 C 
ENDBRANCH  21  23
ENDBRANCH   1  21
TORSDOF 7
ENDMDL
MODEL 5
REMARK VINA RESULT:      -7.4      1.861      6.342
REMARK  7 active torsions:
REMARK  status: ('A' for Active; 'I' for Inactive)
REMARK    1  A    between atoms: C2_2  and  C3_3 
REMARK    2  A    between atoms: C3_3  and  C5_5 
REMARK    3  A    between atoms: C11_12  and  C12_13 
REMARK    4  A    between atoms: N2_15  and  N3_16 
REMARK    5  A    between atoms: N3_16  and  C13_17 
REMARK    6  A    between atoms: C14_18  and  C17_21 
REMARK    7  A    between atoms: C17_21  and  C18_22 
ROOT
HETATM    1  C5  UNL     1      27.588   0.465  52.644  1.00  0.00     0.009 C 
HETATM    2  C6  UNL     1      27.763   1.976  52.650  1.00  0.00     0.010 C 
HETATM    3  C7  UNL     1      26.731   2.468  51.628  1.00  0.00     0.029 C 
HETATM    4  C8  UNL     1      25.417   2.378  52.371  1.00  0.00     0.001 C 
HETATM    5  C9  UNL     1      25.182   1.093  52.719  1.00  0.00     0.042 C 
HETATM    6  C10 UNL     1      26.197   0.059  52.330  1.00  0.00     0.105 C 
HETATM    7  S1  UNL     1      25.553  -1.310  53.353  1.00  0.00    -0.125 SA
HETATM    8  C11 UNL     1      24.363  -0.394  54.352  1.00  0.00     0.211 C 
HETATM    9  N2  UNL     1      24.029   0.692  53.434  1.00  0.00    -0.257 N 
ENDROOT
BRANCH   9  10
HETATM   10  N3  UNL     1      22.785   1.134  53.399  1.00  0.00    -0.197 NA
BRANCH  10  11
HETATM   11  C13 UNL     1      22.048   1.235  52.280  1.00  0.00     0.127 A 
HETATM   12  C14 UNL     1      20.718   0.585  51.969  1.00  0.00     0.023 A 
HETATM   13  C15 UNL     1      19.613   0.244  51.197  1.00  0.00     0.035 A 
HETATM   14  C19 UNL     1      20.146  -0.151  53.075  1.00  0.00    -0.026 A 
HETATM   15  C18 UNL     1      20.844   0.563  52.213  1.00  0.00     0.023 A 
HETATM   16  C16 UNL     1      20.039   0.976  49.906  1.00  0.00    -0.039 A 
HETATM   17  C17 UNL     1      21.026   1.224  50.760  1.00  0.00     0.035 A 
ENDBRANCH  10  11
ENDBRANCH   9  10
BRANCH   8  18
HETATM   18  C12 UNL     1      23.195  -1.237  54.743  1.00  0.00     0.118 C 
HETATM   19  N1  UNL     1      23.013  -2.023  55.708  1.00  0.00    -0.313 NA
HETATM   20  H19 UNL     1      22.144  -2.577  55.889  1.00  0.00     0.185 HD
ENDBRANCH   8  18
BRANCH   1  21
HETATM   21  C3  UNL     1      28.202  -0.207  53.831  1.00  0.00    -0.013 C 
HETATM   22  C4  UNL     1      28.503   0.692  54.977  1.00  0.00     0.010 C 
BRANCH  21  23
HETATM   23  C2  UNL     1      29.467  -0.971  53.411  1.00  0.00     0.000 C 
HETATM   24  C1  UNL     1      29.062  -2.392  53.078  1.00  0.00     0.005 C 
ENDBRANCH  21  23
ENDBRANCH   1  21
TORSDOF 7
ENDMDL
MODEL 6
REMARK VINA RESULT:      -7.4      2.857      7.322
REMARK  7 active torsions:
REMARK  status: ('A' for Active; 'I' for Inactive)
REMARK    1  A    between atoms: C2_2  and  C3_3 
REMARK    2  A    between atoms: C3_3  and  C5_5 
REMARK    3  A    between atoms: C11_12  and  C12_13 
REMARK    4  A    between atoms: N2_15  and  N3_16 
REMARK    5  A    between atoms: N3_16  and  C13_17 
REMARK    6  A    between atoms: C14_18  and  C17_21 
REMARK    7  A    between atoms: C17_21  and  C18_22 
ROOT
HETATM    1  C5  UNL     1      26.013   0.020  53.455  1.00  0.00     0.009 C 
HETATM    2  C6  UNL     1      24.743  -0.808  53.322  1.00  0.00     0.010 C 
HETATM    3  C7  UNL     1      23.625   0.176  53.689  1.00  0.00     0.029 C 
HETATM    4  C8  UNL     1      23.479   1.033  52.454  1.00  0.00     0.001 C 
HETATM    5  C9  UNL     1      24.639   1.684  52.215  1.00  0.00     0.042 C 
HETATM    6  C10 UNL     1      25.784   1.455  53.158  1.00  0.00     0.105 C 
HETATM    7  S1  UNL     1      27.088   2.243  52.151  1.00  0.00    -0.125 SA
HETATM    8  C11 UNL     1      26.180   2.455  50.608  1.00  0.00     0.211 C 
HETATM    9  N2  UNL     1      24.815   2.560  51.118  1.00  0.00    -0.257 N 
ENDROOT
BRANCH   9  10
HETATM   10  N3  UNL     1      23.978   3.394  50.527  1.00  0.00    -0.197 NA
BRANCH  10  11
HETATM   11  C13 UNL     1      23.347   3.141  49.368  1.00  0.00     0.127 A 
HETATM   12  C14 UNL     1      22.896   4.123  48.311  1.00  0.00     0.023 A 
HETATM   13  C15 UNL     1      22.280   4.541  47.136  1.00  0.00     0.035 A 
HETATM   14  C19 UNL     1      23.300   5.489  48.561  1.00  0.00    -0.026 A 
HETATM   15  C18 UNL     1      23.039   4.197  48.534  1.00  0.00     0.023 A 
HETATM   16  C16 UNL     1      21.763   3.160  46.681  1.00  0.00    -0.039 A 
HETATM   17  C17 UNL     1      22.394   2.909  47.822  1.00  0.00     0.035 A 
ENDBRANCH  10  11
ENDBRANCH   9  10
BRANCH   8  18
HETATM   18  C12 UNL     1      26.638   3.656  49.850  1.00  0.00     0.118 C 
HETATM   19  N1  UNL     1      26.504   4.887  50.068  1.00  0.00    -0.313 NA
HETATM   20  H19 UNL     1      26.866   5.658  49.460  1.00  0.00     0.185 HD
ENDBRANCH   8  18
BRANCH   1  21
HETATM   21  C3  UNL     1      27.195  -0.596  52.777  1.00  0.00    -0.013 C 
HETATM   22  C4  UNL     1      26.977  -1.974  52.261  1.00  0.00     0.010 C 
BRANCH  21  23
HETATM   23  C2  UNL     1      28.414  -0.567  53.711  1.00  0.00     0.000 C 
HETATM   24  C1  UNL     1      29.353  -1.677  53.284  1.00  0.00     0.005 C 
ENDBRANCH  21  23
ENDBRANCH   1  21
TORSDOF 7
ENDMDL
MODEL 7
REMARK VINA RESULT:      -7.2      4.108      5.682
REMARK  7 active torsions:
REMARK  status: ('A' for Active; 'I' for Inactive)
REMARK    1  A    between atoms: C2_2  and  C3_3 
REMARK    2  A    between atoms: C3_3  and  C5_5 
REMARK    3  A    between atoms: C11_12  and  C12_13 
REMARK    4  A    between atoms: N2_15  and  N3_16 
REMARK    5  A    between atoms: N3_16  and  C13_17 
REMARK    6  A    between atoms: C14_18  and  C17_21 
REMARK    7  A    between atoms: C17_21  and  C18_22 
ROOT
HETATM    1  C5  UNL     1      20.660   1.888  49.861  1.00  0.00     0.009 C 
HETATM    2  C6  UNL     1      21.353   1.040  48.806  1.00  0.00     0.010 C 
HETATM    3  C7  UNL     1      22.041   2.071  47.902  1.00  0.00     0.029 C 
HETATM    4  C8  UNL     1      23.253   2.498  48.697  1.00  0.00     0.001 C 
HETATM    5  C9  UNL     1      22.855   3.060  49.860  1.00  0.00     0.042 C 
HETATM    6  C10 UNL     1      21.382   3.154  50.132  1.00  0.00     0.105 C 
HETATM    7  S1  UNL     1      21.488   3.609  51.897  1.00  0.00    -0.125 SA
HETATM    8  C11 UNL     1      23.247   3.315  52.169  1.00  0.00     0.211 C 
HETATM    9  N2  UNL     1      23.765   3.552  50.825  1.00  0.00    -0.257 N 
ENDROOT
BRANCH   9  10
HETATM   10  N3  UNL     1      24.937   4.147  50.691  1.00  0.00    -0.197 NA
BRANCH  10  11
HETATM   11  C13 UNL     1      25.157   5.228  49.926  1.00  0.00     0.127 A 
HETATM   12  C14 UNL     1      26.342   5.526  49.036  1.00  0.00     0.023 A 
HETATM   13  C15 UNL     1      27.135   6.273  48.173  1.00  0.00     0.035 A 
HETATM   14  C19 UNL     1      27.297   4.443  48.941  1.00  0.00    -0.026 A 
HETATM   15  C18 UNL     1      26.312   5.289  49.172  1.00  0.00     0.023 A 
HETATM   16  C16 UNL     1      26.247   7.535  48.130  1.00  0.00    -0.039 A 
HETATM   17  C17 UNL     1      25.594   6.707  48.938  1.00  0.00     0.035 A 
ENDBRANCH  10  11
ENDBRANCH   9  10
BRANCH   8  18
HETATM   18  C12 UNL     1      23.812   4.227  53.207  1.00  0.00     0.118 C 
HETATM   19  N1  UNL     1      23.714   5.469  53.376  1.00  0.00    -0.313 NA
HETATM   20  H19 UNL     1      24.162   6.018  54.146  1.00  0.00     0.185 HD
ENDBRANCH   8  18
BRANCH   1  21
HETATM   21  C3  UNL     1      20.251   1.110  51.071  1.00  0.00    -0.013 C 
HETATM   22  C4  UNL     1      21.182   0.017  51.461  1.00  0.00     0.010 C 
BRANCH  21  23
HETATM   23  C2  UNL     1      18.830   0.555  50.888  1.00  0.00     0.000 C 
HETATM   24  C1  UNL     1      18.521  -0.331  52.077  1.00  0.00     0.005 C 
ENDBRANCH  21  23
ENDBRANCH   1  21
TORSDOF 7
ENDMDL
MODEL 8
REMARK VINA RESULT:      -7.1      2.151      2.729
REMARK  7 active torsions:
REMARK  status: ('A' for Active; 'I' for Inactive)
REMARK    1  A    between atoms: C2_2  and  C3_3 
REMARK    2  A    between atoms: C3_3  and  C5_5 
REMARK    3  A    between atoms: C11_12  and  C12_13 
REMARK    4  A    between atoms: N2_15  and  N3_16 
REMARK    5  A    between atoms: N3_16  and  C13_17 
REMARK    6  A    between atoms: C14_18  and  C17_21 
REMARK    7  A    between atoms: C17_21  and  C18_22 
ROOT
HETATM    1  C5  UNL     1      24.329   4.955  50.160  1.00  0.00     0.009 C 
HETATM    2  C6  UNL     1      25.246   4.639  48.988  1.00  0.00     0.010 C 
HETATM    3  C7  UNL     1      26.568   4.239  49.656  1.00  0.00     0.029 C 
HETATM    4  C8  UNL     1      26.315   2.832  50.145  1.00  0.00     0.001 C 
HETATM    5  C9  UNL     1      25.302   2.841  51.040  1.00  0.00     0.042 C 
HETATM    6  C10 UNL     1      24.657   4.157  51.366  1.00  0.00     0.105 C 
HETATM    7  S1  UNL     1      23.209   3.502  52.265  1.00  0.00    -0.125 SA
HETATM    8  C11 UNL     1      23.382   1.752  51.863  1.00  0.00     0.211 C 
HETATM    9  N2  UNL     1      24.827   1.667  51.671  1.00  0.00    -0.257 N 
ENDROOT
BRANCH   9  10
HETATM   10  N3  UNL     1      25.459   0.579  52.075  1.00  0.00    -0.197 NA
BRANCH  10  11
HETATM   11  C13 UNL     1      26.716   0.564  52.548  1.00  0.00     0.127 A 
HETATM   12  C14 UNL     1      27.582  -0.631  52.876  1.00  0.00     0.023 A 
HETATM   13  C15 UNL     1      28.706  -1.305  53.343  1.00  0.00     0.035 A 
HETATM   14  C19 UNL     1      26.988  -1.905  52.531  1.00  0.00    -0.026 A 
HETATM   15  C18 UNL     1      27.331  -0.653  52.764  1.00  0.00     0.023 A 
HETATM   16  C16 UNL     1      29.515  -0.064  53.774  1.00  0.00    -0.039 A 
HETATM   17  C17 UNL     1      28.385   0.439  53.290  1.00  0.00     0.035 A 
ENDBRANCH  10  11
ENDBRANCH   9  10
BRANCH   8  18
HETATM   18  C12 UNL     1      22.862   0.875  52.953  1.00  0.00     0.118 C 
HETATM   19  N1  UNL     1      21.693   0.561  53.293  1.00  0.00    -0.313 NA
HETATM   20  H19 UNL     1      21.435  -0.068  54.088  1.00  0.00     0.185 HD
ENDBRANCH   8  18
BRANCH   1  21
HETATM   21  C3  UNL     1      22.881   4.989  49.787  1.00  0.00    -0.013 C 
HETATM   22  C4  UNL     1      22.514   4.151  48.614  1.00  0.00     0.010 C 
BRANCH  21  23
HETATM   23  C2  UNL     1      22.427   6.440  49.564  1.00  0.00     0.000 C 
HETATM   24  C1  UNL     1      21.794   6.931  50.850  1.00  0.00     0.005 C 
ENDBRANCH  21  23
ENDBRANCH   1  21
TORSDOF 7
ENDMDL
MODEL 9
REMARK VINA RESULT:      -7.1      3.052      7.242
REMARK  7 active torsions:
REMARK  status: ('A' for Active; 'I' for Inactive)
REMARK    1  A    between atoms: C2_2  and  C3_3 
REMARK    2  A    between atoms: C3_3  and  C5_5 
REMARK    3  A    between atoms: C11_12  and  C12_13 
REMARK    4  A    between atoms: N2_15  and  N3_16 
REMARK    5  A    between atoms: N3_16  and  C13_17 
REMARK    6  A    between atoms: C14_18  and  C17_21 
REMARK    7  A    between atoms: C17_21  and  C18_22 
ROOT
HETATM    1  C5  UNL     1      25.721   0.331  53.527  1.00  0.00     0.009 C 
HETATM    2  C6  UNL     1      24.515  -0.575  53.326  1.00  0.00     0.010 C 
HETATM    3  C7  UNL     1      23.319   0.379  53.431  1.00  0.00     0.029 C 
HETATM    4  C8  UNL     1      23.306   1.090  52.098  1.00  0.00     0.001 C 
HETATM    5  C9  UNL     1      24.460   1.774  51.939  1.00  0.00     0.042 C 
HETATM    6  C10 UNL     1      25.477   1.711  53.042  1.00  0.00     0.105 C 
HETATM    7  S1  UNL     1      26.871   2.457  52.130  1.00  0.00    -0.125 SA
HETATM    8  C11 UNL     1      26.171   2.452  50.469  1.00  0.00     0.211 C 
HETATM    9  N2  UNL     1      24.747   2.536  50.782  1.00  0.00    -0.257 N 
ENDROOT
BRANCH   9  10
HETATM   10  N3  UNL     1      23.965   3.255  49.997  1.00  0.00    -0.197 NA
BRANCH  10  11
HETATM   11  C13 UNL     1      23.248   4.315  50.406  1.00  0.00     0.127 A 
HETATM   12  C14 UNL     1      23.022   5.628  49.691  1.00  0.00     0.023 A 
HETATM   13  C15 UNL     1      22.556   6.928  49.524  1.00  0.00     0.035 A 
HETATM   14  C19 UNL     1      23.579   5.679  48.357  1.00  0.00    -0.026 A 
HETATM   15  C18 UNL     1      23.160   5.418  49.580  1.00  0.00     0.023 A 
HETATM   16  C16 UNL     1      21.886   7.077  50.907  1.00  0.00    -0.039 A 
HETATM   17  C17 UNL     1      22.386   5.846  50.921  1.00  0.00     0.035 A 
ENDBRANCH  10  11
ENDBRANCH   9  10
BRANCH   8  18
HETATM   18  C12 UNL     1      26.678   3.589  49.645  1.00  0.00     0.118 C 
HETATM   19  N1  UNL     1      26.796   4.817  49.891  1.00  0.00    -0.313 NA
HETATM   20  H19 UNL     1      27.165   5.539  49.230  1.00  0.00     0.185 HD
ENDBRANCH   8  18
BRANCH   1  21
HETATM   21  C3  UNL     1      27.007  -0.288  53.082  1.00  0.00    -0.013 C 
HETATM   22  C4  UNL     1      26.882  -1.651  52.499  1.00  0.00     0.010 C 
BRANCH  21  23
HETATM   23  C2  UNL     1      28.017  -0.299  54.240  1.00  0.00     0.000 C 
HETATM   24  C1  UNL     1      29.409  -0.314  53.642  1.00  0.00     0.005 C 
ENDBRANCH  21  23
ENDBRANCH   1  21
TORSDOF 7
ENDMDL
