MODEL 1
REMARK VINA RESULT:      -7.2      0.000      0.000
REMARK  9 active torsions:
REMARK  status: ('A' for Active; 'I' for Inactive)
REMARK    1  A    between atoms: O1_2  and  C2_3 
REMARK    2  A    between atoms: C6_9  and  N3_10 
REMARK    3  A    between atoms: N3_10  and  C7_11 
REMARK    4  A    between atoms: C8_12  and  C9_13 
REMARK    5  A    between atoms: C12_17  and  O2_18 
REMARK    6  A    between atoms: O2_18  and  C13_19 
REMARK    7  A    between atoms: C13_19  and  C14_20 
REMARK    8  A    between atoms: C14_20  and  C15_21 
REMARK    9  A    between atoms: C15_21  and  N4_22 
ROOT
HETATM    1  C2  UNL     1      20.591  -0.407  53.155  1.00  0.00     0.103 A 
HETATM    2  C3  UNL     1      21.020  -0.984  54.352  1.00  0.00     0.072 A 
HETATM    3  C4  UNL     1      22.379  -1.001  54.581  1.00  0.00     0.075 A 
HETATM    4  N1  UNL     1      22.878  -1.538  55.707  1.00  0.00    -0.241 NA
HETATM    5  C5  UNL     1      24.202  -1.574  55.965  1.00  0.00     0.236 A 
HETATM    6  N2  UNL     1      25.139  -1.071  55.109  1.00  0.00    -0.224 NA
HETATM    7  C6  UNL     1      24.682  -0.518  53.958  1.00  0.00     0.141 A 
HETATM    8  C10 UNL     1      23.330  -0.497  53.724  1.00  0.00     0.042 A 
HETATM    9  C11 UNL     1      22.835   0.060  52.555  1.00  0.00     0.057 A 
HETATM   10  C12 UNL     1      21.484   0.132  52.222  1.00  0.00     0.103 A 
ENDROOT
BRANCH  10  11
HETATM   11  O2  UNL     1      20.978   0.627  51.171  1.00  0.00    -0.348 OA
BRANCH  11  12
HETATM   12  C13 UNL     1      20.711   1.244  50.052  1.00  0.00     0.177 C 
BRANCH  12  13
HETATM   13  C14 UNL     1      21.835   1.481  49.063  1.00  0.00     0.046 C 
BRANCH  13  14
HETATM   14  C15 UNL     1      22.341   2.879  49.035  1.00  0.00     0.119 C 
BRANCH  14  15
HETATM   15  N4  UNL     1      22.686   3.348  50.348  1.00  0.00    -0.408 N 
HETATM   16  C16 UNL     1      22.148   4.604  50.730  1.00  0.00     0.143 C 
HETATM   17  C17 UNL     1      23.224   5.294  51.578  1.00  0.00     0.187 C 
HETATM   18  O3  UNL     1      23.409   4.447  52.667  1.00  0.00    -0.388 OA
HETATM   19  C18 UNL     1      24.176   3.370  52.236  1.00  0.00     0.187 C 
HETATM   20  C19 UNL     1      24.013   3.059  50.770  1.00  0.00     0.143 C 
ENDBRANCH  14  15
ENDBRANCH  13  14
ENDBRANCH  12  13
ENDBRANCH  11  12
ENDBRANCH  10  11
BRANCH   1  21
HETATM   21  O1  UNL     1      19.223  -0.390  52.928  1.00  0.00    -0.353 OA
HETATM   22  C1  UNL     1      18.411  -1.419  53.457  1.00  0.00     0.210 C 
ENDBRANCH   1  21
BRANCH   7  23
HETATM   23  N3  UNL     1      25.627   0.007  53.065  1.00  0.00    -0.350 N 
HETATM   24  H6  UNL     1      25.476   0.528  52.192  1.00  0.00     0.166 HD
BRANCH  23  25
HETATM   25  C7  UNL     1      27.016  -0.188  53.372  1.00  0.00     0.087 C 
HETATM   26  C8  UNL     1      27.867   0.803  53.597  1.00  0.00     0.005 C 
BRANCH  26  27
HETATM   27  C9  UNL     1      29.297   0.598  53.913  1.00  0.00     0.143 C 
HETATM   28 CL1  UNL     1      29.846  -1.031  53.535  1.00  0.00    -0.126 Cl
ENDBRANCH  26  27
ENDBRANCH  23  25
ENDBRANCH   7  23
TORSDOF 9
ENDMDL
MODEL 2
REMARK VINA RESULT:      -7.0      2.996      5.606
REMARK  9 active torsions:
REMARK  status: ('A' for Active; 'I' for Inactive)
REMARK    1  A    between atoms: O1_2  and  C2_3 
REMARK    2  A    between atoms: C6_9  and  N3_10 
REMARK    3  A    between atoms: N3_10  and  C7_11 
REMARK    4  A    between atoms: C8_12  and  C9_13 
REMARK    5  A    between atoms: C12_17  and  O2_18 
REMARK    6  A    between atoms: O2_18  and  C13_19 
REMARK    7  A    between atoms: C13_19  and  C14_20 
REMARK    8  A    between atoms: C14_20  and  C15_21 
REMARK    9  A    between atoms: C15_21  and  N4_22 
ROOT
HETATM    1  C2  UNL     1      26.828   0.725  53.184  1.00  0.00     0.103 A 
HETATM    2  C3  UNL     1      26.538  -0.085  54.283  1.00  0.00     0.072 A 
HETATM    3  C4  UNL     1      25.217  -0.435  54.464  1.00  0.00     0.075 A 
HETATM    4  N1  UNL     1      24.850  -1.212  55.498  1.00  0.00    -0.241 NA
HETATM    5  C5  UNL     1      23.567  -1.575  55.707  1.00  0.00     0.236 A 
HETATM    6  N2  UNL     1      22.543  -1.186  54.893  1.00  0.00    -0.224 NA
HETATM    7  C6  UNL     1      22.866  -0.402  53.836  1.00  0.00     0.141 A 
HETATM    8  C10 UNL     1      24.178  -0.049  53.648  1.00  0.00     0.042 A 
HETATM    9  C11 UNL     1      24.538   0.754  52.577  1.00  0.00     0.057 A 
HETATM   10  C12 UNL     1      25.839   1.168  52.298  1.00  0.00     0.103 A 
ENDROOT
BRANCH  10  11
HETATM   11  O2  UNL     1      26.221   1.900  51.337  1.00  0.00    -0.348 OA
BRANCH  11  12
HETATM   12  C13 UNL     1      26.479   2.855  50.484  1.00  0.00     0.177 C 
BRANCH  12  13
HETATM   13  C14 UNL     1      25.384   3.846  50.145  1.00  0.00     0.046 C 
BRANCH  13  14
HETATM   14  C15 UNL     1      24.189   3.241  49.500  1.00  0.00     0.119 C 
BRANCH  14  15
HETATM   15  N4  UNL     1      23.105   3.080  50.429  1.00  0.00    -0.408 N 
HETATM   16  C16 UNL     1      22.100   2.146  50.069  1.00  0.00     0.143 C 
HETATM   17  C17 UNL     1      20.771   2.730  50.566  1.00  0.00     0.187 C 
HETATM   18  O3  UNL     1      20.927   2.830  51.946  1.00  0.00    -0.388 OA
HETATM   19  C18 UNL     1      21.723   3.941  52.200  1.00  0.00     0.187 C 
HETATM   20  C19 UNL     1      22.677   4.270  51.079  1.00  0.00     0.143 C 
ENDBRANCH  14  15
ENDBRANCH  13  14
ENDBRANCH  12  13
ENDBRANCH  11  12
ENDBRANCH  10  11
BRANCH   1  21
HETATM   21  O1  UNL     1      28.158   1.076  53.003  1.00  0.00    -0.353 OA
HETATM   22  C1  UNL     1      29.067   0.956  54.078  1.00  0.00     0.210 C 
ENDBRANCH   1  21
BRANCH   7  23
HETATM   23  N3  UNL     1      21.830   0.007  52.984  1.00  0.00    -0.350 N 
HETATM   24  H6  UNL     1      21.880   0.557  52.117  1.00  0.00     0.166 HD
BRANCH  23  25
HETATM   25  C7  UNL     1      20.489  -0.371  53.334  1.00  0.00     0.087 C 
HETATM   26  C8  UNL     1      19.466  -0.323  52.493  1.00  0.00     0.005 C 
BRANCH  26  27
HETATM   27  C9  UNL     1      18.088  -0.714  52.857  1.00  0.00     0.143 C 
HETATM   28 CL1  UNL     1      18.005  -2.324  53.561  1.00  0.00    -0.126 Cl
ENDBRANCH  26  27
ENDBRANCH  23  25
ENDBRANCH   7  23
TORSDOF 9
ENDMDL
MODEL 3
REMARK VINA RESULT:      -6.7      3.402      6.566
REMARK  9 active torsions:
REMARK  status: ('A' for Active; 'I' for Inactive)
REMARK    1  A    between atoms: O1_2  and  C2_3 
REMARK    2  A    between atoms: C6_9  and  N3_10 
REMARK    3  A    between atoms: N3_10  and  C7_11 
REMARK    4  A    between atoms: C8_12  and  C9_13 
REMARK    5  A    between atoms: C12_17  and  O2_18 
REMARK    6  A    between atoms: O2_18  and  C13_19 
REMARK    7  A    between atoms: C13_19  and  C14_20 
REMARK    8  A    between atoms: C14_20  and  C15_21 
REMARK    9  A    between atoms: C15_21  and  N4_22 
ROOT
HETATM    1  C2  UNL     1      25.805   0.389  53.224  1.00  0.00     0.103 A 
HETATM    2  C3  UNL     1      26.701   1.187  52.511  1.00  0.00     0.072 A 
HETATM    3  C4  UNL     1      26.164   2.027  51.561  1.00  0.00     0.075 A 
HETATM    4  N1  UNL     1      26.955   2.829  50.828  1.00  0.00    -0.241 NA
HETATM    5  C5  UNL     1      26.465   3.665  49.889  1.00  0.00     0.236 A 
HETATM    6  N2  UNL     1      25.133   3.764  49.606  1.00  0.00    -0.224 NA
HETATM    7  C6  UNL     1      24.295   2.974  50.321  1.00  0.00     0.141 A 
HETATM    8  C10 UNL     1      24.823   2.135  51.269  1.00  0.00     0.042 A 
HETATM    9  C11 UNL     1      23.990   1.314  52.014  1.00  0.00     0.057 A 
HETATM   10  C12 UNL     1      24.424   0.428  52.998  1.00  0.00     0.103 A 
ENDROOT
BRANCH  10  11
HETATM   11  O2  UNL     1      23.709  -0.344  53.705  1.00  0.00    -0.348 OA
BRANCH  11  12
HETATM   12  C13 UNL     1      22.771  -0.957  54.374  1.00  0.00     0.177 C 
BRANCH  12  13
HETATM   13  C14 UNL     1      21.465  -0.231  54.631  1.00  0.00     0.046 C 
BRANCH  13  14
HETATM   14  C15 UNL     1      20.386  -0.551  53.660  1.00  0.00     0.119 C 
BRANCH  14  15
HETATM   15  N4  UNL     1      20.336   0.401  52.585  1.00  0.00    -0.408 N 
HETATM   16  C16 UNL     1      20.511   1.763  52.942  1.00  0.00     0.143 C 
HETATM   17  C17 UNL     1      19.591   2.573  52.018  1.00  0.00     0.187 C 
HETATM   18  O3  UNL     1      20.056   2.300  50.734  1.00  0.00    -0.388 OA
HETATM   19  C18 UNL     1      19.602   1.034  50.383  1.00  0.00     0.187 C 
HETATM   20  C19 UNL     1      19.389   0.118  51.563  1.00  0.00     0.143 C 
ENDBRANCH  14  15
ENDBRANCH  13  14
ENDBRANCH  12  13
ENDBRANCH  11  12
ENDBRANCH  10  11
BRANCH   1  21
HETATM   21  O1  UNL     1      26.348  -0.456  54.181  1.00  0.00    -0.353 OA
HETATM   22  C1  UNL     1      27.461  -0.031  54.942  1.00  0.00     0.210 C 
ENDBRANCH   1  21
BRANCH   7  23
HETATM   23  N3  UNL     1      22.923   3.061  50.048  1.00  0.00    -0.350 N 
HETATM   24  H6  UNL     1      22.138   2.579  50.505  1.00  0.00     0.166 HD
BRANCH  23  25
HETATM   25  C7  UNL     1      22.506   3.936  48.988  1.00  0.00     0.087 C 
HETATM   26  C8  UNL     1      22.021   3.512  47.830  1.00  0.00     0.005 C 
BRANCH  26  27
HETATM   27  C9  UNL     1      21.594   4.417  46.742  1.00  0.00     0.143 C 
HETATM   28 CL1  UNL     1      21.850   3.723  45.145  1.00  0.00    -0.126 Cl
ENDBRANCH  26  27
ENDBRANCH  23  25
ENDBRANCH   7  23
TORSDOF 9
ENDMDL
MODEL 4
REMARK VINA RESULT:      -6.7      4.108      7.336
REMARK  9 active torsions:
REMARK  status: ('A' for Active; 'I' for Inactive)
REMARK    1  A    between atoms: O1_2  and  C2_3 
REMARK    2  A    between atoms: C6_9  and  N3_10 
REMARK    3  A    between atoms: N3_10  and  C7_11 
REMARK    4  A    between atoms: C8_12  and  C9_13 
REMARK    5  A    between atoms: C12_17  and  O2_18 
REMARK    6  A    between atoms: O2_18  and  C13_19 
REMARK    7  A    between atoms: C13_19  and  C14_20 
REMARK    8  A    between atoms: C14_20  and  C15_21 
REMARK    9  A    between atoms: C15_21  and  N4_22 
ROOT
HETATM    1  C2  UNL     1      21.543   0.948  51.524  1.00  0.00     0.103 A 
HETATM    2  C3  UNL     1      20.434   1.172  50.706  1.00  0.00     0.072 A 
HETATM    3  C4  UNL     1      19.243   0.606  51.107  1.00  0.00     0.075 A 
HETATM    4  N1  UNL     1      18.125   0.771  50.378  1.00  0.00    -0.241 NA
HETATM    5  C5  UNL     1      16.942   0.231  50.739  1.00  0.00     0.236 A 
HETATM    6  N2  UNL     1      16.782  -0.522  51.866  1.00  0.00    -0.224 NA
HETATM    7  C6  UNL     1      17.883  -0.715  52.634  1.00  0.00     0.141 A 
HETATM    8  C10 UNL     1      19.072  -0.154  52.242  1.00  0.00     0.042 A 
HETATM    9  C11 UNL     1      20.214  -0.337  53.006  1.00  0.00     0.057 A 
HETATM   10  C12 UNL     1      21.467   0.188  52.697  1.00  0.00     0.103 A 
ENDROOT
BRANCH  10  11
HETATM   11  O2  UNL     1      22.540   0.052  53.357  1.00  0.00    -0.348 OA
BRANCH  11  12
HETATM   12  C13 UNL     1      23.587  -0.360  54.019  1.00  0.00     0.177 C 
BRANCH  12  13
HETATM   13  C14 UNL     1      24.797  -0.845  53.245  1.00  0.00     0.046 C 
BRANCH  13  14
HETATM   14  C15 UNL     1      25.609   0.241  52.636  1.00  0.00     0.119 C 
BRANCH  14  15
HETATM   15  N4  UNL     1      26.707   0.624  53.480  1.00  0.00    -0.408 N 
HETATM   16  C16 UNL     1      27.041   2.003  53.491  1.00  0.00     0.143 C 
HETATM   17  C17 UNL     1      28.569   2.075  53.615  1.00  0.00     0.187 C 
HETATM   18  O3  UNL     1      28.852   1.454  54.829  1.00  0.00    -0.388 OA
HETATM   19  C18 UNL     1      28.747   0.082  54.633  1.00  0.00     0.187 C 
HETATM   20  C19 UNL     1      27.784  -0.302  53.537  1.00  0.00     0.143 C 
ENDBRANCH  14  15
ENDBRANCH  13  14
ENDBRANCH  12  13
ENDBRANCH  11  12
ENDBRANCH  10  11
BRANCH   1  21
HETATM   21  O1  UNL     1      22.740   1.519  51.118  1.00  0.00    -0.353 OA
HETATM   22  C1  UNL     1      22.999   2.880  51.400  1.00  0.00     0.210 C 
ENDBRANCH   1  21
BRANCH   7  23
HETATM   23  N3  UNL     1      17.741  -1.484  53.798  1.00  0.00    -0.350 N 
HETATM   24  H6  UNL     1      17.602  -1.174  54.768  1.00  0.00     0.166 HD
BRANCH  23  25
HETATM   25  C7  UNL     1      17.793  -2.913  53.665  1.00  0.00     0.087 C 
HETATM   26  C8  UNL     1      16.721  -3.693  53.665  1.00  0.00     0.005 C 
BRANCH  26  27
HETATM   27  C9  UNL     1      16.779  -5.164  53.528  1.00  0.00     0.143 C 
HETATM   28 CL1  UNL     1      15.595  -5.985  54.538  1.00  0.00    -0.126 Cl
ENDBRANCH  26  27
ENDBRANCH  23  25
ENDBRANCH   7  23
TORSDOF 9
ENDMDL
MODEL 5
REMARK VINA RESULT:      -6.6      3.341      5.662
REMARK  9 active torsions:
REMARK  status: ('A' for Active; 'I' for Inactive)
REMARK    1  A    between atoms: O1_2  and  C2_3 
REMARK    2  A    between atoms: C6_9  and  N3_10 
REMARK    3  A    between atoms: N3_10  and  C7_11 
REMARK    4  A    between atoms: C8_12  and  C9_13 
REMARK    5  A    between atoms: C12_17  and  O2_18 
REMARK    6  A    between atoms: O2_18  and  C13_19 
REMARK    7  A    between atoms: C13_19  and  C14_20 
REMARK    8  A    between atoms: C14_20  and  C15_21 
REMARK    9  A    between atoms: C15_21  and  N4_22 
ROOT
HETATM    1  C2  UNL     1      25.775   0.132  53.150  1.00  0.00     0.103 A 
HETATM    2  C3  UNL     1      25.061  -0.669  54.043  1.00  0.00     0.072 A 
HETATM    3  C4  UNL     1      23.688  -0.547  54.024  1.00  0.00     0.075 A 
HETATM    4  N1  UNL     1      22.923  -1.281  54.852  1.00  0.00    -0.241 NA
HETATM    5  C5  UNL     1      21.577  -1.188  54.861  1.00  0.00     0.236 A 
HETATM    6  N2  UNL     1      20.884  -0.349  54.037  1.00  0.00    -0.224 NA
HETATM    7  C6  UNL     1      21.614   0.410  53.184  1.00  0.00     0.141 A 
HETATM    8  C10 UNL     1      22.981   0.296  53.197  1.00  0.00     0.042 A 
HETATM    9  C11 UNL     1      23.753   1.061  52.337  1.00  0.00     0.057 A 
HETATM   10  C12 UNL     1      25.144   1.020  52.271  1.00  0.00     0.103 A 
ENDROOT
BRANCH  10  11
HETATM   11  O2  UNL     1      25.896   1.696  51.507  1.00  0.00    -0.348 OA
BRANCH  11  12
HETATM   12  C13 UNL     1      26.557   2.611  50.850  1.00  0.00     0.177 C 
BRANCH  12  13
HETATM   13  C14 UNL     1      25.808   3.825  50.339  1.00  0.00     0.046 C 
BRANCH  13  14
HETATM   14  C15 UNL     1      24.580   3.506  49.565  1.00  0.00     0.119 C 
BRANCH  14  15
HETATM   15  N4  UNL     1      23.391   3.690  50.350  1.00  0.00    -0.408 N 
HETATM   16  C16 UNL     1      22.156   3.509  49.675  1.00  0.00     0.143 C 
HETATM   17  C17 UNL     1      21.185   4.539  50.270  1.00  0.00     0.187 C 
HETATM   18  O3  UNL     1      21.103   4.205  51.619  1.00  0.00    -0.388 OA
HETATM   19  C18 UNL     1      22.260   4.663  52.237  1.00  0.00     0.187 C 
HETATM   20  C19 UNL     1      23.452   4.732  51.316  1.00  0.00     0.143 C 
ENDBRANCH  14  15
ENDBRANCH  13  14
ENDBRANCH  12  13
ENDBRANCH  11  12
ENDBRANCH  10  11
BRANCH   1  21
HETATM   21  O1  UNL     1      27.156   0.008  53.171  1.00  0.00    -0.353 OA
HETATM   22  C1  UNL     1      27.885   0.465  54.293  1.00  0.00     0.210 C 
ENDBRANCH   1  21
BRANCH   7  23
HETATM   23  N3  UNL     1      20.923   1.278  52.327  1.00  0.00    -0.350 N 
HETATM   24  H6  UNL     1      20.947   2.305  52.285  1.00  0.00     0.166 HD
BRANCH  23  25
HETATM   25  C7  UNL     1      20.042   0.696  51.354  1.00  0.00     0.087 C 
HETATM   26  C8  UNL     1      18.811   1.127  51.121  1.00  0.00     0.005 C 
BRANCH  26  27
HETATM   27  C9  UNL     1      17.908   0.524  50.118  1.00  0.00     0.143 C 
HETATM   28 CL1  UNL     1      16.699  -0.531  50.842  1.00  0.00    -0.126 Cl
ENDBRANCH  26  27
ENDBRANCH  23  25
ENDBRANCH   7  23
TORSDOF 9
ENDMDL
MODEL 6
REMARK VINA RESULT:      -6.6      2.739      4.328
REMARK  9 active torsions:
REMARK  status: ('A' for Active; 'I' for Inactive)
REMARK    1  A    between atoms: O1_2  and  C2_3 
REMARK    2  A    between atoms: C6_9  and  N3_10 
REMARK    3  A    between atoms: N3_10  and  C7_11 
REMARK    4  A    between atoms: C8_12  and  C9_13 
REMARK    5  A    between atoms: C12_17  and  O2_18 
REMARK    6  A    between atoms: O2_18  and  C13_19 
REMARK    7  A    between atoms: C13_19  and  C14_20 
REMARK    8  A    between atoms: C14_20  and  C15_21 
REMARK    9  A    between atoms: C15_21  and  N4_22 
ROOT
HETATM    1  C2  UNL     1      23.135  -0.248  53.071  1.00  0.00     0.103 A 
HETATM    2  C3  UNL     1      24.474  -0.315  53.460  1.00  0.00     0.072 A 
HETATM    3  C4  UNL     1      25.340   0.572  52.858  1.00  0.00     0.075 A 
HETATM    4  N1  UNL     1      26.647   0.576  53.173  1.00  0.00    -0.241 NA
HETATM    5  C5  UNL     1      27.524   1.429  52.604  1.00  0.00     0.236 A 
HETATM    6  N2  UNL     1      27.160   2.353  51.668  1.00  0.00    -0.224 NA
HETATM    7  C6  UNL     1      25.851   2.386  51.318  1.00  0.00     0.141 A 
HETATM    8  C10 UNL     1      24.983   1.507  51.913  1.00  0.00     0.042 A 
HETATM    9  C11 UNL     1      23.639   1.518  51.574  1.00  0.00     0.057 A 
HETATM   10  C12 UNL     1      22.677   0.669  52.118  1.00  0.00     0.103 A 
ENDROOT
BRANCH  10  11
HETATM   11  O2  UNL     1      21.440   0.634  51.843  1.00  0.00    -0.348 OA
BRANCH  11  12
HETATM   12  C13 UNL     1      20.172   0.359  51.700  1.00  0.00     0.177 C 
BRANCH  12  13
HETATM   13  C14 UNL     1      19.460   0.829  50.447  1.00  0.00     0.046 C 
BRANCH  13  14
HETATM   14  C15 UNL     1      19.571   2.289  50.192  1.00  0.00     0.119 C 
BRANCH  14  15
HETATM   15  N4  UNL     1      20.822   2.629  49.573  1.00  0.00    -0.408 N 
HETATM   16  C16 UNL     1      21.239   3.979  49.696  1.00  0.00     0.143 C 
HETATM   17  C17 UNL     1      21.936   4.337  48.376  1.00  0.00     0.187 C 
HETATM   18  O3  UNL     1      23.013   3.458  48.298  1.00  0.00    -0.388 OA
HETATM   19  C18 UNL     1      22.516   2.218  47.915  1.00  0.00     0.187 C 
HETATM   20  C19 UNL     1      21.087   1.982  48.335  1.00  0.00     0.143 C 
ENDBRANCH  14  15
ENDBRANCH  13  14
ENDBRANCH  12  13
ENDBRANCH  11  12
ENDBRANCH  10  11
BRANCH   1  21
HETATM   21  O1  UNL     1      22.265  -1.142  53.679  1.00  0.00    -0.353 OA
HETATM   22  C1  UNL     1      22.113  -1.127  55.084  1.00  0.00     0.210 C 
ENDBRANCH   1  21
BRANCH   7  23
HETATM   23  N3  UNL     1      25.455   3.329  50.359  1.00  0.00    -0.350 N 
HETATM   24  H6  UNL     1      24.530   3.473  49.933  1.00  0.00     0.166 HD
BRANCH  23  25
HETATM   25  C7  UNL     1      26.448   4.245  49.871  1.00  0.00     0.087 C 
HETATM   26  C8  UNL     1      26.199   5.203  48.990  1.00  0.00     0.005 C 
BRANCH  26  27
HETATM   27  C9  UNL     1      27.225   6.143  48.492  1.00  0.00     0.143 C 
HETATM   28 CL1  UNL     1      28.787   5.371  48.245  1.00  0.00    -0.126 Cl
ENDBRANCH  26  27
ENDBRANCH  23  25
ENDBRANCH   7  23
TORSDOF 9
ENDMDL
MODEL 7
REMARK VINA RESULT:      -6.5      4.313      6.963
REMARK  9 active torsions:
REMARK  status: ('A' for Active; 'I' for Inactive)
REMARK    1  A    between atoms: O1_2  and  C2_3 
REMARK    2  A    between atoms: C6_9  and  N3_10 
REMARK    3  A    between atoms: N3_10  and  C7_11 
REMARK    4  A    between atoms: C8_12  and  C9_13 
REMARK    5  A    between atoms: C12_17  and  O2_18 
REMARK    6  A    between atoms: O2_18  and  C13_19 
REMARK    7  A    between atoms: C13_19  and  C14_20 
REMARK    8  A    between atoms: C14_20  and  C15_21 
REMARK    9  A    between atoms: C15_21  and  N4_22 
ROOT
HETATM    1  C2  UNL     1      22.091  -0.388  53.721  1.00  0.00     0.103 A 
HETATM    2  C3  UNL     1      21.006  -1.191  54.078  1.00  0.00     0.072 A 
HETATM    3  C4  UNL     1      19.812  -0.942  53.436  1.00  0.00     0.075 A 
HETATM    4  N1  UNL     1      18.717  -1.668  53.720  1.00  0.00    -0.241 NA
HETATM    5  C5  UNL     1      17.531  -1.453  53.113  1.00  0.00     0.236 A 
HETATM    6  N2  UNL     1      17.346  -0.487  52.166  1.00  0.00    -0.224 NA
HETATM    7  C6  UNL     1      18.424   0.270  51.847  1.00  0.00     0.141 A 
HETATM    8  C10 UNL     1      19.616   0.029  52.481  1.00  0.00     0.042 A 
HETATM    9  C11 UNL     1      20.734   0.789  52.175  1.00  0.00     0.057 A 
HETATM   10  C12 UNL     1      21.988   0.625  52.760  1.00  0.00     0.103 A 
ENDROOT
BRANCH  10  11
HETATM   11  O2  UNL     1      23.040   1.290  52.520  1.00  0.00    -0.348 OA
BRANCH  11  12
HETATM   12  C13 UNL     1      23.981   2.185  52.389  1.00  0.00     0.177 C 
BRANCH  12  13
HETATM   13  C14 UNL     1      25.340   1.746  51.880  1.00  0.00     0.046 C 
BRANCH  13  14
HETATM   14  C15 UNL     1      25.850   0.494  52.499  1.00  0.00     0.119 C 
BRANCH  14  15
HETATM   15  N4  UNL     1      26.917   0.754  53.426  1.00  0.00    -0.408 N 
HETATM   16  C16 UNL     1      27.350   2.102  53.526  1.00  0.00     0.143 C 
HETATM   17  C17 UNL     1      28.868   2.052  53.746  1.00  0.00     0.187 C 
HETATM   18  O3  UNL     1      29.026   1.357  54.942  1.00  0.00    -0.388 OA
HETATM   19  C18 UNL     1      28.834   0.007  54.672  1.00  0.00     0.187 C 
HETATM   20  C19 UNL     1      27.918  -0.253  53.502  1.00  0.00     0.143 C 
ENDBRANCH  14  15
ENDBRANCH  13  14
ENDBRANCH  12  13
ENDBRANCH  11  12
ENDBRANCH  10  11
BRANCH   1  21
HETATM   21  O1  UNL     1      23.292  -0.641  54.368  1.00  0.00    -0.353 OA
HETATM   22  C1  UNL     1      23.301  -1.406  55.556  1.00  0.00     0.210 C 
ENDBRANCH   1  21
BRANCH   7  23
HETATM   23  N3  UNL     1      18.257   1.267  50.875  1.00  0.00    -0.350 N 
HETATM   24  H6  UNL     1      18.385   1.209  49.857  1.00  0.00     0.166 HD
BRANCH  23  25
HETATM   25  C7  UNL     1      17.851   2.572  51.318  1.00  0.00     0.087 C 
HETATM   26  C8  UNL     1      16.592   2.912  51.554  1.00  0.00     0.005 C 
BRANCH  26  27
HETATM   27  C9  UNL     1      16.179   4.256  52.010  1.00  0.00     0.143 C 
HETATM   28 CL1  UNL     1      15.065   4.196  53.371  1.00  0.00    -0.126 Cl
ENDBRANCH  26  27
ENDBRANCH  23  25
ENDBRANCH   7  23
TORSDOF 9
ENDMDL
MODEL 8
REMARK VINA RESULT:      -6.5      1.623      1.967
REMARK  9 active torsions:
REMARK  status: ('A' for Active; 'I' for Inactive)
REMARK    1  A    between atoms: O1_2  and  C2_3 
REMARK    2  A    between atoms: C6_9  and  N3_10 
REMARK    3  A    between atoms: N3_10  and  C7_11 
REMARK    4  A    between atoms: C8_12  and  C9_13 
REMARK    5  A    between atoms: C12_17  and  O2_18 
REMARK    6  A    between atoms: O2_18  and  C13_19 
REMARK    7  A    between atoms: C13_19  and  C14_20 
REMARK    8  A    between atoms: C14_20  and  C15_21 
REMARK    9  A    between atoms: C15_21  and  N4_22 
ROOT
HETATM    1  C2  UNL     1      20.525   0.823  52.252  1.00  0.00     0.103 A 
HETATM    2  C3  UNL     1      20.527   0.023  53.396  1.00  0.00     0.072 A 
HETATM    3  C4  UNL     1      21.758  -0.342  53.896  1.00  0.00     0.075 A 
HETATM    4  N1  UNL     1      21.851  -1.112  54.994  1.00  0.00    -0.241 NA
HETATM    5  C5  UNL     1      23.039  -1.490  55.511  1.00  0.00     0.236 A 
HETATM    6  N2  UNL     1      24.236  -1.126  54.966  1.00  0.00    -0.224 NA
HETATM    7  C6  UNL     1      24.191  -0.348  53.857  1.00  0.00     0.141 A 
HETATM    8  C10 UNL     1      22.970   0.020  53.353  1.00  0.00     0.042 A 
HETATM    9  C11 UNL     1      22.894   0.813  52.219  1.00  0.00     0.057 A 
HETATM   10  C12 UNL     1      21.707   1.242  51.629  1.00  0.00     0.103 A 
ENDROOT
BRANCH  10  11
HETATM   11  O2  UNL     1      21.580   1.964  50.595  1.00  0.00    -0.348 OA
BRANCH  11  12
HETATM   12  C13 UNL     1      21.716   2.639  49.486  1.00  0.00     0.177 C 
BRANCH  12  13
HETATM   13  C14 UNL     1      23.111   2.878  48.944  1.00  0.00     0.046 C 
BRANCH  13  14
HETATM   14  C15 UNL     1      24.070   3.424  49.940  1.00  0.00     0.119 C 
BRANCH  14  15
HETATM   15  N4  UNL     1      24.103   4.860  49.917  1.00  0.00    -0.408 N 
HETATM   16  C16 UNL     1      25.247   5.455  49.323  1.00  0.00     0.143 C 
HETATM   17  C17 UNL     1      25.546   6.721  50.137  1.00  0.00     0.187 C 
HETATM   18  O3  UNL     1      24.407   7.508  49.991  1.00  0.00    -0.388 OA
HETATM   19  C18 UNL     1      23.424   6.983  50.821  1.00  0.00     0.187 C 
HETATM   20  C19 UNL     1      23.565   5.502  51.066  1.00  0.00     0.143 C 
ENDBRANCH  14  15
ENDBRANCH  13  14
ENDBRANCH  12  13
ENDBRANCH  11  12
ENDBRANCH  10  11
BRANCH   1  21
HETATM   21  O1  UNL     1      19.285   1.190  51.751  1.00  0.00    -0.353 OA
HETATM   22  C1  UNL     1      18.320   0.196  51.468  1.00  0.00     0.210 C 
ENDBRANCH   1  21
BRANCH   7  23
HETATM   23  N3  UNL     1      25.410   0.040  53.281  1.00  0.00    -0.350 N 
HETATM   24  H6  UNL     1      25.589   0.457  52.359  1.00  0.00     0.166 HD
BRANCH  23  25
HETATM   25  C7  UNL     1      26.606  -0.155  54.053  1.00  0.00     0.087 C 
HETATM   26  C8  UNL     1      27.800   0.286  53.686  1.00  0.00     0.005 C 
BRANCH  26  27
HETATM   27  C9  UNL     1      29.028   0.082  54.484  1.00  0.00     0.143 C 
HETATM   28 CL1  UNL     1      30.141  -1.057  53.735  1.00  0.00    -0.126 Cl
ENDBRANCH  26  27
ENDBRANCH  23  25
ENDBRANCH   7  23
TORSDOF 9
ENDMDL
MODEL 9
REMARK VINA RESULT:      -6.5      6.684      9.740
REMARK  9 active torsions:
REMARK  status: ('A' for Active; 'I' for Inactive)
REMARK    1  A    between atoms: O1_2  and  C2_3 
REMARK    2  A    between atoms: C6_9  and  N3_10 
REMARK    3  A    between atoms: N3_10  and  C7_11 
REMARK    4  A    between atoms: C8_12  and  C9_13 
REMARK    5  A    between atoms: C12_17  and  O2_18 
REMARK    6  A    between atoms: O2_18  and  C13_19 
REMARK    7  A    between atoms: C13_19  and  C14_20 
REMARK    8  A    between atoms: C14_20  and  C15_21 
REMARK    9  A    between atoms: C15_21  and  N4_22 
ROOT
HETATM    1  C2  UNL     1      27.052   6.304  48.553  1.00  0.00     0.103 A 
HETATM    2  C3  UNL     1      27.727   7.434  48.089  1.00  0.00     0.072 A 
HETATM    3  C4  UNL     1      29.049   7.267  47.740  1.00  0.00     0.075 A 
HETATM    4  N1  UNL     1      29.774   8.304  47.284  1.00  0.00    -0.241 NA
HETATM    5  C5  UNL     1      31.071   8.178  46.933  1.00  0.00     0.236 A 
HETATM    6  N2  UNL     1      31.751   6.997  47.012  1.00  0.00    -0.224 NA
HETATM    7  C6  UNL     1      31.060   5.923  47.466  1.00  0.00     0.141 A 
HETATM    8  C10 UNL     1      29.743   6.081  47.816  1.00  0.00     0.042 A 
HETATM    9  C11 UNL     1      29.012   5.000  48.285  1.00  0.00     0.057 A 
HETATM   10  C12 UNL     1      27.673   5.054  48.665  1.00  0.00     0.103 A 
ENDROOT
BRANCH  10  11
HETATM   11  O2  UNL     1      26.960   4.101  49.101  1.00  0.00    -0.348 OA
BRANCH  11  12
HETATM   12  C13 UNL     1      26.219   3.271  49.784  1.00  0.00     0.177 C 
BRANCH  12  13
HETATM   13  C14 UNL     1      26.735   2.756  51.113  1.00  0.00     0.046 C 
BRANCH  13  14
HETATM   14  C15 UNL     1      25.927   1.654  51.698  1.00  0.00     0.119 C 
BRANCH  14  15
HETATM   15  N4  UNL     1      26.666   0.916  52.684  1.00  0.00    -0.408 N 
HETATM   16  C16 UNL     1      25.901   0.143  53.596  1.00  0.00     0.143 C 
HETATM   17  C17 UNL     1      26.630   0.222  54.944  1.00  0.00     0.187 C 
HETATM   18  O3  UNL     1      27.881  -0.337  54.700  1.00  0.00    -0.388 OA
HETATM   19  C18 UNL     1      28.640   0.611  54.024  1.00  0.00     0.187 C 
HETATM   20  C19 UNL     1      27.818   1.570  53.200  1.00  0.00     0.143 C 
ENDBRANCH  14  15
ENDBRANCH  13  14
ENDBRANCH  12  13
ENDBRANCH  11  12
ENDBRANCH  10  11
BRANCH   1  21
HETATM   21  O1  UNL     1      25.720   6.474  48.904  1.00  0.00    -0.353 OA
HETATM   22  C1  UNL     1      25.391   7.134  50.110  1.00  0.00     0.210 C 
ENDBRANCH   1  21
BRANCH   7  23
HETATM   23  N3  UNL     1      31.738   4.699  47.553  1.00  0.00    -0.350 N 
HETATM   24  H6  UNL     1      31.629   3.943  48.242  1.00  0.00     0.166 HD
BRANCH  23  25
HETATM   25  C7  UNL     1      32.738   4.417  46.562  1.00  0.00     0.087 C 
HETATM   26  C8  UNL     1      33.966   4.008  46.848  1.00  0.00     0.005 C 
BRANCH  26  27
HETATM   27  C9  UNL     1      34.992   3.719  45.824  1.00  0.00     0.143 C 
HETATM   28 CL1  UNL     1      34.697   4.569  44.312  1.00  0.00    -0.126 Cl
ENDBRANCH  26  27
ENDBRANCH  23  25
ENDBRANCH   7  23
TORSDOF 9
ENDMDL
