MODEL 1
REMARK VINA RESULT:      -7.3      0.000      0.000
REMARK  7 active torsions:
REMARK  status: ('A' for Active; 'I' for Inactive)
REMARK    1  A    between atoms: C2_2  and  S1_3 
REMARK    2  A    between atoms: C2_2  and  S2_7 
REMARK    3  A    between atoms: S1_3  and  C3_4 
REMARK    4  A    between atoms: S2_7  and  N1_9 
REMARK    5  A    between atoms: N1_9  and  C5_10 
REMARK    6  A    between atoms: C7_12  and  C8_13 
REMARK    7  A    between atoms: C12_18  and  N2_19 
ROOT
HETATM    1  C5  UNL     1      24.732   0.390  52.767  1.00  0.00     0.068 A 
HETATM    2  C6  UNL     1      23.379   0.268  53.009  1.00  0.00     0.047 A 
HETATM    3  C7  UNL     1      22.986  -0.447  54.122  1.00  0.00     0.012 A 
HETATM    4  C10 UNL     1      23.909  -1.023  54.969  1.00  0.00     0.017 A 
HETATM    5  C11 UNL     1      25.270  -0.889  54.706  1.00  0.00     0.033 A 
HETATM    6  C12 UNL     1      25.680  -0.178  53.596  1.00  0.00     0.058 A 
ENDROOT
BRANCH   1   7
HETATM    7  N1  UNL     1      25.174   1.120  51.628  1.00  0.00    -0.299 N 
HETATM    8  H5  UNL     1      25.347   0.579  50.732  1.00  0.00     0.177 HD
BRANCH   7   9
HETATM    9  S2  UNL     1      25.525   2.796  51.320  1.00  0.00     0.157 S 
HETATM   10  O1  UNL     1      26.953   3.034  50.871  1.00  0.00    -0.229 OA
BRANCH   9  11
HETATM   11  C2  UNL     1      24.362   3.411  50.128  1.00  0.00     0.083 C 
HETATM   12  C1  UNL     1      23.313   2.657  49.899  1.00  0.00     0.043 C 
BRANCH  11  13
HETATM   13  S1  UNL     1      24.534   4.946  49.253  1.00  0.00    -0.091 SA
BRANCH  13  14
HETATM   14  C3  UNL     1      24.606   6.352  50.361  1.00  0.00     0.058 C 
HETATM   15  C4  UNL     1      25.800   6.820  49.990  1.00  0.00     0.063 C 
HETATM   16 BR1  UNL     1      26.904   6.037  48.652  1.00  0.00    -0.063 Br
ENDBRANCH  13  14
ENDBRANCH  11  13
ENDBRANCH   9  11
ENDBRANCH   7   9
ENDBRANCH   1   7
BRANCH   6  17
HETATM   17  N2  UNL     1      27.067  -0.088  53.402  1.00  0.00    -0.375 N 
HETATM   18  C13 UNL     1      27.938  -1.036  52.762  1.00  0.00     0.149 C 
HETATM   19  C14 UNL     1      29.235  -1.219  53.507  1.00  0.00     0.187 C 
HETATM   20  O3  UNL     1      29.753  -0.015  53.977  1.00  0.00    -0.388 OA
HETATM   21  C15 UNL     1      28.841   0.639  54.815  1.00  0.00     0.187 C 
HETATM   22  C16 UNL     1      27.724   1.111  53.905  1.00  0.00     0.149 C 
ENDBRANCH   6  17
BRANCH   3  23
HETATM   23  C8  UNL     1      21.590  -0.648  54.489  1.00  0.00     0.155 C 
HETATM   24  C9  UNL     1      20.498   0.346  54.328  1.00  0.00     0.096 C 
HETATM   25  O2  UNL     1      21.124  -1.717  55.002  1.00  0.00    -0.293 OA
ENDBRANCH   3  23
TORSDOF 7
ENDMDL
MODEL 2
REMARK VINA RESULT:      -7.3      2.076      5.197
REMARK  7 active torsions:
REMARK  status: ('A' for Active; 'I' for Inactive)
REMARK    1  A    between atoms: C2_2  and  S1_3 
REMARK    2  A    between atoms: C2_2  and  S2_7 
REMARK    3  A    between atoms: S1_3  and  C3_4 
REMARK    4  A    between atoms: S2_7  and  N1_9 
REMARK    5  A    between atoms: N1_9  and  C5_10 
REMARK    6  A    between atoms: C7_12  and  C8_13 
REMARK    7  A    between atoms: C12_18  and  N2_19 
ROOT
HETATM    1  C5  UNL     1      24.426   1.776  53.076  1.00  0.00     0.068 A 
HETATM    2  C6  UNL     1      25.749   2.169  53.116  1.00  0.00     0.047 A 
HETATM    3  C7  UNL     1      26.712   1.182  53.164  1.00  0.00     0.012 A 
HETATM    4  C10 UNL     1      26.372  -0.155  53.174  1.00  0.00     0.017 A 
HETATM    5  C11 UNL     1      25.031  -0.530  53.134  1.00  0.00     0.033 A 
HETATM    6  C12 UNL     1      24.056   0.445  53.085  1.00  0.00     0.058 A 
ENDROOT
BRANCH   1   7
HETATM    7  N1  UNL     1      23.405   2.766  53.025  1.00  0.00    -0.299 N 
HETATM    8  H5  UNL     1      22.946   3.048  53.938  1.00  0.00     0.177 HD
BRANCH   7   9
HETATM    9  S2  UNL     1      22.673   3.693  51.747  1.00  0.00     0.157 S 
HETATM   10  O1  UNL     1      22.363   5.121  52.148  1.00  0.00    -0.229 OA
BRANCH   9  11
HETATM   11  C2  UNL     1      23.734   3.637  50.325  1.00  0.00     0.083 C 
HETATM   12  C1  UNL     1      23.368   2.826  49.360  1.00  0.00     0.043 C 
BRANCH  11  13
HETATM   13  S1  UNL     1      25.220   4.590  50.140  1.00  0.00    -0.091 SA
BRANCH  13  14
HETATM   14  C3  UNL     1      26.616   3.578  49.651  1.00  0.00     0.058 C 
HETATM   15  C4  UNL     1      27.265   4.495  48.929  1.00  0.00     0.063 C 
HETATM   16 BR1  UNL     1      26.669   6.282  48.654  1.00  0.00    -0.063 Br
ENDBRANCH  13  14
ENDBRANCH  11  13
ENDBRANCH   9  11
ENDBRANCH   7   9
ENDBRANCH   1   7
BRANCH   6  17
HETATM   17  N2  UNL     1      22.730  -0.015  53.047  1.00  0.00    -0.375 N 
HETATM   18  C13 UNL     1      21.827  -0.034  51.929  1.00  0.00     0.149 C 
HETATM   19  C14 UNL     1      20.433   0.392  52.307  1.00  0.00     0.187 C 
HETATM   20  O3  UNL     1      20.028  -0.139  53.529  1.00  0.00    -0.388 OA
HETATM   21  C15 UNL     1      20.905   0.225  54.558  1.00  0.00     0.187 C 
HETATM   22  C16 UNL     1      22.183  -0.545  54.289  1.00  0.00     0.149 C 
ENDBRANCH   6  17
BRANCH   3  23
HETATM   23  C8  UNL     1      28.142   1.464  53.209  1.00  0.00     0.155 C 
HETATM   24  C9  UNL     1      29.202   0.503  53.608  1.00  0.00     0.096 C 
HETATM   25  O2  UNL     1      28.668   2.584  52.908  1.00  0.00    -0.293 OA
ENDBRANCH   3  23
TORSDOF 7
ENDMDL
MODEL 3
REMARK VINA RESULT:      -7.2      1.846      2.375
REMARK  7 active torsions:
REMARK  status: ('A' for Active; 'I' for Inactive)
REMARK    1  A    between atoms: C2_2  and  S1_3 
REMARK    2  A    between atoms: C2_2  and  S2_7 
REMARK    3  A    between atoms: S1_3  and  C3_4 
REMARK    4  A    between atoms: S2_7  and  N1_9 
REMARK    5  A    between atoms: N1_9  and  C5_10 
REMARK    6  A    between atoms: C7_12  and  C8_13 
REMARK    7  A    between atoms: C12_18  and  N2_19 
ROOT
HETATM    1  C5  UNL     1      24.565   0.464  52.730  1.00  0.00     0.068 A 
HETATM    2  C6  UNL     1      23.199   0.405  52.923  1.00  0.00     0.047 A 
HETATM    3  C7  UNL     1      22.733  -0.304  54.011  1.00  0.00     0.012 A 
HETATM    4  C10 UNL     1      23.598  -0.936  54.881  1.00  0.00     0.017 A 
HETATM    5  C11 UNL     1      24.972  -0.864  54.667  1.00  0.00     0.033 A 
HETATM    6  C12 UNL     1      25.454  -0.159  53.583  1.00  0.00     0.058 A 
ENDROOT
BRANCH   1   7
HETATM    7  N1  UNL     1      25.081   1.187  51.617  1.00  0.00    -0.299 N 
HETATM    8  H5  UNL     1      25.127   0.687  50.683  1.00  0.00     0.177 HD
BRANCH   7   9
HETATM    9  S2  UNL     1      25.698   2.799  51.395  1.00  0.00     0.157 S 
HETATM   10  O1  UNL     1      27.202   2.844  51.223  1.00  0.00    -0.229 OA
BRANCH   9  11
HETATM   11  C2  UNL     1      24.866   3.541  50.014  1.00  0.00     0.083 C 
HETATM   12  C1  UNL     1      25.531   4.467  49.366  1.00  0.00     0.043 C 
BRANCH  11  13
HETATM   13  S1  UNL     1      23.230   3.111  49.476  1.00  0.00    -0.091 SA
BRANCH  13  14
HETATM   14  C3  UNL     1      21.999   3.411  50.743  1.00  0.00     0.058 C 
HETATM   15  C4  UNL     1      21.176   2.403  50.445  1.00  0.00     0.063 C 
HETATM   16 BR1  UNL     1      21.456   1.153  49.036  1.00  0.00    -0.063 Br
ENDBRANCH  13  14
ENDBRANCH  11  13
ENDBRANCH   9  11
ENDBRANCH   7   9
ENDBRANCH   1   7
BRANCH   6  17
HETATM   17  N2  UNL     1      26.850  -0.135  53.438  1.00  0.00    -0.375 N 
HETATM   18  C13 UNL     1      27.679  -1.020  52.667  1.00  0.00     0.149 C 
HETATM   19  C14 UNL     1      28.936  -1.414  53.399  1.00  0.00     0.187 C 
HETATM   20  O3  UNL     1      29.514  -0.344  54.077  1.00  0.00    -0.388 OA
HETATM   21  C15 UNL     1      28.618   0.222  54.993  1.00  0.00     0.187 C 
HETATM   22  C16 UNL     1      27.565   0.915  54.150  1.00  0.00     0.149 C 
ENDBRANCH   6  17
BRANCH   3  23
HETATM   23  C8  UNL     1      21.317  -0.443  54.327  1.00  0.00     0.155 C 
HETATM   24  C9  UNL     1      20.522  -1.692  54.214  1.00  0.00     0.096 C 
HETATM   25  O2  UNL     1      20.574   0.503  54.746  1.00  0.00    -0.293 OA
ENDBRANCH   3  23
TORSDOF 7
ENDMDL
MODEL 4
REMARK VINA RESULT:      -7.1      2.096      2.704
REMARK  7 active torsions:
REMARK  status: ('A' for Active; 'I' for Inactive)
REMARK    1  A    between atoms: C2_2  and  S1_3 
REMARK    2  A    between atoms: C2_2  and  S2_7 
REMARK    3  A    between atoms: S1_3  and  C3_4 
REMARK    4  A    between atoms: S2_7  and  N1_9 
REMARK    5  A    between atoms: N1_9  and  C5_10 
REMARK    6  A    between atoms: C7_12  and  C8_13 
REMARK    7  A    between atoms: C12_18  and  N2_19 
ROOT
HETATM    1  C5  UNL     1      24.037   0.734  52.427  1.00  0.00     0.068 A 
HETATM    2  C6  UNL     1      22.756   1.070  52.037  1.00  0.00     0.047 A 
HETATM    3  C7  UNL     1      21.705   0.540  52.757  1.00  0.00     0.012 A 
HETATM    4  C10 UNL     1      21.919  -0.300  53.831  1.00  0.00     0.017 A 
HETATM    5  C11 UNL     1      23.220  -0.626  54.206  1.00  0.00     0.033 A 
HETATM    6  C12 UNL     1      24.282  -0.104  53.497  1.00  0.00     0.058 A 
ENDROOT
BRANCH   1   7
HETATM    7  N1  UNL     1      25.146   1.263  51.708  1.00  0.00    -0.299 N 
HETATM    8  H5  UNL     1      25.524   0.694  50.896  1.00  0.00     0.177 HD
BRANCH   7   9
HETATM    9  S2  UNL     1      26.100   2.712  51.839  1.00  0.00     0.157 S 
HETATM   10  O1  UNL     1      27.583   2.438  51.990  1.00  0.00    -0.229 OA
BRANCH   9  11
HETATM   11  C2  UNL     1      25.773   3.738  50.429  1.00  0.00     0.083 C 
HETATM   12  C1  UNL     1      26.628   3.652  49.437  1.00  0.00     0.043 C 
BRANCH  11  13
HETATM   13  S1  UNL     1      24.392   4.845  50.289  1.00  0.00    -0.091 SA
BRANCH  13  14
HETATM   14  C3  UNL     1      23.049   4.134  49.340  1.00  0.00     0.058 C 
HETATM   15  C4  UNL     1      22.108   4.181  50.286  1.00  0.00     0.063 C 
HETATM   16 BR1  UNL     1      22.372   4.854  52.047  1.00  0.00    -0.063 Br
ENDBRANCH  13  14
ENDBRANCH  11  13
ENDBRANCH   9  11
ENDBRANCH   7   9
ENDBRANCH   1   7
BRANCH   6  17
HETATM   17  N2  UNL     1      25.560  -0.481  53.938  1.00  0.00    -0.375 N 
HETATM   18  C13 UNL     1      26.319   0.061  55.032  1.00  0.00     0.149 C 
HETATM   19  C14 UNL     1      27.774   0.245  54.687  1.00  0.00     0.187 C 
HETATM   20  O3  UNL     1      28.286  -0.825  53.956  1.00  0.00    -0.388 OA
HETATM   21  C15 UNL     1      27.564  -1.024  52.772  1.00  0.00     0.187 C 
HETATM   22  C16 UNL     1      26.215  -1.559  53.209  1.00  0.00     0.149 C 
ENDBRANCH   6  17
BRANCH   3  23
HETATM   23  C8  UNL     1      20.307   0.816  52.449  1.00  0.00     0.155 C 
HETATM   24  C9  UNL     1      19.203  -0.178  52.467  1.00  0.00     0.096 C 
HETATM   25  O2  UNL     1      19.851   1.959  52.122  1.00  0.00    -0.293 OA
ENDBRANCH   3  23
TORSDOF 7
ENDMDL
MODEL 5
REMARK VINA RESULT:      -7.0      3.204      6.216
REMARK  7 active torsions:
REMARK  status: ('A' for Active; 'I' for Inactive)
REMARK    1  A    between atoms: C2_2  and  S1_3 
REMARK    2  A    between atoms: C2_2  and  S2_7 
REMARK    3  A    between atoms: S1_3  and  C3_4 
REMARK    4  A    between atoms: S2_7  and  N1_9 
REMARK    5  A    between atoms: N1_9  and  C5_10 
REMARK    6  A    between atoms: C7_12  and  C8_13 
REMARK    7  A    between atoms: C12_18  and  N2_19 
ROOT
HETATM    1  C5  UNL     1      24.478   0.439  52.871  1.00  0.00     0.068 A 
HETATM    2  C6  UNL     1      25.422  -0.484  53.278  1.00  0.00     0.047 A 
HETATM    3  C7  UNL     1      26.696  -0.373  52.759  1.00  0.00     0.012 A 
HETATM    4  C10 UNL     1      27.023   0.624  51.863  1.00  0.00     0.017 A 
HETATM    5  C11 UNL     1      26.055   1.544  51.465  1.00  0.00     0.033 A 
HETATM    6  C12 UNL     1      24.776   1.446  51.975  1.00  0.00     0.058 A 
ENDROOT
BRANCH   1   7
HETATM    7  N1  UNL     1      23.154   0.355  53.386  1.00  0.00    -0.299 N 
HETATM    8  H5  UNL     1      22.672   1.259  53.658  1.00  0.00     0.177 HD
BRANCH   7   9
HETATM    9  S2  UNL     1      22.053  -0.956  53.699  1.00  0.00     0.157 S 
HETATM   10  O1  UNL     1      22.028  -1.379  55.154  1.00  0.00    -0.229 OA
BRANCH   9  11
HETATM   11  C2  UNL     1      20.437  -0.488  53.134  1.00  0.00     0.083 C 
HETATM   12  C1  UNL     1      19.428  -1.146  53.654  1.00  0.00     0.043 C 
BRANCH  11  13
HETATM   13  S1  UNL     1      20.118   0.784  51.937  1.00  0.00    -0.091 SA
BRANCH  13  14
HETATM   14  C3  UNL     1      20.184   2.423  52.658  1.00  0.00     0.058 C 
HETATM   15  C4  UNL     1      19.711   3.104  51.611  1.00  0.00     0.063 C 
HETATM   16 BR1  UNL     1      19.190   2.325  49.955  1.00  0.00    -0.063 Br
ENDBRANCH  13  14
ENDBRANCH  11  13
ENDBRANCH   9  11
ENDBRANCH   7   9
ENDBRANCH   1   7
BRANCH   6  17
HETATM   17  N2  UNL     1      23.861   2.410  51.524  1.00  0.00    -0.375 N 
HETATM   18  C13 UNL     1      23.069   2.393  50.325  1.00  0.00     0.149 C 
HETATM   19  C14 UNL     1      23.029   3.735  49.642  1.00  0.00     0.187 C 
HETATM   20  O3  UNL     1      22.891   4.787  50.545  1.00  0.00    -0.388 OA
HETATM   21  C15 UNL     1      23.928   4.790  51.485  1.00  0.00     0.187 C 
HETATM   22  C16 UNL     1      23.676   3.583  52.368  1.00  0.00     0.149 C 
ENDBRANCH   6  17
BRANCH   3  23
HETATM   23  C8  UNL     1      27.782  -1.281  53.107  1.00  0.00     0.155 C 
HETATM   24  C9  UNL     1      29.140  -0.877  53.552  1.00  0.00     0.096 C 
HETATM   25  O2  UNL     1      27.700  -2.551  53.073  1.00  0.00    -0.293 OA
ENDBRANCH   3  23
TORSDOF 7
ENDMDL
MODEL 6
REMARK VINA RESULT:      -6.9      3.768      6.226
REMARK  7 active torsions:
REMARK  status: ('A' for Active; 'I' for Inactive)
REMARK    1  A    between atoms: C2_2  and  S1_3 
REMARK    2  A    between atoms: C2_2  and  S2_7 
REMARK    3  A    between atoms: S1_3  and  C3_4 
REMARK    4  A    between atoms: S2_7  and  N1_9 
REMARK    5  A    between atoms: N1_9  and  C5_10 
REMARK    6  A    between atoms: C7_12  and  C8_13 
REMARK    7  A    between atoms: C12_18  and  N2_19 
ROOT
HETATM    1  C5  UNL     1      24.511   1.808  52.203  1.00  0.00     0.068 A 
HETATM    2  C6  UNL     1      23.995   2.685  51.269  1.00  0.00     0.047 A 
HETATM    3  C7  UNL     1      24.873   3.260  50.373  1.00  0.00     0.012 A 
HETATM    4  C10 UNL     1      26.222   2.974  50.403  1.00  0.00     0.017 A 
HETATM    5  C11 UNL     1      26.722   2.086  51.354  1.00  0.00     0.033 A 
HETATM    6  C12 UNL     1      25.857   1.503  52.257  1.00  0.00     0.058 A 
ENDROOT
BRANCH   1   7
HETATM    7  N1  UNL     1      23.635   1.196  53.143  1.00  0.00    -0.299 N 
HETATM    8  H5  UNL     1      23.417   1.729  54.034  1.00  0.00     0.177 HD
BRANCH   7   9
HETATM    9  S2  UNL     1      22.772  -0.314  53.196  1.00  0.00     0.157 S 
HETATM   10  O1  UNL     1      22.590  -0.848  54.603  1.00  0.00    -0.229 OA
BRANCH   9  11
HETATM   11  C2  UNL     1      21.212  -0.107  52.376  1.00  0.00     0.083 C 
HETATM   12  C1  UNL     1      21.262   0.263  51.118  1.00  0.00     0.043 C 
BRANCH  11  13
HETATM   13  S1  UNL     1      19.631  -0.366  53.141  1.00  0.00    -0.091 SA
BRANCH  13  14
HETATM   14  C3  UNL     1      18.274   0.067  52.054  1.00  0.00     0.058 C 
HETATM   15  C4  UNL     1      17.467  -0.955  52.348  1.00  0.00     0.063 C 
HETATM   16 BR1  UNL     1      17.874  -2.335  53.594  1.00  0.00    -0.063 Br
ENDBRANCH  13  14
ENDBRANCH  11  13
ENDBRANCH   9  11
ENDBRANCH   7   9
ENDBRANCH   1   7
BRANCH   6  17
HETATM   17  N2  UNL     1      26.438   0.621  53.182  1.00  0.00    -0.375 N 
HETATM   18  C13 UNL     1      26.888   0.903  54.517  1.00  0.00     0.149 C 
HETATM   19  C14 UNL     1      28.206   0.243  54.832  1.00  0.00     0.187 C 
HETATM   20  O3  UNL     1      28.280  -1.058  54.339  1.00  0.00    -0.388 OA
HETATM   21  C15 UNL     1      28.079  -1.089  52.953  1.00  0.00     0.187 C 
HETATM   22  C16 UNL     1      26.613  -0.759  52.751  1.00  0.00     0.149 C 
ENDBRANCH   6  17
BRANCH   3  23
HETATM   23  C8  UNL     1      24.457   4.201  49.340  1.00  0.00     0.155 C 
HETATM   24  C9  UNL     1      25.173   5.447  48.963  1.00  0.00     0.096 C 
HETATM   25  O2  UNL     1      23.414   4.070  48.621  1.00  0.00    -0.293 OA
ENDBRANCH   3  23
TORSDOF 7
ENDMDL
MODEL 7
REMARK VINA RESULT:      -6.9      1.867      5.044
REMARK  7 active torsions:
REMARK  status: ('A' for Active; 'I' for Inactive)
REMARK    1  A    between atoms: C2_2  and  S1_3 
REMARK    2  A    between atoms: C2_2  and  S2_7 
REMARK    3  A    between atoms: S1_3  and  C3_4 
REMARK    4  A    between atoms: S2_7  and  N1_9 
REMARK    5  A    between atoms: N1_9  and  C5_10 
REMARK    6  A    between atoms: C7_12  and  C8_13 
REMARK    7  A    between atoms: C12_18  and  N2_19 
ROOT
HETATM    1  C5  UNL     1      25.148   1.096  52.529  1.00  0.00     0.068 A 
HETATM    2  C6  UNL     1      26.503   1.308  52.686  1.00  0.00     0.047 A 
HETATM    3  C7  UNL     1      27.132   0.690  53.747  1.00  0.00     0.012 A 
HETATM    4  C10 UNL     1      26.436  -0.114  54.627  1.00  0.00     0.017 A 
HETATM    5  C11 UNL     1      25.069  -0.314  54.450  1.00  0.00     0.033 A 
HETATM    6  C12 UNL     1      24.425   0.298  53.394  1.00  0.00     0.058 A 
ENDROOT
BRANCH   1   7
HETATM    7  N1  UNL     1      24.466   1.718  51.445  1.00  0.00    -0.299 N 
HETATM    8  H5  UNL     1      24.214   1.115  50.610  1.00  0.00     0.177 HD
BRANCH   7   9
HETATM    9  S2  UNL     1      23.903   3.334  51.131  1.00  0.00     0.157 S 
HETATM   10  O1  UNL     1      23.750   4.168  52.387  1.00  0.00    -0.229 OA
BRANCH   9  11
HETATM   11  C2  UNL     1      25.006   4.105  49.973  1.00  0.00     0.083 C 
HETATM   12  C1  UNL     1      26.058   3.405  49.620  1.00  0.00     0.043 C 
BRANCH  11  13
HETATM   13  S1  UNL     1      24.771   5.725  49.285  1.00  0.00    -0.091 SA
BRANCH  13  14
HETATM   14  C3  UNL     1      25.450   7.010  50.333  1.00  0.00     0.058 C 
HETATM   15  C4  UNL     1      24.298   7.566  50.715  1.00  0.00     0.063 C 
HETATM   16 BR1  UNL     1      22.574   6.976  50.165  1.00  0.00    -0.063 Br
ENDBRANCH  13  14
ENDBRANCH  11  13
ENDBRANCH   9  11
ENDBRANCH   7   9
ENDBRANCH   1   7
BRANCH   6  17
HETATM   17  N2  UNL     1      23.049   0.046  53.286  1.00  0.00    -0.375 N 
HETATM   18  C13 UNL     1      21.964   0.986  53.364  1.00  0.00     0.149 C 
HETATM   19  C14 UNL     1      20.806   0.463  54.173  1.00  0.00     0.187 C 
HETATM   20  O3  UNL     1      20.538  -0.879  53.912  1.00  0.00    -0.388 OA
HETATM   21  C15 UNL     1      21.660  -1.680  54.160  1.00  0.00     0.187 C 
HETATM   22  C16 UNL     1      22.650  -1.337  53.064  1.00  0.00     0.149 C 
ENDBRANCH   6  17
BRANCH   3  23
HETATM   23  C8  UNL     1      28.556   0.831  54.024  1.00  0.00     0.155 C 
HETATM   24  C9  UNL     1      29.610  -0.154  53.670  1.00  0.00     0.096 C 
HETATM   25  O2  UNL     1      29.083   1.831  54.611  1.00  0.00    -0.293 OA
ENDBRANCH   3  23
TORSDOF 7
ENDMDL
MODEL 8
REMARK VINA RESULT:      -6.9      2.916      5.397
REMARK  7 active torsions:
REMARK  status: ('A' for Active; 'I' for Inactive)
REMARK    1  A    between atoms: C2_2  and  S1_3 
REMARK    2  A    between atoms: C2_2  and  S2_7 
REMARK    3  A    between atoms: S1_3  and  C3_4 
REMARK    4  A    between atoms: S2_7  and  N1_9 
REMARK    5  A    between atoms: N1_9  and  C5_10 
REMARK    6  A    between atoms: C7_12  and  C8_13 
REMARK    7  A    between atoms: C12_18  and  N2_19 
ROOT
HETATM    1  C5  UNL     1      24.492   1.832  52.131  1.00  0.00     0.068 A 
HETATM    2  C6  UNL     1      23.999   2.730  51.206  1.00  0.00     0.047 A 
HETATM    3  C7  UNL     1      24.893   3.308  50.329  1.00  0.00     0.012 A 
HETATM    4  C10 UNL     1      26.238   3.003  50.369  1.00  0.00     0.017 A 
HETATM    5  C11 UNL     1      26.716   2.094  51.311  1.00  0.00     0.033 A 
HETATM    6  C12 UNL     1      25.834   1.508  52.196  1.00  0.00     0.058 A 
ENDROOT
BRANCH   1   7
HETATM    7  N1  UNL     1      23.599   1.217  53.052  1.00  0.00    -0.299 N 
HETATM    8  H5  UNL     1      23.121   1.838  53.767  1.00  0.00     0.177 HD
BRANCH   7   9
HETATM    9  S2  UNL     1      23.057  -0.416  53.314  1.00  0.00     0.157 S 
HETATM   10  O1  UNL     1      23.539  -1.002  54.626  1.00  0.00    -0.229 OA
BRANCH   9  11
HETATM   11  C2  UNL     1      21.286  -0.453  53.202  1.00  0.00     0.083 C 
HETATM   12  C1  UNL     1      20.657  -1.100  54.154  1.00  0.00     0.043 C 
BRANCH  11  13
HETATM   13  S1  UNL     1      20.344   0.316  51.908  1.00  0.00    -0.091 SA
BRANCH  13  14
HETATM   14  C3  UNL     1      20.163   2.081  52.160  1.00  0.00     0.058 C 
HETATM   15  C4  UNL     1      20.451   2.476  50.917  1.00  0.00     0.063 C 
HETATM   16 BR1  UNL     1      20.891   1.306  49.481  1.00  0.00    -0.063 Br
ENDBRANCH  13  14
ENDBRANCH  11  13
ENDBRANCH   9  11
ENDBRANCH   7   9
ENDBRANCH   1   7
BRANCH   6  17
HETATM   17  N2  UNL     1      26.393   0.605  53.112  1.00  0.00    -0.375 N 
HETATM   18  C13 UNL     1      26.707   0.823  54.498  1.00  0.00     0.149 C 
HETATM   19  C14 UNL     1      28.035   0.229  54.888  1.00  0.00     0.187 C 
HETATM   20  O3  UNL     1      28.241  -1.028  54.324  1.00  0.00    -0.388 OA
HETATM   21  C15 UNL     1      28.163  -0.978  52.927  1.00  0.00     0.187 C 
HETATM   22  C16 UNL     1      26.701  -0.730  52.614  1.00  0.00     0.149 C 
ENDBRANCH   6  17
BRANCH   3  23
HETATM   23  C8  UNL     1      24.501   4.269  49.306  1.00  0.00     0.155 C 
HETATM   24  C9  UNL     1      25.267   5.480  48.916  1.00  0.00     0.096 C 
HETATM   25  O2  UNL     1      23.437   4.191  48.610  1.00  0.00    -0.293 OA
ENDBRANCH   3  23
TORSDOF 7
ENDMDL
MODEL 9
REMARK VINA RESULT:      -6.8      2.281      5.450
REMARK  7 active torsions:
REMARK  status: ('A' for Active; 'I' for Inactive)
REMARK    1  A    between atoms: C2_2  and  S1_3 
REMARK    2  A    between atoms: C2_2  and  S2_7 
REMARK    3  A    between atoms: S1_3  and  C3_4 
REMARK    4  A    between atoms: S2_7  and  N1_9 
REMARK    5  A    between atoms: N1_9  and  C5_10 
REMARK    6  A    between atoms: C7_12  and  C8_13 
REMARK    7  A    between atoms: C12_18  and  N2_19 
ROOT
HETATM    1  C5  UNL     1      25.131   0.906  52.603  1.00  0.00     0.068 A 
HETATM    2  C6  UNL     1      26.491   1.078  52.766  1.00  0.00     0.047 A 
HETATM    3  C7  UNL     1      27.089   0.479  53.856  1.00  0.00     0.012 A 
HETATM    4  C10 UNL     1      26.359  -0.269  54.756  1.00  0.00     0.017 A 
HETATM    5  C11 UNL     1      24.987  -0.429  54.573  1.00  0.00     0.033 A 
HETATM    6  C12 UNL     1      24.374   0.165  53.489  1.00  0.00     0.058 A 
ENDROOT
BRANCH   1   7
HETATM    7  N1  UNL     1      24.480   1.510  51.491  1.00  0.00    -0.299 N 
HETATM    8  H5  UNL     1      23.971   0.874  50.811  1.00  0.00     0.177 HD
BRANCH   7   9
HETATM    9  S2  UNL     1      24.299   3.148  50.931  1.00  0.00     0.157 S 
HETATM   10  O1  UNL     1      24.806   3.355  49.518  1.00  0.00    -0.229 OA
BRANCH   9  11
HETATM   11  C2  UNL     1      22.593   3.615  51.080  1.00  0.00     0.083 C 
HETATM   12  C1  UNL     1      22.294   4.405  52.084  1.00  0.00     0.043 C 
BRANCH  11  13
HETATM   13  S1  UNL     1      21.305   3.087  49.978  1.00  0.00    -0.091 SA
BRANCH  13  14
HETATM   14  C3  UNL     1      21.363   1.323  49.666  1.00  0.00     0.058 C 
HETATM   15  C4  UNL     1      21.682   1.375  48.370  1.00  0.00     0.063 C 
HETATM   16 BR1  UNL     1      21.943   2.979  47.380  1.00  0.00    -0.063 Br
ENDBRANCH  13  14
ENDBRANCH  11  13
ENDBRANCH   9  11
ENDBRANCH   7   9
ENDBRANCH   1   7
BRANCH   6  17
HETATM   17  N2  UNL     1      22.991  -0.045  53.375  1.00  0.00    -0.375 N 
HETATM   18  C13 UNL     1      21.932   0.920  53.493  1.00  0.00     0.149 C 
HETATM   19  C14 UNL     1      20.762   0.398  54.286  1.00  0.00     0.187 C 
HETATM   20  O3  UNL     1      20.457  -0.925  53.974  1.00  0.00    -0.388 OA
HETATM   21  C15 UNL     1      21.557  -1.765  54.188  1.00  0.00     0.187 C 
HETATM   22  C16 UNL     1      22.554  -1.408  53.102  1.00  0.00     0.149 C 
ENDBRANCH   6  17
BRANCH   3  23
HETATM   23  C8  UNL     1      28.515   0.583  54.141  1.00  0.00     0.155 C 
HETATM   24  C9  UNL     1      29.563  -0.362  53.677  1.00  0.00     0.096 C 
HETATM   25  O2  UNL     1      29.047   1.509  54.834  1.00  0.00    -0.293 OA
ENDBRANCH   3  23
TORSDOF 7
ENDMDL
