MODEL 1
REMARK VINA RESULT:      -7.6      0.000      0.000
REMARK  4 active torsions:
REMARK  status: ('A' for Active; 'I' for Inactive)
REMARK       I    between atoms: C3_3  and  N1_5 
REMARK    1  A    between atoms: N1_5  and  C4_6 
REMARK    2  A    between atoms: C4_6  and  C5_7 
REMARK    3  A    between atoms: C5_7  and  C6_8 
REMARK    4  A    between atoms: C6_8  and  C7_9 
ROOT
HETATM    1  C1  UNL     1      30.056  -0.588  53.604  1.00  0.00     0.022 C 
HETATM    2  C2  UNL     1      28.925  -0.954  53.402  1.00  0.00    -0.016 C 
HETATM    3  C3  UNL     1      27.561  -1.398  53.140  1.00  0.00     0.299 C 
HETATM    4  O1  UNL     1      27.304  -2.560  52.743  1.00  0.00    -0.258 OA
HETATM    5  N1  UNL     1      26.506  -0.476  53.348  1.00  0.00    -0.326 N 
HETATM    6  H2  UNL     1      26.738   0.487  53.677  1.00  0.00     0.169 HD
ENDROOT
BRANCH   5   7
HETATM    7  C4  UNL     1      25.098  -0.602  53.190  1.00  0.00     0.092 C 
BRANCH   7   8
HETATM    8  C5  UNL     1      24.166   0.327  53.265  1.00  0.00     0.019 C 
BRANCH   8   9
HETATM    9  C6  UNL     1      23.384   1.209  52.464  1.00  0.00     0.034 C 
BRANCH   9  10
HETATM   10  C7  UNL     1      23.391   1.762  51.266  1.00  0.00     0.070 A 
HETATM   11  N2  UNL     1      22.462   1.484  50.342  1.00  0.00    -0.241 NA
HETATM   12  C8  UNL     1      22.450   2.026  49.136  1.00  0.00     0.234 A 
HETATM   13  N3  UNL     1      23.369   2.901  48.738  1.00  0.00    -0.244 NA
HETATM   14  C9  UNL     1      24.345   3.266  49.548  1.00  0.00     0.068 A 
HETATM   15  C10 UNL     1      24.337   2.679  50.819  1.00  0.00     0.017 A 
HETATM   16  C12 UNL     1      25.546   4.022  49.874  1.00  0.00     0.061 A 
HETATM   17  C11 UNL     1      25.428   3.337  51.179  1.00  0.00     0.013 A 
HETATM   18  C13 UNL     1      26.769   3.773  49.111  1.00  0.00    -0.001 A 
HETATM   19  C16 UNL     1      25.449   5.498  49.926  1.00  0.00     0.016 A 
HETATM   20  C14 UNL     1      27.281   4.951  48.785  1.00  0.00     0.016 A 
HETATM   21  C15 UNL     1      26.469   6.052  49.287  1.00  0.00     0.008 A 
HETATM   22 BR1  UNL     1      26.858   7.910  49.034  1.00  0.00    -0.051 Br
ENDBRANCH   9  10
ENDBRANCH   8   9
ENDBRANCH   7   8
ENDBRANCH   5   7
TORSDOF 4
ENDMDL
MODEL 2
REMARK VINA RESULT:      -7.1      4.049      6.032
REMARK  4 active torsions:
REMARK  status: ('A' for Active; 'I' for Inactive)
REMARK       I    between atoms: C3_3  and  N1_5 
REMARK    1  A    between atoms: N1_5  and  C4_6 
REMARK    2  A    between atoms: C4_6  and  C5_7 
REMARK    3  A    between atoms: C5_7  and  C6_8 
REMARK    4  A    between atoms: C6_8  and  C7_9 
ROOT
HETATM    1  C1  UNL     1      16.934  -3.923  53.649  1.00  0.00     0.022 C 
HETATM    2  C2  UNL     1      17.686  -2.983  53.583  1.00  0.00    -0.016 C 
HETATM    3  C3  UNL     1      18.598  -1.850  53.486  1.00  0.00     0.299 C 
HETATM    4  O1  UNL     1      18.341  -0.847  52.777  1.00  0.00    -0.258 OA
HETATM    5  N1  UNL     1      19.807  -1.899  54.222  1.00  0.00    -0.326 N 
HETATM    6  H2  UNL     1      20.007  -2.742  54.805  1.00  0.00     0.169 HD
ENDROOT
BRANCH   5   7
HETATM    7  C4  UNL     1      20.880  -0.972  54.339  1.00  0.00     0.092 C 
BRANCH   7   8
HETATM    8  C5  UNL     1      22.027  -0.940  53.691  1.00  0.00     0.019 C 
BRANCH   8   9
HETATM    9  C6  UNL     1      23.418  -0.685  53.868  1.00  0.00     0.034 C 
BRANCH   9  10
HETATM   10  C7  UNL     1      24.312   0.256  53.634  1.00  0.00     0.070 A 
HETATM   11  N2  UNL     1      25.594   0.136  54.001  1.00  0.00    -0.241 NA
HETATM   12  C8  UNL     1      26.505   1.067  53.776  1.00  0.00     0.234 A 
HETATM   13  N3  UNL     1      26.221   2.210  53.159  1.00  0.00    -0.244 NA
HETATM   14  C9  UNL     1      24.994   2.462  52.742  1.00  0.00     0.068 A 
HETATM   15  C10 UNL     1      24.046   1.462  52.992  1.00  0.00     0.017 A 
HETATM   16  C12 UNL     1      23.988   3.295  52.100  1.00  0.00     0.061 A 
HETATM   17  C11 UNL     1      23.084   2.170  52.421  1.00  0.00     0.013 A 
HETATM   18  C13 UNL     1      23.658   4.591  52.693  1.00  0.00    -0.001 A 
HETATM   19  C16 UNL     1      24.142   3.589  50.658  1.00  0.00     0.016 A 
HETATM   20  C14 UNL     1      23.630   5.482  51.713  1.00  0.00     0.016 A 
HETATM   21  C15 UNL     1      23.932   4.876  50.422  1.00  0.00     0.008 A 
HETATM   22 BR1  UNL     1      23.996   5.815  48.754  1.00  0.00    -0.051 Br
ENDBRANCH   9  10
ENDBRANCH   8   9
ENDBRANCH   7   8
ENDBRANCH   5   7
TORSDOF 4
ENDMDL
MODEL 3
REMARK VINA RESULT:      -7.0      3.652      5.499
REMARK  4 active torsions:
REMARK  status: ('A' for Active; 'I' for Inactive)
REMARK       I    between atoms: C3_3  and  N1_5 
REMARK    1  A    between atoms: N1_5  and  C4_6 
REMARK    2  A    between atoms: C4_6  and  C5_7 
REMARK    3  A    between atoms: C5_7  and  C6_8 
REMARK    4  A    between atoms: C6_8  and  C7_9 
ROOT
HETATM    1  C1  UNL     1      21.907  -1.648  54.779  1.00  0.00     0.022 C 
HETATM    2  C2  UNL     1      21.242  -0.866  54.147  1.00  0.00    -0.016 C 
HETATM    3  C3  UNL     1      20.439   0.069  53.367  1.00  0.00     0.299 C 
HETATM    4  O1  UNL     1      19.334  -0.255  52.869  1.00  0.00    -0.258 OA
HETATM    5  N1  UNL     1      20.938   1.381  53.178  1.00  0.00    -0.326 N 
HETATM    6  H2  UNL     1      21.859   1.635  53.597  1.00  0.00     0.169 HD
ENDROOT
BRANCH   5   7
HETATM    7  C4  UNL     1      20.403   2.504  52.486  1.00  0.00     0.092 C 
BRANCH   7   8
HETATM    8  C5  UNL     1      20.910   3.712  52.342  1.00  0.00     0.019 C 
BRANCH   8   9
HETATM    9  C6  UNL     1      22.106   4.399  51.983  1.00  0.00     0.034 C 
BRANCH   9  10
HETATM   10  C7  UNL     1      23.301   4.155  51.482  1.00  0.00     0.070 A 
HETATM   11  N2  UNL     1      23.798   4.843  50.445  1.00  0.00    -0.241 NA
HETATM   12  C8  UNL     1      24.993   4.614  49.927  1.00  0.00     0.234 A 
HETATM   13  N3  UNL     1      25.807   3.674  50.397  1.00  0.00    -0.244 NA
HETATM   14  C9  UNL     1      25.445   2.920  51.419  1.00  0.00     0.068 A 
HETATM   15  C10 UNL     1      24.176   3.180  51.951  1.00  0.00     0.017 A 
HETATM   16  C12 UNL     1      25.667   1.860  52.391  1.00  0.00     0.061 A 
HETATM   17  C11 UNL     1      24.314   2.229  52.861  1.00  0.00     0.013 A 
HETATM   18  C13 UNL     1      25.844   0.488  51.915  1.00  0.00    -0.001 A 
HETATM   19  C16 UNL     1      26.749   2.039  53.384  1.00  0.00     0.016 A 
HETATM   20  C14 UNL     1      26.883  -0.025  52.558  1.00  0.00     0.016 A 
HETATM   21  C15 UNL     1      27.470   0.931  53.488  1.00  0.00     0.008 A 
HETATM   22 BR1  UNL     1      28.985   0.588  54.607  1.00  0.00    -0.051 Br
ENDBRANCH   9  10
ENDBRANCH   8   9
ENDBRANCH   7   8
ENDBRANCH   5   7
TORSDOF 4
ENDMDL
MODEL 4
REMARK VINA RESULT:      -6.8      3.753      6.354
REMARK  4 active torsions:
REMARK  status: ('A' for Active; 'I' for Inactive)
REMARK       I    between atoms: C3_3  and  N1_5 
REMARK    1  A    between atoms: N1_5  and  C4_6 
REMARK    2  A    between atoms: C4_6  and  C5_7 
REMARK    3  A    between atoms: C5_7  and  C6_8 
REMARK    4  A    between atoms: C6_8  and  C7_9 
ROOT
HETATM    1  C1  UNL     1      27.947   5.564  48.395  1.00  0.00     0.022 C 
HETATM    2  C2  UNL     1      26.801   5.834  48.656  1.00  0.00    -0.016 C 
HETATM    3  C3  UNL     1      25.414   6.169  48.956  1.00  0.00     0.299 C 
HETATM    4  O1  UNL     1      24.459   5.721  48.277  1.00  0.00    -0.258 OA
HETATM    5  N1  UNL     1      25.155   7.026  50.053  1.00  0.00    -0.326 N 
HETATM    6  H2  UNL     1      25.961   7.392  50.607  1.00  0.00     0.169 HD
ENDROOT
BRANCH   5   7
HETATM    7  C4  UNL     1      23.938   7.526  50.594  1.00  0.00     0.092 C 
BRANCH   7   8
HETATM    8  C5  UNL     1      22.970   6.875  51.208  1.00  0.00     0.019 C 
BRANCH   8   9
HETATM    9  C6  UNL     1      22.513   5.561  51.518  1.00  0.00     0.034 C 
BRANCH   9  10
HETATM   10  C7  UNL     1      22.560   4.334  51.037  1.00  0.00     0.070 A 
HETATM   11  N2  UNL     1      22.002   4.001  49.866  1.00  0.00    -0.241 NA
HETATM   12  C8  UNL     1      22.038   2.777  49.365  1.00  0.00     0.234 A 
HETATM   13  N3  UNL     1      22.637   1.768  49.989  1.00  0.00    -0.244 NA
HETATM   14  C9  UNL     1      23.230   1.954  51.154  1.00  0.00     0.068 A 
HETATM   15  C10 UNL     1      23.179   3.257  51.665  1.00  0.00     0.017 A 
HETATM   16  C12 UNL     1      23.982   1.499  52.313  1.00  0.00     0.061 A 
HETATM   17  C11 UNL     1      23.861   2.908  52.745  1.00  0.00     0.013 A 
HETATM   18  C13 UNL     1      23.389   0.491  53.193  1.00  0.00    -0.001 A 
HETATM   19  C16 UNL     1      25.367   1.021  52.103  1.00  0.00     0.016 A 
HETATM   20  C14 UNL     1      24.319  -0.421  53.438  1.00  0.00     0.016 A 
HETATM   21  C15 UNL     1      25.573  -0.110  52.763  1.00  0.00     0.008 A 
HETATM   22 BR1  UNL     1      27.164  -1.171  52.856  1.00  0.00    -0.051 Br
ENDBRANCH   9  10
ENDBRANCH   8   9
ENDBRANCH   7   8
ENDBRANCH   5   7
TORSDOF 4
ENDMDL
MODEL 5
REMARK VINA RESULT:      -6.8      3.214      3.594
REMARK  4 active torsions:
REMARK  status: ('A' for Active; 'I' for Inactive)
REMARK       I    between atoms: C3_3  and  N1_5 
REMARK    1  A    between atoms: N1_5  and  C4_6 
REMARK    2  A    between atoms: C4_6  and  C5_7 
REMARK    3  A    between atoms: C5_7  and  C6_8 
REMARK    4  A    between atoms: C6_8  and  C7_9 
ROOT
HETATM    1  C1  UNL     1      30.120  -0.723  53.520  1.00  0.00     0.022 C 
HETATM    2  C2  UNL     1      29.101  -0.095  53.660  1.00  0.00    -0.016 C 
HETATM    3  C3  UNL     1      27.871   0.666  53.847  1.00  0.00     0.299 C 
HETATM    4  O1  UNL     1      27.874   1.839  54.290  1.00  0.00    -0.258 OA
HETATM    5  N1  UNL     1      26.643   0.044  53.511  1.00  0.00    -0.326 N 
HETATM    6  H2  UNL     1      26.658  -0.934  53.146  1.00  0.00     0.169 HD
ENDROOT
BRANCH   5   7
HETATM    7  C4  UNL     1      25.301   0.511  53.573  1.00  0.00     0.092 C 
BRANCH   7   8
HETATM    8  C5  UNL     1      24.182  -0.137  53.317  1.00  0.00     0.019 C 
BRANCH   8   9
HETATM    9  C6  UNL     1      22.767   0.029  53.265  1.00  0.00     0.034 C 
BRANCH   9  10
HETATM   10  C7  UNL     1      21.818   0.357  52.410  1.00  0.00     0.070 A 
HETATM   11  N2  UNL     1      20.539  -0.001  52.585  1.00  0.00    -0.241 NA
HETATM   12  C8  UNL     1      19.573   0.317  51.741  1.00  0.00     0.234 A 
HETATM   13  N3  UNL     1      19.793   1.026  50.638  1.00  0.00    -0.244 NA
HETATM   14  C9  UNL     1      21.008   1.446  50.340  1.00  0.00     0.068 A 
HETATM   15  C10 UNL     1      22.016   1.097  51.248  1.00  0.00     0.017 A 
HETATM   16  C12 UNL     1      21.969   2.144  49.499  1.00  0.00     0.061 A 
HETATM   17  C11 UNL     1      22.940   1.714  50.529  1.00  0.00     0.013 A 
HETATM   18  C13 UNL     1      22.201   1.661  48.137  1.00  0.00    -0.001 A 
HETATM   19  C16 UNL     1      21.825   3.608  49.340  1.00  0.00     0.016 A 
HETATM   20  C14 UNL     1      22.189   2.714  47.333  1.00  0.00     0.016 A 
HETATM   21  C15 UNL     1      21.954   3.952  48.067  1.00  0.00     0.008 A 
HETATM   22 BR1  UNL     1      21.860   5.695  47.280  1.00  0.00    -0.051 Br
ENDBRANCH   9  10
ENDBRANCH   8   9
ENDBRANCH   7   8
ENDBRANCH   5   7
TORSDOF 4
ENDMDL
MODEL 6
REMARK VINA RESULT:      -6.7      4.846      7.812
REMARK  4 active torsions:
REMARK  status: ('A' for Active; 'I' for Inactive)
REMARK       I    between atoms: C3_3  and  N1_5 
REMARK    1  A    between atoms: N1_5  and  C4_6 
REMARK    2  A    between atoms: C4_6  and  C5_7 
REMARK    3  A    between atoms: C5_7  and  C6_8 
REMARK    4  A    between atoms: C6_8  and  C7_9 
ROOT
HETATM    1  C1  UNL     1      14.774  -1.244  50.291  1.00  0.00     0.022 C 
HETATM    2  C2  UNL     1      15.791  -0.958  50.873  1.00  0.00    -0.016 C 
HETATM    3  C3  UNL     1      17.011  -0.606  51.590  1.00  0.00     0.299 C 
HETATM    4  O1  UNL     1      17.310  -1.127  52.692  1.00  0.00    -0.258 OA
HETATM    5  N1  UNL     1      17.875   0.354  51.009  1.00  0.00    -0.326 N 
HETATM    6  H2  UNL     1      17.611   0.778  50.093  1.00  0.00     0.169 HD
ENDROOT
BRANCH   5   7
HETATM    7  C4  UNL     1      19.115   0.896  51.447  1.00  0.00     0.092 C 
BRANCH   7   8
HETATM    8  C5  UNL     1      20.333   0.650  51.005  1.00  0.00     0.019 C 
BRANCH   8   9
HETATM    9  C6  UNL     1      21.611   0.177  51.422  1.00  0.00     0.034 C 
BRANCH   9  10
HETATM   10  C7  UNL     1      22.246  -0.188  52.519  1.00  0.00     0.070 A 
HETATM   11  N2  UNL     1      21.628  -0.810  53.532  1.00  0.00    -0.241 NA
HETATM   12  C8  UNL     1      22.245  -1.185  54.640  1.00  0.00     0.234 A 
HETATM   13  N3  UNL     1      23.542  -0.973  54.841  1.00  0.00    -0.244 NA
HETATM   14  C9  UNL     1      24.275  -0.369  53.924  1.00  0.00     0.068 A 
HETATM   15  C10 UNL     1      23.601   0.019  52.760  1.00  0.00     0.017 A 
HETATM   16  C12 UNL     1      25.527   0.168  53.412  1.00  0.00     0.061 A 
HETATM   17  C11 UNL     1      24.705   0.526  52.236  1.00  0.00     0.013 A 
HETATM   18  C13 UNL     1      26.169   1.272  54.124  1.00  0.00    -0.001 A 
HETATM   19  C16 UNL     1      26.634  -0.777  53.143  1.00  0.00     0.016 A 
HETATM   20  C14 UNL     1      27.457   0.981  54.234  1.00  0.00     0.016 A 
HETATM   21  C15 UNL     1      27.774  -0.305  53.624  1.00  0.00     0.008 A 
HETATM   22 BR1  UNL     1      29.518  -1.094  53.567  1.00  0.00    -0.051 Br
ENDBRANCH   9  10
ENDBRANCH   8   9
ENDBRANCH   7   8
ENDBRANCH   5   7
TORSDOF 4
ENDMDL
MODEL 7
REMARK VINA RESULT:      -6.7      4.474      7.289
REMARK  4 active torsions:
REMARK  status: ('A' for Active; 'I' for Inactive)
REMARK       I    between atoms: C3_3  and  N1_5 
REMARK    1  A    between atoms: N1_5  and  C4_6 
REMARK    2  A    between atoms: C4_6  and  C5_7 
REMARK    3  A    between atoms: C5_7  and  C6_8 
REMARK    4  A    between atoms: C6_8  and  C7_9 
ROOT
HETATM    1  C1  UNL     1      21.804   5.514  47.907  1.00  0.00     0.022 C 
HETATM    2  C2  UNL     1      21.291   4.450  48.149  1.00  0.00    -0.016 C 
HETATM    3  C3  UNL     1      20.657   3.172  48.449  1.00  0.00     0.299 C 
HETATM    4  O1  UNL     1      19.537   2.857  47.979  1.00  0.00    -0.258 OA
HETATM    5  N1  UNL     1      21.342   2.269  49.299  1.00  0.00    -0.326 N 
HETATM    6  H2  UNL     1      22.272   2.548  49.684  1.00  0.00     0.169 HD
ENDROOT
BRANCH   5   7
HETATM    7  C4  UNL     1      21.000   0.971  49.769  1.00  0.00     0.092 C 
BRANCH   7   8
HETATM    8  C5  UNL     1      21.484   0.304  50.798  1.00  0.00     0.019 C 
BRANCH   8   9
HETATM    9  C6  UNL     1      21.606   0.351  52.218  1.00  0.00     0.034 C 
BRANCH   9  10
HETATM   10  C7  UNL     1      22.324  -0.180  53.189  1.00  0.00     0.070 A 
HETATM   11  N2  UNL     1      21.774  -0.897  54.178  1.00  0.00    -0.241 NA
HETATM   12  C8  UNL     1      22.475  -1.436  55.160  1.00  0.00     0.234 A 
HETATM   13  N3  UNL     1      23.796  -1.311  55.248  1.00  0.00    -0.244 NA
HETATM   14  C9  UNL     1      24.468  -0.629  54.339  1.00  0.00     0.068 A 
HETATM   15  C10 UNL     1      23.706  -0.066  53.309  1.00  0.00     0.017 A 
HETATM   16  C12 UNL     1      25.692  -0.089  53.767  1.00  0.00     0.061 A 
HETATM   17  C11 UNL     1      24.780   0.453  52.736  1.00  0.00     0.013 A 
HETATM   18  C13 UNL     1      26.465   0.886  54.536  1.00  0.00    -0.001 A 
HETATM   19  C16 UNL     1      26.710  -1.041  53.269  1.00  0.00     0.016 A 
HETATM   20  C14 UNL     1      27.738   0.525  54.473  1.00  0.00     0.016 A 
HETATM   21  C15 UNL     1      27.919  -0.686  53.682  1.00  0.00     0.008 A 
HETATM   22 BR1  UNL     1      29.600  -1.539  53.345  1.00  0.00    -0.051 Br
ENDBRANCH   9  10
ENDBRANCH   8   9
ENDBRANCH   7   8
ENDBRANCH   5   7
TORSDOF 4
ENDMDL
MODEL 8
REMARK VINA RESULT:      -6.6      4.615      7.115
REMARK  4 active torsions:
REMARK  status: ('A' for Active; 'I' for Inactive)
REMARK       I    between atoms: C3_3  and  N1_5 
REMARK    1  A    between atoms: N1_5  and  C4_6 
REMARK    2  A    between atoms: C4_6  and  C5_7 
REMARK    3  A    between atoms: C5_7  and  C6_8 
REMARK    4  A    between atoms: C6_8  and  C7_9 
ROOT
HETATM    1  C1  UNL     1      26.976   9.171  50.137  1.00  0.00     0.022 C 
HETATM    2  C2  UNL     1      26.649   8.083  49.734  1.00  0.00    -0.016 C 
HETATM    3  C3  UNL     1      26.242   6.766  49.259  1.00  0.00     0.299 C 
HETATM    4  O1  UNL     1      25.106   6.556  48.770  1.00  0.00    -0.258 OA
HETATM    5  N1  UNL     1      27.172   5.702  49.360  1.00  0.00    -0.326 N 
HETATM    6  H2  UNL     1      28.112   5.893  49.772  1.00  0.00     0.169 HD
ENDROOT
BRANCH   5   7
HETATM    7  C4  UNL     1      27.082   4.331  48.990  1.00  0.00     0.092 C 
BRANCH   7   8
HETATM    8  C5  UNL     1      26.531   3.327  49.643  1.00  0.00     0.019 C 
BRANCH   8   9
HETATM    9  C6  UNL     1      25.658   3.031  50.730  1.00  0.00     0.034 C 
BRANCH   9  10
HETATM   10  C7  UNL     1      24.499   3.415  51.230  1.00  0.00     0.070 A 
HETATM   11  N2  UNL     1      24.229   4.696  51.513  1.00  0.00    -0.241 NA
HETATM   12  C8  UNL     1      23.076   5.102  52.015  1.00  0.00     0.234 A 
HETATM   13  N3  UNL     1      22.079   4.263  52.283  1.00  0.00    -0.244 NA
HETATM   14  C9  UNL     1      22.208   2.970  52.054  1.00  0.00     0.068 A 
HETATM   15  C10 UNL     1      23.438   2.563  51.522  1.00  0.00     0.017 A 
HETATM   16  C12 UNL     1      21.721   1.599  52.051  1.00  0.00     0.061 A 
HETATM   17  C11 UNL     1      23.057   1.296  51.493  1.00  0.00     0.013 A 
HETATM   18  C13 UNL     1      21.383   0.964  53.325  1.00  0.00    -0.001 A 
HETATM   19  C16 UNL     1      20.580   1.265  51.170  1.00  0.00     0.016 A 
HETATM   20  C14 UNL     1      20.214   0.359  53.171  1.00  0.00     0.016 A 
HETATM   21  C15 UNL     1      19.688   0.534  51.823  1.00  0.00     0.008 A 
HETATM   22 BR1  UNL     1      18.027  -0.179  51.191  1.00  0.00    -0.051 Br
ENDBRANCH   9  10
ENDBRANCH   8   9
ENDBRANCH   7   8
ENDBRANCH   5   7
TORSDOF 4
ENDMDL
MODEL 9
REMARK VINA RESULT:      -6.6      3.128      4.132
REMARK  4 active torsions:
REMARK  status: ('A' for Active; 'I' for Inactive)
REMARK       I    between atoms: C3_3  and  N1_5 
REMARK    1  A    between atoms: N1_5  and  C4_6 
REMARK    2  A    between atoms: C4_6  and  C5_7 
REMARK    3  A    between atoms: C5_7  and  C6_8 
REMARK    4  A    between atoms: C6_8  and  C7_9 
ROOT
HETATM    1  C1  UNL     1      27.154   1.885  52.272  1.00  0.00     0.022 C 
HETATM    2  C2  UNL     1      26.820   1.114  53.137  1.00  0.00    -0.016 C 
HETATM    3  C3  UNL     1      26.424   0.169  54.175  1.00  0.00     0.299 C 
HETATM    4  O1  UNL     1      27.258  -0.353  54.953  1.00  0.00    -0.258 OA
HETATM    5  N1  UNL     1      25.051  -0.157  54.294  1.00  0.00    -0.326 N 
HETATM    6  H2  UNL     1      24.370   0.285  53.637  1.00  0.00     0.169 HD
ENDROOT
BRANCH   5   7
HETATM    7  C4  UNL     1      24.360  -1.022  55.188  1.00  0.00     0.092 C 
BRANCH   7   8
HETATM    8  C5  UNL     1      23.117  -1.457  55.130  1.00  0.00     0.019 C 
BRANCH   8   9
HETATM    9  C6  UNL     1      21.992  -1.548  54.261  1.00  0.00     0.034 C 
BRANCH   9  10
HETATM   10  C7  UNL     1      21.216  -0.774  53.526  1.00  0.00     0.070 A 
HETATM   11  N2  UNL     1      19.880  -0.807  53.614  1.00  0.00    -0.241 NA
HETATM   12  C8  UNL     1      19.085  -0.040  52.886  1.00  0.00     0.234 A 
HETATM   13  N3  UNL     1      19.552   0.834  52.000  1.00  0.00    -0.244 NA
HETATM   14  C9  UNL     1      20.851   0.971  51.810  1.00  0.00     0.068 A 
HETATM   15  C10 UNL     1      21.673   0.150  52.590  1.00  0.00     0.017 A 
HETATM   16  C12 UNL     1      22.011   1.570  51.168  1.00  0.00     0.061 A 
HETATM   17  C11 UNL     1      22.769   0.653  52.046  1.00  0.00     0.013 A 
HETATM   18  C13 UNL     1      22.192   1.397  49.727  1.00  0.00    -0.001 A 
HETATM   19  C16 UNL     1      22.267   3.011  51.391  1.00  0.00     0.016 A 
HETATM   20  C14 UNL     1      22.506   2.580  49.219  1.00  0.00     0.016 A 
HETATM   21  C15 UNL     1      22.559   3.612  50.247  1.00  0.00     0.008 A 
HETATM   22 BR1  UNL     1      22.976   5.455  49.934  1.00  0.00    -0.051 Br
ENDBRANCH   9  10
ENDBRANCH   8   9
ENDBRANCH   7   8
ENDBRANCH   5   7
TORSDOF 4
ENDMDL
