MODEL 1
REMARK VINA RESULT:      -8.1      0.000      0.000
REMARK  4 active torsions:
REMARK  status: ('A' for Active; 'I' for Inactive)
REMARK    1  A    between atoms: C2_2  and  C3_3 
REMARK    2  A    between atoms: C2_2  and  N3_13 
REMARK    3  A    between atoms: C13_16  and  C14_17 
REMARK    4  A    between atoms: C16_22  and  O1_23 
ROOT
HETATM    1  C1  UNL     1      26.222   2.795  51.080  1.00  0.00     0.039 C 
HETATM    2  C2  UNL     1      25.213   2.018  51.438  1.00  0.00     0.010 C 
ENDROOT
BRANCH   2   3
HETATM    3  C3  UNL     1      23.881   2.048  50.727  1.00  0.00     0.086 C 
HETATM    4  C4  UNL     1      23.851   3.305  49.849  1.00  0.00     0.135 C 
HETATM    5  N1  UNL     1      22.681   4.174  50.135  1.00  0.00    -0.387 N 
HETATM    6  C5  UNL     1      22.046   3.871  51.371  1.00  0.00     0.057 C 
HETATM    7  H6  UNL     1      22.011   4.958  49.879  1.00  0.00     0.159 HD
HETATM    8  C6  UNL     1      23.047   3.341  52.190  1.00  0.00     0.012 C 
HETATM    9  C10 UNL     1      20.657   3.915  51.895  1.00  0.00     0.146 C 
HETATM   10  C7  UNL     1      22.869   2.030  51.783  1.00  0.00    -0.032 C 
HETATM   11  C8  UNL     1      21.847   1.170  52.375  1.00  0.00     0.028 C 
HETATM   12  C9  UNL     1      20.637   1.655  52.795  1.00  0.00     0.117 C 
HETATM   13  N2  UNL     1      20.224   3.073  52.843  1.00  0.00    -0.271 NA
ENDBRANCH   2   3
BRANCH   2  14
HETATM   14  N3  UNL     1      25.564   1.195  52.537  1.00  0.00    -0.354 N 
HETATM   15  C11 UNL     1      25.634  -0.254  52.286  1.00  0.00     0.153 C 
HETATM   16  C12 UNL     1      27.080  -0.630  52.434  1.00  0.00     0.005 C 
HETATM   17  C13 UNL     1      27.552  -0.192  53.571  1.00  0.00     0.027 C 
HETATM   18  C15 UNL     1      26.768   0.571  54.576  1.00  0.00     0.096 C 
HETATM   19  C16 UNL     1      25.871   1.580  53.890  1.00  0.00     0.224 C 
BRANCH  17  20
HETATM   20  C14 UNL     1      28.987  -0.489  53.867  1.00  0.00     0.413 C 
HETATM   21  F1  UNL     1      29.242  -1.806  53.622  1.00  0.00    -0.166 F 
HETATM   22  F2  UNL     1      29.174  -0.278  55.228  1.00  0.00    -0.166 F 
HETATM   23  F3  UNL     1      29.845   0.338  53.210  1.00  0.00    -0.166 F 
ENDBRANCH  17  20
BRANCH  19  24
HETATM   24  O1  UNL     1      26.599   2.789  53.922  1.00  0.00    -0.376 OA
HETATM   25  H16 UNL     1      26.400   3.330  53.124  1.00  0.00     0.212 HD
ENDBRANCH  19  24
ENDBRANCH   2  14
TORSDOF 4
ENDMDL
MODEL 2
REMARK VINA RESULT:      -8.1      1.836      2.371
REMARK  4 active torsions:
REMARK  status: ('A' for Active; 'I' for Inactive)
REMARK    1  A    between atoms: C2_2  and  C3_3 
REMARK    2  A    between atoms: C2_2  and  N3_13 
REMARK    3  A    between atoms: C13_16  and  C14_17 
REMARK    4  A    between atoms: C16_22  and  O1_23 
ROOT
HETATM    1  C1  UNL     1      24.724   3.196  53.332  1.00  0.00     0.039 C 
HETATM    2  C2  UNL     1      25.192   1.976  53.117  1.00  0.00     0.010 C 
ENDROOT
BRANCH   2   3
HETATM    3  C3  UNL     1      24.466   0.975  52.250  1.00  0.00     0.086 C 
HETATM    4  C4  UNL     1      23.870   1.737  51.060  1.00  0.00     0.135 C 
HETATM    5  N1  UNL     1      22.405   1.534  50.927  1.00  0.00    -0.387 N 
HETATM    6  C5  UNL     1      21.805   0.996  52.098  1.00  0.00     0.057 C 
HETATM    7  H6  UNL     1      21.499   1.575  50.373  1.00  0.00     0.159 HD
HETATM    8  C6  UNL     1      22.603   1.425  53.163  1.00  0.00     0.012 C 
HETATM    9  C10 UNL     1      20.667   0.088  52.393  1.00  0.00     0.146 C 
HETATM   10  C7  UNL     1      23.471   0.347  53.118  1.00  0.00    -0.032 C 
HETATM   11  C8  UNL     1      23.166  -0.919  53.780  1.00  0.00     0.028 C 
HETATM   12  C9  UNL     1      21.888  -1.403  53.877  1.00  0.00     0.117 C 
HETATM   13  N2  UNL     1      20.648  -0.709  53.470  1.00  0.00    -0.271 NA
ENDBRANCH   2   3
BRANCH   2  14
HETATM   14  N3  UNL     1      26.419   1.771  53.796  1.00  0.00    -0.354 N 
HETATM   15  C11 UNL     1      26.431   0.745  54.851  1.00  0.00     0.153 C 
HETATM   16  C12 UNL     1      27.323  -0.355  54.349  1.00  0.00     0.005 C 
HETATM   17  C13 UNL     1      28.475   0.131  53.967  1.00  0.00     0.027 C 
HETATM   18  C15 UNL     1      28.849   1.566  54.022  1.00  0.00     0.096 C 
HETATM   19  C16 UNL     1      27.682   2.433  53.594  1.00  0.00     0.224 C 
BRANCH  17  20
HETATM   20  C14 UNL     1      29.477  -0.845  53.440  1.00  0.00     0.413 C 
HETATM   21  F1  UNL     1      28.832  -1.895  52.856  1.00  0.00    -0.166 F 
HETATM   22  F2  UNL     1      30.173  -1.344  54.534  1.00  0.00    -0.166 F 
HETATM   23  F3  UNL     1      30.390  -0.270  52.610  1.00  0.00    -0.166 F 
ENDBRANCH  17  20
BRANCH  19  24
HETATM   24  O1  UNL     1      27.909   2.692  52.226  1.00  0.00    -0.376 OA
HETATM   25  H16 UNL     1      27.416   3.497  51.944  1.00  0.00     0.212 HD
ENDBRANCH  19  24
ENDBRANCH   2  14
TORSDOF 4
ENDMDL
MODEL 3
REMARK VINA RESULT:      -7.9      3.844      6.193
REMARK  4 active torsions:
REMARK  status: ('A' for Active; 'I' for Inactive)
REMARK    1  A    between atoms: C2_2  and  C3_3 
REMARK    2  A    between atoms: C2_2  and  N3_13 
REMARK    3  A    between atoms: C13_16  and  C14_17 
REMARK    4  A    between atoms: C16_22  and  O1_23 
ROOT
HETATM    1  C1  UNL     1      23.904   3.752  51.965  1.00  0.00     0.039 C 
HETATM    2  C2  UNL     1      24.379   2.814  51.161  1.00  0.00     0.010 C 
ENDROOT
BRANCH   2   3
HETATM    3  C3  UNL     1      24.162   1.342  51.422  1.00  0.00     0.086 C 
HETATM    4  C4  UNL     1      22.891   1.203  52.268  1.00  0.00     0.135 C 
HETATM    5  N1  UNL     1      23.123   0.453  53.529  1.00  0.00    -0.387 N 
HETATM    6  C5  UNL     1      24.499   0.339  53.868  1.00  0.00     0.057 C 
HETATM    7  H6  UNL     1      22.777  -0.092  54.373  1.00  0.00     0.159 HD
HETATM    8  C6  UNL     1      25.119   1.462  53.313  1.00  0.00     0.012 C 
HETATM    9  C10 UNL     1      25.349  -0.671  54.549  1.00  0.00     0.146 C 
HETATM   10  C7  UNL     1      25.378   0.875  52.086  1.00  0.00    -0.032 C 
HETATM   11  C8  UNL     1      26.556   0.040  51.863  1.00  0.00     0.028 C 
HETATM   12  C9  UNL     1      27.078  -0.765  52.840  1.00  0.00     0.117 C 
HETATM   13  N2  UNL     1      26.646  -0.831  54.252  1.00  0.00    -0.271 NA
ENDBRANCH   2   3
BRANCH   2  14
HETATM   14  N3  UNL     1      25.086   3.382  50.072  1.00  0.00    -0.354 N 
HETATM   15  C11 UNL     1      24.288   4.089  49.058  1.00  0.00     0.153 C 
HETATM   16  C12 UNL     1      24.673   5.537  49.164  1.00  0.00     0.005 C 
HETATM   17  C13 UNL     1      25.972   5.669  49.108  1.00  0.00     0.027 C 
HETATM   18  C15 UNL     1      26.932   4.546  48.961  1.00  0.00     0.096 C 
HETATM   19  C16 UNL     1      26.503   3.369  49.812  1.00  0.00     0.224 C 
BRANCH  17  20
HETATM   20  C14 UNL     1      26.515   7.059  49.201  1.00  0.00     0.413 C 
HETATM   21  F1  UNL     1      25.948   7.838  48.235  1.00  0.00    -0.166 F 
HETATM   22  F2  UNL     1      27.875   6.984  48.924  1.00  0.00    -0.166 F 
HETATM   23  F3  UNL     1      26.386   7.596  50.444  1.00  0.00    -0.166 F 
ENDBRANCH  17  20
BRANCH  19  24
HETATM   24  O1  UNL     1      27.241   3.502  51.008  1.00  0.00    -0.376 OA
HETATM   25  H16 UNL     1      27.448   2.616  51.383  1.00  0.00     0.212 HD
ENDBRANCH  19  24
ENDBRANCH   2  14
TORSDOF 4
ENDMDL
MODEL 4
REMARK VINA RESULT:      -7.9      1.770      2.806
REMARK  4 active torsions:
REMARK  status: ('A' for Active; 'I' for Inactive)
REMARK    1  A    between atoms: C2_2  and  C3_3 
REMARK    2  A    between atoms: C2_2  and  N3_13 
REMARK    3  A    between atoms: C13_16  and  C14_17 
REMARK    4  A    between atoms: C16_22  and  O1_23 
ROOT
HETATM    1  C1  UNL     1      23.368   1.947  52.431  1.00  0.00     0.039 C 
HETATM    2  C2  UNL     1      24.590   1.621  52.041  1.00  0.00     0.010 C 
ENDROOT
BRANCH   2   3
HETATM    3  C3  UNL     1      25.139   2.017  50.691  1.00  0.00     0.086 C 
HETATM    4  C4  UNL     1      26.566   2.534  50.904  1.00  0.00     0.135 C 
HETATM    5  N1  UNL     1      26.765   3.903  50.363  1.00  0.00    -0.387 N 
HETATM    6  C5  UNL     1      25.545   4.583  50.098  1.00  0.00     0.057 C 
HETATM    7  H6  UNL     1      27.386   4.701  50.037  1.00  0.00     0.159 HD
HETATM    8  C6  UNL     1      24.613   4.051  50.994  1.00  0.00     0.012 C 
HETATM    9  C10 UNL     1      25.076   5.584  49.105  1.00  0.00     0.146 C 
HETATM   10  C7  UNL     1      24.211   3.017  50.165  1.00  0.00    -0.032 C 
HETATM   11  C8  UNL     1      23.197   3.207  49.131  1.00  0.00     0.028 C 
HETATM   12  C9  UNL     1      23.068   4.382  48.440  1.00  0.00     0.117 C 
HETATM   13  N2  UNL     1      23.802   5.640  48.694  1.00  0.00    -0.271 NA
ENDBRANCH   2   3
BRANCH   2  14
HETATM   14  N3  UNL     1      25.266   0.879  53.041  1.00  0.00    -0.354 N 
HETATM   15  C11 UNL     1      25.415  -0.567  52.809  1.00  0.00     0.153 C 
HETATM   16  C12 UNL     1      26.886  -0.806  52.618  1.00  0.00     0.005 C 
HETATM   17  C13 UNL     1      27.566  -0.280  53.602  1.00  0.00     0.027 C 
HETATM   18  C15 UNL     1      26.969   0.450  54.749  1.00  0.00     0.096 C 
HETATM   19  C16 UNL     1      25.843   1.346  54.276  1.00  0.00     0.224 C 
BRANCH  17  20
HETATM   20  C14 UNL     1      29.052  -0.435  53.555  1.00  0.00     0.413 C 
HETATM   21  F1  UNL     1      29.371  -1.624  52.968  1.00  0.00    -0.166 F 
HETATM   22  F2  UNL     1      29.497  -0.492  54.870  1.00  0.00    -0.166 F 
HETATM   23  F3  UNL     1      29.676   0.620  52.964  1.00  0.00    -0.166 F 
ENDBRANCH  17  20
BRANCH  19  24
HETATM   24  O1  UNL     1      26.438   2.615  54.111  1.00  0.00    -0.376 OA
HETATM   25  H16 UNL     1      26.884   2.895  54.943  1.00  0.00     0.212 HD
ENDBRANCH  19  24
ENDBRANCH   2  14
TORSDOF 4
ENDMDL
MODEL 5
REMARK VINA RESULT:      -7.8      1.597      2.454
REMARK  4 active torsions:
REMARK  status: ('A' for Active; 'I' for Inactive)
REMARK    1  A    between atoms: C2_2  and  C3_3 
REMARK    2  A    between atoms: C2_2  and  N3_13 
REMARK    3  A    between atoms: C13_16  and  C14_17 
REMARK    4  A    between atoms: C16_22  and  O1_23 
ROOT
HETATM    1  C1  UNL     1      25.062   2.728  53.686  1.00  0.00     0.039 C 
HETATM    2  C2  UNL     1      24.425   1.805  52.984  1.00  0.00     0.010 C 
ENDROOT
BRANCH   2   3
HETATM    3  C3  UNL     1      22.964   1.931  52.623  1.00  0.00     0.086 C 
HETATM    4  C4  UNL     1      22.622   0.784  51.664  1.00  0.00     0.135 C 
HETATM    5  N1  UNL     1      22.032   1.264  50.387  1.00  0.00    -0.387 N 
HETATM    6  C5  UNL     1      22.237   2.653  50.163  1.00  0.00     0.057 C 
HETATM    7  H6  UNL     1      21.490   1.106  49.488  1.00  0.00     0.159 HD
HETATM    8  C6  UNL     1      23.421   2.974  50.832  1.00  0.00     0.012 C 
HETATM    9  C10 UNL     1      21.481   3.749  49.502  1.00  0.00     0.146 C 
HETATM   10  C7  UNL     1      22.814   3.264  52.042  1.00  0.00    -0.032 C 
HETATM   11  C8  UNL     1      22.232   4.575  52.319  1.00  0.00     0.028 C 
HETATM   12  C9  UNL     1      21.628   5.328  51.347  1.00  0.00     0.117 C 
HETATM   13  N2  UNL     1      21.577   5.024  49.901  1.00  0.00    -0.271 NA
ENDBRANCH   2   3
BRANCH   2  14
HETATM   14  N3  UNL     1      25.288   0.734  52.641  1.00  0.00    -0.354 N 
HETATM   15  C11 UNL     1      26.358   1.027  51.674  1.00  0.00     0.153 C 
HETATM   16  C12 UNL     1      27.648   0.909  52.435  1.00  0.00     0.005 C 
HETATM   17  C13 UNL     1      27.702  -0.234  53.066  1.00  0.00     0.027 C 
HETATM   18  C15 UNL     1      26.639  -1.270  53.035  1.00  0.00     0.096 C 
HETATM   19  C16 UNL     1      25.271  -0.626  53.116  1.00  0.00     0.224 C 
BRANCH  17  20
HETATM   20  C14 UNL     1      28.931  -0.503  53.873  1.00  0.00     0.413 C 
HETATM   21  F1  UNL     1      28.699  -0.192  55.181  1.00  0.00    -0.166 F 
HETATM   22  F2  UNL     1      29.917   0.363  53.413  1.00  0.00    -0.166 F 
HETATM   23  F3  UNL     1      29.402  -1.769  53.716  1.00  0.00    -0.166 F 
ENDBRANCH  17  20
BRANCH  19  24
HETATM   24  O1  UNL     1      24.927  -0.683  54.484  1.00  0.00    -0.376 OA
HETATM   25  H16 UNL     1      23.949  -0.734  54.589  1.00  0.00     0.212 HD
ENDBRANCH  19  24
ENDBRANCH   2  14
TORSDOF 4
ENDMDL
MODEL 6
REMARK VINA RESULT:      -7.7      3.450      5.548
REMARK  4 active torsions:
REMARK  status: ('A' for Active; 'I' for Inactive)
REMARK    1  A    between atoms: C2_2  and  C3_3 
REMARK    2  A    between atoms: C2_2  and  N3_13 
REMARK    3  A    between atoms: C13_16  and  C14_17 
REMARK    4  A    between atoms: C16_22  and  O1_23 
ROOT
HETATM    1  C1  UNL     1      22.725   3.188  49.101  1.00  0.00     0.039 C 
HETATM    2  C2  UNL     1      22.772   3.098  50.421  1.00  0.00     0.010 C 
ENDROOT
BRANCH   2   3
HETATM    3  C3  UNL     1      23.852   3.766  51.237  1.00  0.00     0.086 C 
HETATM    4  C4  UNL     1      24.825   4.437  50.260  1.00  0.00     0.135 C 
HETATM    5  N1  UNL     1      26.229   3.995  50.457  1.00  0.00    -0.387 N 
HETATM    6  C5  UNL     1      26.339   2.808  51.231  1.00  0.00     0.057 C 
HETATM    7  H6  UNL     1      27.276   4.111  50.320  1.00  0.00     0.159 HD
HETATM    8  C6  UNL     1      25.152   2.103  51.013  1.00  0.00     0.012 C 
HETATM    9  C10 UNL     1      27.320   2.253  52.199  1.00  0.00     0.146 C 
HETATM   10  C7  UNL     1      24.451   2.704  52.045  1.00  0.00    -0.032 C 
HETATM   11  C8  UNL     1      24.549   2.231  53.424  1.00  0.00     0.028 C 
HETATM   12  C9  UNL     1      25.708   1.714  53.939  1.00  0.00     0.117 C 
HETATM   13  N2  UNL     1      26.957   1.437  53.198  1.00  0.00    -0.271 NA
ENDBRANCH   2   3
BRANCH   2  14
HETATM   14  N3  UNL     1      21.701   2.314  50.919  1.00  0.00    -0.354 N 
HETATM   15  C11 UNL     1      21.701   0.886  50.563  1.00  0.00     0.153 C 
HETATM   16  C12 UNL     1      21.929   0.140  51.846  1.00  0.00     0.005 C 
HETATM   17  C13 UNL     1      21.082   0.533  52.760  1.00  0.00     0.027 C 
HETATM   18  C15 UNL     1      20.040   1.572  52.559  1.00  0.00     0.096 C 
HETATM   19  C16 UNL     1      20.593   2.722  51.744  1.00  0.00     0.224 C 
BRANCH  17  20
HETATM   20  C14 UNL     1      21.183  -0.121  54.101  1.00  0.00     0.413 C 
HETATM   21  F1  UNL     1      20.634   0.691  55.050  1.00  0.00    -0.166 F 
HETATM   22  F2  UNL     1      22.537  -0.241  54.394  1.00  0.00    -0.166 F 
HETATM   23  F3  UNL     1      20.654  -1.374  54.120  1.00  0.00    -0.166 F 
ENDBRANCH  17  20
BRANCH  19  24
HETATM   24  O1  UNL     1      20.995   3.680  52.699  1.00  0.00    -0.376 OA
HETATM   25  H16 UNL     1      21.276   3.236  53.532  1.00  0.00     0.212 HD
ENDBRANCH  19  24
ENDBRANCH   2  14
TORSDOF 4
ENDMDL
MODEL 7
REMARK VINA RESULT:      -7.4      4.850      6.679
REMARK  4 active torsions:
REMARK  status: ('A' for Active; 'I' for Inactive)
REMARK    1  A    between atoms: C2_2  and  C3_3 
REMARK    2  A    between atoms: C2_2  and  N3_13 
REMARK    3  A    between atoms: C13_16  and  C14_17 
REMARK    4  A    between atoms: C16_22  and  O1_23 
ROOT
HETATM    1  C1  UNL     1      24.336   2.475  50.604  1.00  0.00     0.039 C 
HETATM    2  C2  UNL     1      23.300   2.309  51.411  1.00  0.00     0.010 C 
ENDROOT
BRANCH   2   3
HETATM    3  C3  UNL     1      23.460   2.127  52.902  1.00  0.00     0.086 C 
HETATM    4  C4  UNL     1      24.950   1.900  53.185  1.00  0.00     0.135 C 
HETATM    5  N1  UNL     1      25.206   0.641  53.930  1.00  0.00    -0.387 N 
HETATM    6  C5  UNL     1      24.103  -0.255  53.911  1.00  0.00     0.057 C 
HETATM    7  H6  UNL     1      25.823   0.012  54.523  1.00  0.00     0.159 HD
HETATM    8  C6  UNL     1      23.420   0.012  52.721  1.00  0.00     0.012 C 
HETATM    9  C10 UNL     1      23.528  -1.260  54.842  1.00  0.00     0.146 C 
HETATM   10  C7  UNL     1      22.604   0.995  53.256  1.00  0.00    -0.032 C 
HETATM   11  C8  UNL     1      21.367   0.673  53.963  1.00  0.00     0.028 C 
HETATM   12  C9  UNL     1      21.236  -0.455  54.730  1.00  0.00     0.117 C 
HETATM   13  N2  UNL     1      22.220  -1.549  54.865  1.00  0.00    -0.271 NA
ENDBRANCH   2   3
BRANCH   2  14
HETATM   14  N3  UNL     1      22.081   2.329  50.691  1.00  0.00    -0.354 N 
HETATM   15  C11 UNL     1      21.878   1.262  49.698  1.00  0.00     0.153 C 
HETATM   16  C12 UNL     1      20.751   0.418  50.221  1.00  0.00     0.005 C 
HETATM   17  C13 UNL     1      19.722   1.165  50.521  1.00  0.00     0.027 C 
HETATM   18  C15 UNL     1      19.673   2.641  50.366  1.00  0.00     0.096 C 
HETATM   19  C16 UNL     1      20.986   3.261  50.795  1.00  0.00     0.224 C 
BRANCH  17  20
HETATM   20  C14 UNL     1      18.514   0.467  51.058  1.00  0.00     0.413 C 
HETATM   21  F1  UNL     1      17.781   1.334  51.813  1.00  0.00    -0.166 F 
HETATM   22  F2  UNL     1      18.968  -0.536  51.907  1.00  0.00    -0.166 F 
HETATM   23  F3  UNL     1      17.773  -0.132  50.087  1.00  0.00    -0.166 F 
ENDBRANCH  17  20
BRANCH  19  24
HETATM   24  O1  UNL     1      20.779   3.654  52.134  1.00  0.00    -0.376 OA
HETATM   25  H16 UNL     1      21.546   3.388  52.692  1.00  0.00     0.212 HD
ENDBRANCH  19  24
ENDBRANCH   2  14
TORSDOF 4
ENDMDL
MODEL 8
REMARK VINA RESULT:      -7.3      3.494      6.102
REMARK  4 active torsions:
REMARK  status: ('A' for Active; 'I' for Inactive)
REMARK    1  A    between atoms: C2_2  and  C3_3 
REMARK    2  A    between atoms: C2_2  and  N3_13 
REMARK    3  A    between atoms: C13_16  and  C14_17 
REMARK    4  A    between atoms: C16_22  and  O1_23 
ROOT
HETATM    1  C1  UNL     1      20.552   2.318  52.625  1.00  0.00     0.039 C 
HETATM    2  C2  UNL     1      21.586   2.313  51.798  1.00  0.00     0.010 C 
ENDROOT
BRANCH   2   3
HETATM    3  C3  UNL     1      22.367   1.057  51.491  1.00  0.00     0.086 C 
HETATM    4  C4  UNL     1      21.701  -0.100  52.246  1.00  0.00     0.135 C 
HETATM    5  N1  UNL     1      22.649  -0.827  53.129  1.00  0.00    -0.387 N 
HETATM    6  C5  UNL     1      23.850  -0.107  53.375  1.00  0.00     0.057 C 
HETATM    7  H6  UNL     1      22.928  -1.670  53.712  1.00  0.00     0.159 HD
HETATM    8  C6  UNL     1      23.508   1.245  53.271  1.00  0.00     0.012 C 
HETATM    9  C10 UNL     1      25.274  -0.457  53.612  1.00  0.00     0.146 C 
HETATM   10  C7  UNL     1      23.741   1.334  51.909  1.00  0.00    -0.032 C 
HETATM   11  C8  UNL     1      25.077   1.569  51.367  1.00  0.00     0.028 C 
HETATM   12  C9  UNL     1      26.205   1.068  51.961  1.00  0.00     0.117 C 
HETATM   13  N2  UNL     1      26.279   0.353  53.252  1.00  0.00    -0.271 NA
ENDBRANCH   2   3
BRANCH   2  14
HETATM   14  N3  UNL     1      21.830   3.606  51.274  1.00  0.00    -0.354 N 
HETATM   15  C11 UNL     1      22.248   4.643  52.231  1.00  0.00     0.153 C 
HETATM   16  C12 UNL     1      23.665   4.989  51.874  1.00  0.00     0.005 C 
HETATM   17  C13 UNL     1      23.760   5.270  50.601  1.00  0.00     0.027 C 
HETATM   18  C15 UNL     1      22.626   5.251  49.643  1.00  0.00     0.096 C 
HETATM   19  C16 UNL     1      21.729   4.061  49.910  1.00  0.00     0.224 C 
BRANCH  17  20
HETATM   20  C14 UNL     1      25.116   5.636  50.090  1.00  0.00     0.413 C 
HETATM   21  F1  UNL     1      25.084   5.724  48.729  1.00  0.00    -0.166 F 
HETATM   22  F2  UNL     1      25.970   4.589  50.415  1.00  0.00    -0.166 F 
HETATM   23  F3  UNL     1      25.616   6.759  50.672  1.00  0.00    -0.166 F 
ENDBRANCH  17  20
BRANCH  19  24
HETATM   24  O1  UNL     1      22.169   3.068  49.009  1.00  0.00    -0.376 OA
HETATM   25  H16 UNL     1      22.795   3.454  48.354  1.00  0.00     0.212 HD
ENDBRANCH  19  24
ENDBRANCH   2  14
TORSDOF 4
ENDMDL
MODEL 9
REMARK VINA RESULT:      -7.2      3.655      4.943
REMARK  4 active torsions:
REMARK  status: ('A' for Active; 'I' for Inactive)
REMARK    1  A    between atoms: C2_2  and  C3_3 
REMARK    2  A    between atoms: C2_2  and  N3_13 
REMARK    3  A    between atoms: C13_16  and  C14_17 
REMARK    4  A    between atoms: C16_22  and  O1_23 
ROOT
HETATM    1  C1  UNL     1      23.764   3.316  52.603  1.00  0.00     0.039 C 
HETATM    2  C2  UNL     1      23.800   2.614  51.482  1.00  0.00     0.010 C 
ENDROOT
BRANCH   2   3
HETATM    3  C3  UNL     1      24.330   3.185  50.188  1.00  0.00     0.086 C 
HETATM    4  C4  UNL     1      24.860   4.593  50.485  1.00  0.00     0.135 C 
HETATM    5  N1  UNL     1      24.240   5.631  49.622  1.00  0.00    -0.387 N 
HETATM    6  C5  UNL     1      23.056   5.187  48.974  1.00  0.00     0.057 C 
HETATM    7  H6  UNL     1      24.218   6.603  49.194  1.00  0.00     0.159 HD
HETATM    8  C6  UNL     1      22.510   4.211  49.812  1.00  0.00     0.012 C 
HETATM    9  C10 UNL     1      22.387   5.454  47.674  1.00  0.00     0.146 C 
HETATM   10  C7  UNL     1      23.206   3.153  49.252  1.00  0.00    -0.032 C 
HETATM   11  C8  UNL     1      22.736   2.468  48.050  1.00  0.00     0.028 C 
HETATM   12  C9  UNL     1      22.078   3.125  47.045  1.00  0.00     0.117 C 
HETATM   13  N2  UNL     1      21.635   4.535  47.055  1.00  0.00    -0.271 NA
ENDBRANCH   2   3
BRANCH   2  14
HETATM   14  N3  UNL     1      23.290   1.307  51.679  1.00  0.00    -0.354 N 
HETATM   15  C11 UNL     1      24.210   0.314  52.258  1.00  0.00     0.153 C 
HETATM   16  C12 UNL     1      23.661  -0.016  53.617  1.00  0.00     0.005 C 
HETATM   17  C13 UNL     1      22.399  -0.342  53.533  1.00  0.00     0.027 C 
HETATM   18  C15 UNL     1      21.616  -0.381  52.272  1.00  0.00     0.096 C 
HETATM   19  C16 UNL     1      21.971   0.800  51.393  1.00  0.00     0.224 C 
BRANCH  17  20
HETATM   20  C14 UNL     1      21.707  -0.699  54.809  1.00  0.00     0.413 C 
HETATM   21  F1  UNL     1      21.043   0.390  55.292  1.00  0.00    -0.166 F 
HETATM   22  F2  UNL     1      22.696  -1.021  55.731  1.00  0.00    -0.166 F 
HETATM   23  F3  UNL     1      20.900  -1.788  54.687  1.00  0.00    -0.166 F 
ENDBRANCH  17  20
BRANCH  19  24
HETATM   24  O1  UNL     1      20.983   1.767  51.673  1.00  0.00    -0.376 OA
HETATM   25  H16 UNL     1      20.670   1.678  52.602  1.00  0.00     0.212 HD
ENDBRANCH  19  24
ENDBRANCH   2  14
TORSDOF 4
ENDMDL
