MODEL 1
REMARK VINA RESULT:      -7.0      0.000      0.000
REMARK  5 active torsions:
REMARK  status: ('A' for Active; 'I' for Inactive)
REMARK    1  A    between atoms: O1_2  and  C2_3 
REMARK    2  A    between atoms: C5_6  and  N1_7 
REMARK    3  A    between atoms: N1_7  and  C6_8 
REMARK    4  A    between atoms: C10_14  and  O2_15 
REMARK    5  A    between atoms: C12_17  and  O3_18 
ROOT
HETATM    1  C6  UNL     1      23.179   1.778  51.962  1.00  0.00     0.142 A 
HETATM    2  N2  UNL     1      22.715   3.037  51.878  1.00  0.00    -0.224 NA
HETATM    3  C7  UNL     1      23.351   4.057  52.528  1.00  0.00     0.236 A 
HETATM    4  N3  UNL     1      24.459   3.752  53.256  1.00  0.00    -0.241 NA
HETATM    5  C8  UNL     1      24.921   2.514  53.343  1.00  0.00     0.075 A 
HETATM    6  C9  UNL     1      26.051   2.174  54.080  1.00  0.00     0.072 A 
HETATM    7  C10 UNL     1      26.499   0.861  54.142  1.00  0.00     0.103 A 
HETATM    8  C12 UNL     1      25.866  -0.171  53.492  1.00  0.00     0.102 A 
HETATM    9  C14 UNL     1      24.743   0.148  52.756  1.00  0.00     0.057 A 
HETATM   10  C15 UNL     1      24.297   1.448  52.692  1.00  0.00     0.042 A 
ENDROOT
BRANCH   1  11
HETATM   11  N1  UNL     1      22.430   0.810  51.242  1.00  0.00    -0.340 N 
HETATM   12  H6  UNL     1      22.630   0.315  50.349  1.00  0.00     0.167 HD
BRANCH  11  13
HETATM   13  C5  UNL     1      21.171   0.368  51.739  1.00  0.00     0.039 A 
HETATM   14  C4  UNL     1      20.955  -0.242  52.911  1.00  0.00     0.033 A 
HETATM   15  C3  UNL     1      19.730  -0.721  53.493  1.00  0.00     0.045 A 
HETATM   16  C2  UNL     1      18.541  -0.634  52.938  1.00  0.00     0.096 A 
HETATM   17  S1  UNL     1      18.555   0.171  51.307  1.00  0.00    -0.148 SA
HETATM   18  C16 UNL     1      20.056   0.644  50.822  1.00  0.00     0.068 A 
HETATM   19  H17 UNL     1      17.438   0.161  50.460  1.00  0.00     0.102 HD
BRANCH  16  20
HETATM   20  O1  UNL     1      17.357  -1.083  53.474  1.00  0.00    -0.350 OA
HETATM   21  C1  UNL     1      16.365  -1.783  52.739  1.00  0.00     0.210 C 
ENDBRANCH  16  20
ENDBRANCH  11  13
ENDBRANCH   1  11
BRANCH   8  22
HETATM   22  O3  UNL     1      26.383  -1.430  53.615  1.00  0.00    -0.353 OA
HETATM   23  C13 UNL     1      27.121  -2.147  52.673  1.00  0.00     0.210 C 
ENDBRANCH   8  22
BRANCH   7  24
HETATM   24  O2  UNL     1      27.629   0.637  54.901  1.00  0.00    -0.353 OA
HETATM   25  C11 UNL     1      28.920   0.821  54.392  1.00  0.00     0.210 C 
ENDBRANCH   7  24
TORSDOF 5
ENDMDL
MODEL 2
REMARK VINA RESULT:      -7.0      2.779      7.787
REMARK  5 active torsions:
REMARK  status: ('A' for Active; 'I' for Inactive)
REMARK    1  A    between atoms: O1_2  and  C2_3 
REMARK    2  A    between atoms: C5_6  and  N1_7 
REMARK    3  A    between atoms: N1_7  and  C6_8 
REMARK    4  A    between atoms: C10_14  and  O2_15 
REMARK    5  A    between atoms: C12_17  and  O3_18 
ROOT
HETATM    1  C6  UNL     1      22.883   0.028  53.200  1.00  0.00     0.142 A 
HETATM    2  N2  UNL     1      23.410  -0.593  54.270  1.00  0.00    -0.224 NA
HETATM    3  C7  UNL     1      22.621  -1.336  55.102  1.00  0.00     0.236 A 
HETATM    4  N3  UNL     1      21.295  -1.423  54.808  1.00  0.00    -0.241 NA
HETATM    5  C8  UNL     1      20.769  -0.815  53.756  1.00  0.00     0.075 A 
HETATM    6  C9  UNL     1      19.418  -0.886  53.433  1.00  0.00     0.072 A 
HETATM    7  C10 UNL     1      18.911  -0.231  52.319  1.00  0.00     0.103 A 
HETATM    8  C12 UNL     1      19.697   0.519  51.477  1.00  0.00     0.102 A 
HETATM    9  C14 UNL     1      21.040   0.601  51.782  1.00  0.00     0.057 A 
HETATM   10  C15 UNL     1      21.546  -0.047  52.885  1.00  0.00     0.042 A 
ENDROOT
BRANCH   1  11
HETATM   11  N1  UNL     1      23.806   0.768  52.416  1.00  0.00    -0.340 N 
HETATM   12  H6  UNL     1      23.660   1.410  51.610  1.00  0.00     0.167 HD
BRANCH  11  13
HETATM   13  C5  UNL     1      25.200   0.691  52.694  1.00  0.00     0.039 A 
HETATM   14  C4  UNL     1      25.980  -0.385  52.531  1.00  0.00     0.033 A 
HETATM   15  C3  UNL     1      27.385  -0.557  52.782  1.00  0.00     0.045 A 
HETATM   16  C2  UNL     1      28.193   0.373  53.243  1.00  0.00     0.096 A 
HETATM   17  S1  UNL     1      27.370   1.965  53.554  1.00  0.00    -0.148 SA
HETATM   18  C16 UNL     1      25.761   1.950  53.202  1.00  0.00     0.068 A 
HETATM   19  H17 UNL     1      27.998   3.007  54.250  1.00  0.00     0.102 HD
BRANCH  16  20
HETATM   20  O1  UNL     1      29.538   0.234  53.490  1.00  0.00    -0.350 OA
HETATM   21  C1  UNL     1      30.173  -1.004  53.773  1.00  0.00     0.210 C 
ENDBRANCH  16  20
ENDBRANCH  11  13
ENDBRANCH   1  11
BRANCH   8  22
HETATM   22  O3  UNL     1      19.105   1.127  50.406  1.00  0.00    -0.353 OA
HETATM   23  C13 UNL     1      19.726   1.768  49.334  1.00  0.00     0.210 C 
ENDBRANCH   8  22
BRANCH   7  24
HETATM   24  O2  UNL     1      17.558  -0.370  52.092  1.00  0.00    -0.353 OA
HETATM   25  C11 UNL     1      16.776  -1.303  52.783  1.00  0.00     0.210 C 
ENDBRANCH   7  24
TORSDOF 5
ENDMDL
MODEL 3
REMARK VINA RESULT:      -6.9      3.304      4.873
REMARK  5 active torsions:
REMARK  status: ('A' for Active; 'I' for Inactive)
REMARK    1  A    between atoms: O1_2  and  C2_3 
REMARK    2  A    between atoms: C5_6  and  N1_7 
REMARK    3  A    between atoms: N1_7  and  C6_8 
REMARK    4  A    between atoms: C10_14  and  O2_15 
REMARK    5  A    between atoms: C12_17  and  O3_18 
ROOT
HETATM    1  C6  UNL     1      23.055   1.744  52.684  1.00  0.00     0.142 A 
HETATM    2  N2  UNL     1      21.992   0.958  52.439  1.00  0.00    -0.224 NA
HETATM    3  C7  UNL     1      22.044  -0.383  52.695  1.00  0.00     0.236 A 
HETATM    4  N3  UNL     1      23.203  -0.887  53.202  1.00  0.00    -0.241 NA
HETATM    5  C8  UNL     1      24.253  -0.119  53.445  1.00  0.00     0.075 A 
HETATM    6  C9  UNL     1      25.449  -0.608  53.962  1.00  0.00     0.072 A 
HETATM    7  C10 UNL     1      26.525   0.236  54.202  1.00  0.00     0.103 A 
HETATM    8  C12 UNL     1      26.481   1.586  53.947  1.00  0.00     0.102 A 
HETATM    9  C14 UNL     1      25.303   2.088  53.434  1.00  0.00     0.057 A 
HETATM   10  C15 UNL     1      24.235   1.255  53.195  1.00  0.00     0.042 A 
ENDROOT
BRANCH   1  11
HETATM   11  N1  UNL     1      22.874   3.118  52.375  1.00  0.00    -0.340 N 
HETATM   12  H6  UNL     1      22.855   3.960  52.986  1.00  0.00     0.167 HD
BRANCH  11  13
HETATM   13  C5  UNL     1      22.675   3.526  51.026  1.00  0.00     0.039 A 
HETATM   14  C4  UNL     1      23.360   3.092  49.961  1.00  0.00     0.033 A 
HETATM   15  C3  UNL     1      23.233   3.443  48.572  1.00  0.00     0.045 A 
HETATM   16  C2  UNL     1      22.366   4.303  48.083  1.00  0.00     0.096 A 
HETATM   17  S1  UNL     1      21.291   5.052  49.345  1.00  0.00    -0.148 SA
HETATM   18  C16 UNL     1      21.601   4.516  50.871  1.00  0.00     0.068 A 
HETATM   19  H17 UNL     1      20.463   6.147  49.065  1.00  0.00     0.102 HD
BRANCH  16  20
HETATM   20  O1  UNL     1      22.225   4.655  46.762  1.00  0.00    -0.350 OA
HETATM   21  C1  UNL     1      21.858   3.750  45.731  1.00  0.00     0.210 C 
ENDBRANCH  16  20
ENDBRANCH  11  13
ENDBRANCH   1  11
BRANCH   8  22
HETATM   22  O3  UNL     1      27.593   2.334  54.216  1.00  0.00    -0.353 OA
HETATM   23  C13 UNL     1      28.669   2.603  53.370  1.00  0.00     0.210 C 
ENDBRANCH   8  22
BRANCH   7  24
HETATM   24  O2  UNL     1      27.661  -0.354  54.716  1.00  0.00    -0.353 OA
HETATM   25  C11 UNL     1      28.649  -0.913  53.897  1.00  0.00     0.210 C 
ENDBRANCH   7  24
TORSDOF 5
ENDMDL
MODEL 4
REMARK VINA RESULT:      -6.8      2.143      2.642
REMARK  5 active torsions:
REMARK  status: ('A' for Active; 'I' for Inactive)
REMARK    1  A    between atoms: O1_2  and  C2_3 
REMARK    2  A    between atoms: C5_6  and  N1_7 
REMARK    3  A    between atoms: N1_7  and  C6_8 
REMARK    4  A    between atoms: C10_14  and  O2_15 
REMARK    5  A    between atoms: C12_17  and  O3_18 
ROOT
HETATM    1  C6  UNL     1      24.462   2.666  52.101  1.00  0.00     0.142 A 
HETATM    2  N2  UNL     1      24.766   3.484  51.077  1.00  0.00    -0.224 NA
HETATM    3  C7  UNL     1      25.969   3.381  50.438  1.00  0.00     0.236 A 
HETATM    4  N3  UNL     1      26.839   2.429  50.873  1.00  0.00    -0.241 NA
HETATM    5  C8  UNL     1      26.546   1.620  51.880  1.00  0.00     0.075 A 
HETATM    6  C9  UNL     1      27.416   0.639  52.344  1.00  0.00     0.072 A 
HETATM    7  C10 UNL     1      27.066  -0.187  53.404  1.00  0.00     0.103 A 
HETATM    8  C12 UNL     1      25.858  -0.090  54.053  1.00  0.00     0.102 A 
HETATM    9  C14 UNL     1      24.983   0.877  53.605  1.00  0.00     0.057 A 
HETATM   10  C15 UNL     1      25.326   1.697  52.556  1.00  0.00     0.042 A 
ENDROOT
BRANCH   1  11
HETATM   11  N1  UNL     1      23.183   2.873  52.680  1.00  0.00    -0.340 N 
HETATM   12  H6  UNL     1      22.900   3.343  53.564  1.00  0.00     0.167 HD
BRANCH  11  13
HETATM   13  C5  UNL     1      22.015   2.396  52.021  1.00  0.00     0.039 A 
HETATM   14  C4  UNL     1      21.916   1.264  51.312  1.00  0.00     0.033 A 
HETATM   15  C3  UNL     1      20.789   0.704  50.616  1.00  0.00     0.045 A 
HETATM   16  C2  UNL     1      19.590   1.241  50.555  1.00  0.00     0.096 A 
HETATM   17  S1  UNL     1      19.451   2.817  51.454  1.00  0.00    -0.148 SA
HETATM   18  C16 UNL     1      20.855   3.282  52.181  1.00  0.00     0.068 A 
HETATM   19  H17 UNL     1      18.334   3.653  51.326  1.00  0.00     0.102 HD
BRANCH  16  20
HETATM   20  O1  UNL     1      18.499   0.726  49.898  1.00  0.00    -0.350 OA
HETATM   21  C1  UNL     1      17.483  -0.045  50.522  1.00  0.00     0.210 C 
ENDBRANCH  16  20
ENDBRANCH  11  13
ENDBRANCH   1  11
BRANCH   8  22
HETATM   22  O3  UNL     1      25.606  -0.949  55.086  1.00  0.00    -0.353 OA
HETATM   23  C13 UNL     1      24.366  -1.333  55.597  1.00  0.00     0.210 C 
ENDBRANCH   8  22
BRANCH   7  24
HETATM   24  O2  UNL     1      28.004  -1.125  53.782  1.00  0.00    -0.353 OA
HETATM   25  C11 UNL     1      29.375  -0.846  53.802  1.00  0.00     0.210 C 
ENDBRANCH   7  24
TORSDOF 5
ENDMDL
MODEL 5
REMARK VINA RESULT:      -6.7      4.794      7.864
REMARK  5 active torsions:
REMARK  status: ('A' for Active; 'I' for Inactive)
REMARK    1  A    between atoms: O1_2  and  C2_3 
REMARK    2  A    between atoms: C5_6  and  N1_7 
REMARK    3  A    between atoms: N1_7  and  C6_8 
REMARK    4  A    between atoms: C10_14  and  O2_15 
REMARK    5  A    between atoms: C12_17  and  O3_18 
ROOT
HETATM    1  C6  UNL     1      25.826   2.617  50.853  1.00  0.00     0.142 A 
HETATM    2  N2  UNL     1      27.070   2.716  51.353  1.00  0.00    -0.224 NA
HETATM    3  C7  UNL     1      27.390   2.127  52.544  1.00  0.00     0.236 A 
HETATM    4  N3  UNL     1      26.409   1.444  53.197  1.00  0.00    -0.241 NA
HETATM    5  C8  UNL     1      25.182   1.343  52.709  1.00  0.00     0.075 A 
HETATM    6  C9  UNL     1      24.163   0.653  53.355  1.00  0.00     0.072 A 
HETATM    7  C10 UNL     1      22.890   0.572  52.806  1.00  0.00     0.103 A 
HETATM    8  C12 UNL     1      22.560   1.163  51.609  1.00  0.00     0.102 A 
HETATM    9  C14 UNL     1      23.559   1.852  50.955  1.00  0.00     0.057 A 
HETATM   10  C15 UNL     1      24.821   1.933  51.496  1.00  0.00     0.042 A 
ENDROOT
BRANCH   1  11
HETATM   11  N1  UNL     1      25.622   3.273  49.610  1.00  0.00    -0.340 N 
HETATM   12  H6  UNL     1      25.122   2.969  48.749  1.00  0.00     0.167 HD
BRANCH  11  13
HETATM   13  C5  UNL     1      26.151   4.577  49.396  1.00  0.00     0.039 A 
HETATM   14  C4  UNL     1      27.257   4.877  48.704  1.00  0.00     0.033 A 
HETATM   15  C3  UNL     1      27.865   6.152  48.437  1.00  0.00     0.045 A 
HETATM   16  C2  UNL     1      27.406   7.313  48.851  1.00  0.00     0.096 A 
HETATM   17  S1  UNL     1      25.880   7.186  49.832  1.00  0.00    -0.148 SA
HETATM   18  C16 UNL     1      25.351   5.638  50.023  1.00  0.00     0.068 A 
HETATM   19  H17 UNL     1      25.360   8.273  50.548  1.00  0.00     0.102 HD
BRANCH  16  20
HETATM   20  O1  UNL     1      27.968   8.544  48.608  1.00  0.00    -0.350 OA
HETATM   21  C1  UNL     1      29.260   8.932  49.050  1.00  0.00     0.210 C 
ENDBRANCH  16  20
ENDBRANCH  11  13
ENDBRANCH   1  11
BRANCH   8  22
HETATM   22  O3  UNL     1      21.279   1.028  51.151  1.00  0.00    -0.353 OA
HETATM   23  C13 UNL     1      20.234   1.947  51.248  1.00  0.00     0.210 C 
ENDBRANCH   8  22
BRANCH   7  24
HETATM   24  O2  UNL     1      21.955  -0.138  53.530  1.00  0.00    -0.353 OA
HETATM   25  C11 UNL     1      22.295  -0.869  54.675  1.00  0.00     0.210 C 
ENDBRANCH   7  24
TORSDOF 5
ENDMDL
MODEL 6
REMARK VINA RESULT:      -6.6      2.826      6.783
REMARK  5 active torsions:
REMARK  status: ('A' for Active; 'I' for Inactive)
REMARK    1  A    between atoms: O1_2  and  C2_3 
REMARK    2  A    between atoms: C5_6  and  N1_7 
REMARK    3  A    between atoms: N1_7  and  C6_8 
REMARK    4  A    between atoms: C10_14  and  O2_15 
REMARK    5  A    between atoms: C12_17  and  O3_18 
ROOT
HETATM    1  C6  UNL     1      24.164   2.538  51.241  1.00  0.00     0.142 A 
HETATM    2  N2  UNL     1      24.375   3.044  50.013  1.00  0.00    -0.224 NA
HETATM    3  C7  UNL     1      23.462   2.854  49.015  1.00  0.00     0.236 A 
HETATM    4  N3  UNL     1      22.342   2.138  49.309  1.00  0.00    -0.241 NA
HETATM    5  C8  UNL     1      22.128   1.637  50.516  1.00  0.00     0.075 A 
HETATM    6  C9  UNL     1      20.993   0.902  50.843  1.00  0.00     0.072 A 
HETATM    7  C10 UNL     1      20.810   0.395  52.123  1.00  0.00     0.103 A 
HETATM    8  C12 UNL     1      21.724   0.582  53.132  1.00  0.00     0.102 A 
HETATM    9  C14 UNL     1      22.856   1.309  52.825  1.00  0.00     0.057 A 
HETATM   10  C15 UNL     1      23.040   1.813  51.559  1.00  0.00     0.042 A 
ENDROOT
BRANCH   1  11
HETATM   11  N1  UNL     1      25.187   2.806  52.188  1.00  0.00    -0.340 N 
HETATM   12  H6  UNL     1      25.454   3.684  52.678  1.00  0.00     0.167 HD
BRANCH  11  13
HETATM   13  C5  UNL     1      26.057   1.762  52.613  1.00  0.00     0.039 A 
HETATM   14  C4  UNL     1      26.252   0.594  51.989  1.00  0.00     0.033 A 
HETATM   15  C3  UNL     1      27.101  -0.512  52.338  1.00  0.00     0.045 A 
HETATM   16  C2  UNL     1      27.881  -0.566  53.396  1.00  0.00     0.096 A 
HETATM   17  S1  UNL     1      27.804   0.926  54.435  1.00  0.00    -0.148 SA
HETATM   18  C16 UNL     1      26.771   2.072  53.859  1.00  0.00     0.068 A 
HETATM   19  H17 UNL     1      28.380   0.977  55.711  1.00  0.00     0.102 HD
BRANCH  16  20
HETATM   20  O1  UNL     1      28.702  -1.610  53.751  1.00  0.00    -0.350 OA
HETATM   21  C1  UNL     1      28.800  -2.828  53.029  1.00  0.00     0.210 C 
ENDBRANCH  16  20
ENDBRANCH  11  13
ENDBRANCH   1  11
BRANCH   8  22
HETATM   22  O3  UNL     1      21.455   0.044  54.359  1.00  0.00    -0.353 OA
HETATM   23  C13 UNL     1      21.967  -1.131  54.910  1.00  0.00     0.210 C 
ENDBRANCH   8  22
BRANCH   7  24
HETATM   24  O2  UNL     1      19.649  -0.318  52.337  1.00  0.00    -0.353 OA
HETATM   25  C11 UNL     1      18.390   0.178  51.979  1.00  0.00     0.210 C 
ENDBRANCH   7  24
TORSDOF 5
ENDMDL
MODEL 7
REMARK VINA RESULT:      -6.4      3.164      4.293
REMARK  5 active torsions:
REMARK  status: ('A' for Active; 'I' for Inactive)
REMARK    1  A    between atoms: O1_2  and  C2_3 
REMARK    2  A    between atoms: C5_6  and  N1_7 
REMARK    3  A    between atoms: N1_7  and  C6_8 
REMARK    4  A    between atoms: C10_14  and  O2_15 
REMARK    5  A    between atoms: C12_17  and  O3_18 
ROOT
HETATM    1  C6  UNL     1      22.690  -0.427  52.990  1.00  0.00     0.142 A 
HETATM    2  N2  UNL     1      21.874  -1.160  53.768  1.00  0.00    -0.224 NA
HETATM    3  C7  UNL     1      22.294  -1.611  54.987  1.00  0.00     0.236 A 
HETATM    4  N3  UNL     1      23.557  -1.292  55.380  1.00  0.00    -0.241 NA
HETATM    5  C8  UNL     1      24.366  -0.570  54.619  1.00  0.00     0.075 A 
HETATM    6  C9  UNL     1      25.661  -0.231  54.996  1.00  0.00     0.072 A 
HETATM    7  C10 UNL     1      26.475   0.529  54.165  1.00  0.00     0.103 A 
HETATM    8  C12 UNL     1      26.061   0.985  52.937  1.00  0.00     0.102 A 
HETATM    9  C14 UNL     1      24.778   0.658  52.547  1.00  0.00     0.057 A 
HETATM   10  C15 UNL     1      23.970  -0.094  53.368  1.00  0.00     0.042 A 
ENDROOT
BRANCH   1  11
HETATM   11  N1  UNL     1      22.136  -0.021  51.748  1.00  0.00    -0.340 N 
HETATM   12  H6  UNL     1      21.877  -0.568  50.901  1.00  0.00     0.167 HD
BRANCH  11  13
HETATM   13  C5  UNL     1      21.846   1.353  51.512  1.00  0.00     0.039 A 
HETATM   14  C4  UNL     1      21.273   2.199  52.377  1.00  0.00     0.033 A 
HETATM   15  C3  UNL     1      20.944   3.591  52.229  1.00  0.00     0.045 A 
HETATM   16  C2  UNL     1      21.164   4.314  51.153  1.00  0.00     0.096 A 
HETATM   17  S1  UNL     1      21.951   3.386  49.800  1.00  0.00    -0.148 SA
HETATM   18  C16 UNL     1      22.244   1.808  50.172  1.00  0.00     0.068 A 
HETATM   19  H17 UNL     1      22.064   3.907  48.505  1.00  0.00     0.102 HD
BRANCH  16  20
HETATM   20  O1  UNL     1      20.859   5.644  50.988  1.00  0.00    -0.350 OA
HETATM   21  C1  UNL     1      21.826   6.680  50.904  1.00  0.00     0.210 C 
ENDBRANCH  16  20
ENDBRANCH  11  13
ENDBRANCH   1  11
BRANCH   8  22
HETATM   22  O3  UNL     1      26.934   1.725  52.191  1.00  0.00    -0.353 OA
HETATM   23  C13 UNL     1      26.642   2.583  51.131  1.00  0.00     0.210 C 
ENDBRANCH   8  22
BRANCH   7  24
HETATM   24  O2  UNL     1      27.740   0.807  54.638  1.00  0.00    -0.353 OA
HETATM   25  C11 UNL     1      28.787  -0.120  54.565  1.00  0.00     0.210 C 
ENDBRANCH   7  24
TORSDOF 5
ENDMDL
MODEL 8
REMARK VINA RESULT:      -6.4      3.571      6.020
REMARK  5 active torsions:
REMARK  status: ('A' for Active; 'I' for Inactive)
REMARK    1  A    between atoms: O1_2  and  C2_3 
REMARK    2  A    between atoms: C5_6  and  N1_7 
REMARK    3  A    between atoms: N1_7  and  C6_8 
REMARK    4  A    between atoms: C10_14  and  O2_15 
REMARK    5  A    between atoms: C12_17  and  O3_18 
ROOT
HETATM    1  C6  UNL     1      23.677   2.883  52.633  1.00  0.00     0.142 A 
HETATM    2  N2  UNL     1      22.349   2.760  52.461  1.00  0.00    -0.224 NA
HETATM    3  C7  UNL     1      21.752   1.532  52.512  1.00  0.00     0.236 A 
HETATM    4  N3  UNL     1      22.546   0.450  52.741  1.00  0.00    -0.241 NA
HETATM    5  C8  UNL     1      23.854   0.565  52.911  1.00  0.00     0.075 A 
HETATM    6  C9  UNL     1      24.688  -0.524  53.145  1.00  0.00     0.072 A 
HETATM    7  C10 UNL     1      26.055  -0.356  53.318  1.00  0.00     0.103 A 
HETATM    8  C12 UNL     1      26.664   0.875  53.268  1.00  0.00     0.102 A 
HETATM    9  C14 UNL     1      25.852   1.966  53.036  1.00  0.00     0.057 A 
HETATM   10  C15 UNL     1      24.497   1.804  52.865  1.00  0.00     0.042 A 
ENDROOT
BRANCH   1  11
HETATM   11  N1  UNL     1      24.175   4.211  52.557  1.00  0.00    -0.340 N 
HETATM   12  H6  UNL     1      24.591   4.829  53.283  1.00  0.00     0.167 HD
BRANCH  11  13
HETATM   13  C5  UNL     1      24.149   4.912  51.318  1.00  0.00     0.039 A 
HETATM   14  C4  UNL     1      24.870   4.619  50.229  1.00  0.00     0.033 A 
HETATM   15  C3  UNL     1      24.911   5.264  48.945  1.00  0.00     0.045 A 
HETATM   16  C2  UNL     1      24.202   6.317  48.601  1.00  0.00     0.096 A 
HETATM   17  S1  UNL     1      23.115   6.928  49.926  1.00  0.00    -0.148 SA
HETATM   18  C16 UNL     1      23.220   6.050  51.315  1.00  0.00     0.068 A 
HETATM   19  H17 UNL     1      22.453   8.160  49.839  1.00  0.00     0.102 HD
BRANCH  16  20
HETATM   20  O1  UNL     1      24.223   6.950  47.381  1.00  0.00    -0.350 OA
HETATM   21  C1  UNL     1      25.082   8.034  47.060  1.00  0.00     0.210 C 
ENDBRANCH  16  20
ENDBRANCH  11  13
ENDBRANCH   1  11
BRANCH   8  22
HETATM   22  O3  UNL     1      28.017   0.938  53.449  1.00  0.00    -0.353 OA
HETATM   23  C13 UNL     1      28.728   0.810  54.643  1.00  0.00     0.210 C 
ENDBRANCH   8  22
BRANCH   7  24
HETATM   24  O2  UNL     1      26.787  -1.503  53.545  1.00  0.00    -0.353 OA
HETATM   25  C11 UNL     1      27.176  -2.360  52.508  1.00  0.00     0.210 C 
ENDBRANCH   7  24
TORSDOF 5
ENDMDL
MODEL 9
REMARK VINA RESULT:      -6.3      4.377      6.955
REMARK  5 active torsions:
REMARK  status: ('A' for Active; 'I' for Inactive)
REMARK    1  A    between atoms: O1_2  and  C2_3 
REMARK    2  A    between atoms: C5_6  and  N1_7 
REMARK    3  A    between atoms: N1_7  and  C6_8 
REMARK    4  A    between atoms: C10_14  and  O2_15 
REMARK    5  A    between atoms: C12_17  and  O3_18 
ROOT
HETATM    1  C6  UNL     1      23.880   3.848  50.831  1.00  0.00     0.142 A 
HETATM    2  N2  UNL     1      22.818   3.998  51.643  1.00  0.00    -0.224 NA
HETATM    3  C7  UNL     1      22.392   5.243  52.009  1.00  0.00     0.236 A 
HETATM    4  N3  UNL     1      23.077   6.315  51.525  1.00  0.00    -0.241 NA
HETATM    5  C8  UNL     1      24.123   6.175  50.726  1.00  0.00     0.075 A 
HETATM    6  C9  UNL     1      24.841   7.252  50.218  1.00  0.00     0.072 A 
HETATM    7  C10 UNL     1      25.933   7.058  49.381  1.00  0.00     0.103 A 
HETATM    8  C12 UNL     1      26.368   5.809  49.009  1.00  0.00     0.102 A 
HETATM    9  C14 UNL     1      25.668   4.728  49.503  1.00  0.00     0.057 A 
HETATM   10  C15 UNL     1      24.586   4.917  50.332  1.00  0.00     0.042 A 
ENDROOT
BRANCH   1  11
HETATM   11  N1  UNL     1      24.222   2.504  50.525  1.00  0.00    -0.340 N 
HETATM   12  H6  UNL     1      24.001   1.912  49.699  1.00  0.00     0.167 HD
BRANCH  11  13
HETATM   13  C5  UNL     1      25.001   1.741  51.441  1.00  0.00     0.039 A 
HETATM   14  C4  UNL     1      26.337   1.734  51.527  1.00  0.00     0.033 A 
HETATM   15  C3  UNL     1      27.204   1.003  52.410  1.00  0.00     0.045 A 
HETATM   16  C2  UNL     1      26.806   0.165  53.343  1.00  0.00     0.096 A 
HETATM   17  S1  UNL     1      24.998  -0.013  53.440  1.00  0.00    -0.148 SA
HETATM   18  C16 UNL     1      24.189   0.910  52.340  1.00  0.00     0.068 A 
HETATM   19  H17 UNL     1      24.387  -1.015  54.205  1.00  0.00     0.102 HD
BRANCH  16  20
HETATM   20  O1  UNL     1      27.614  -0.545  54.199  1.00  0.00    -0.350 OA
HETATM   21  C1  UNL     1      28.735   0.004  54.876  1.00  0.00     0.210 C 
ENDBRANCH  16  20
ENDBRANCH  11  13
ENDBRANCH   1  11
BRANCH   8  22
HETATM   22  O3  UNL     1      27.452   5.720  48.182  1.00  0.00    -0.353 OA
HETATM   23  C13 UNL     1      28.743   5.300  48.504  1.00  0.00     0.210 C 
ENDBRANCH   8  22
BRANCH   7  24
HETATM   24  O2  UNL     1      26.571   8.196  48.936  1.00  0.00    -0.353 OA
HETATM   25  C11 UNL     1      27.378   8.977  49.771  1.00  0.00     0.210 C 
ENDBRANCH   7  24
TORSDOF 5
ENDMDL
