MODEL 1
REMARK VINA RESULT:      -8.4      0.000      0.000
REMARK  5 active torsions:
REMARK  status: ('A' for Active; 'I' for Inactive)
REMARK    1  A    between atoms: C2_2  and  C3_3 
REMARK    2  A    between atoms: N2_9  and  C8_10 
REMARK    3  A    between atoms: C8_10  and  C9_11 
REMARK    4  A    between atoms: C11_13  and  N3_14 
REMARK    5  A    between atoms: N3_14  and  C12_15 
ROOT
HETATM    1  C9  UNL     1      24.880   1.964  52.998  1.00  0.00     0.061 A 
HETATM    2  C10 UNL     1      24.412   2.808  52.091  1.00  0.00     0.105 A 
HETATM    3  C11 UNL     1      23.950   3.782  51.112  1.00  0.00     0.154 A 
HETATM    4  N4  UNL     1      22.921   3.534  50.367  1.00  0.00    -0.221 NA
HETATM    5  C19 UNL     1      22.241   2.299  50.513  1.00  0.00     0.252 A 
HETATM    6  N5  UNL     1      22.614   1.393  51.375  1.00  0.00    -0.182 NA
HETATM    7  N6  UNL     1      23.724   1.582  52.224  1.00  0.00    -0.133 NA
ENDROOT
BRANCH   1   8
HETATM    8  C8  UNL     1      25.780   1.468  54.069  1.00  0.00     0.173 C 
BRANCH   8   9
HETATM    9  N2  UNL     1      26.961   0.972  53.505  1.00  0.00    -0.398 N 
HETATM   10  C3  UNL     1      27.360  -0.336  53.788  1.00  0.00     0.130 C 
HETATM   11  C4  UNL     1      28.795  -0.663  53.705  1.00  0.00     0.298 C 
HETATM   12  N1  UNL     1      29.698   0.440  53.612  1.00  0.00     0.085 N 
HETATM   13  C5  UNL     1      29.379   1.558  54.457  1.00  0.00     0.271 C 
HETATM   14  H7  UNL     1      30.664   0.136  53.880  1.00  0.00     0.315 HD
HETATM   15  C6  UNL     1      28.673   2.585  53.579  1.00  0.00     0.049 C 
HETATM   16  C7  UNL     1      27.739   1.786  52.660  1.00  0.00     0.119 C 
BRANCH  10  17
HETATM   17  C2  UNL     1      26.620  -1.244  52.833  1.00  0.00    -0.011 C 
HETATM   18  C1  UNL     1      27.331  -2.337  52.530  1.00  0.00     0.009 C 
ENDBRANCH  10  17
ENDBRANCH   8   9
ENDBRANCH   1   8
BRANCH   3  19
HETATM   19  N3  UNL     1      24.586   5.022  50.932  1.00  0.00    -0.339 N 
HETATM   20  H16 UNL     1      24.230   5.839  51.507  1.00  0.00     0.167 HD
BRANCH  19  21
HETATM   21  C12 UNL     1      25.668   5.250  50.044  1.00  0.00     0.034 A 
HETATM   22  C13 UNL     1      26.556   4.340  49.560  1.00  0.00     0.029 A 
HETATM   23  C14 UNL     1      27.584   4.628  48.691  1.00  0.00     0.003 A 
HETATM   24  C15 UNL     1      27.764   5.919  48.253  1.00  0.00     0.007 A 
HETATM   25  C16 UNL     1      26.898   6.895  48.702  1.00  0.00    -0.060 A 
HETATM   26  C17 UNL     1      27.029   8.329  48.269  1.00  0.00     0.048 C 
HETATM   27  C18 UNL     1      25.896   6.542  49.567  1.00  0.00     0.036 A 
ENDBRANCH  19  21
ENDBRANCH   3  19
TORSDOF 5
ENDMDL
MODEL 2
REMARK VINA RESULT:      -8.3      2.241      7.354
REMARK  5 active torsions:
REMARK  status: ('A' for Active; 'I' for Inactive)
REMARK    1  A    between atoms: C2_2  and  C3_3 
REMARK    2  A    between atoms: N2_9  and  C8_10 
REMARK    3  A    between atoms: C8_10  and  C9_11 
REMARK    4  A    between atoms: C11_13  and  N3_14 
REMARK    5  A    between atoms: N3_14  and  C12_15 
ROOT
HETATM    1  C9  UNL     1      26.589   2.355  50.891  1.00  0.00     0.061 A 
HETATM    2  C10 UNL     1      26.665   1.456  51.860  1.00  0.00     0.105 A 
HETATM    3  C11 UNL     1      26.697   0.430  52.893  1.00  0.00     0.154 A 
HETATM    4  N4  UNL     1      27.536   0.507  53.876  1.00  0.00    -0.221 NA
HETATM    5  C19 UNL     1      28.432   1.605  53.939  1.00  0.00     0.252 A 
HETATM    6  N5  UNL     1      28.444   2.550  53.039  1.00  0.00    -0.182 NA
HETATM    7  N6  UNL     1      27.564   2.542  51.937  1.00  0.00    -0.133 NA
ENDROOT
BRANCH   1   8
HETATM    8  C8  UNL     1      26.084   2.981  49.643  1.00  0.00     0.173 C 
BRANCH   8   9
HETATM    9  N2  UNL     1      24.915   3.703  49.913  1.00  0.00    -0.398 N 
HETATM   10  C3  UNL     1      24.980   4.831  50.734  1.00  0.00     0.130 C 
HETATM   11  C4  UNL     1      23.766   5.229  51.471  1.00  0.00     0.298 C 
HETATM   12  N1  UNL     1      22.699   4.280  51.508  1.00  0.00     0.085 N 
HETATM   13  C5  UNL     1      23.107   2.916  51.704  1.00  0.00     0.271 C 
HETATM   14  H7  UNL     1      22.045   4.507  52.294  1.00  0.00     0.315 HD
HETATM   15  C6  UNL     1      23.108   2.255  50.331  1.00  0.00     0.049 C 
HETATM   16  C7  UNL     1      23.686   3.294  49.361  1.00  0.00     0.119 C 
BRANCH  10  17
HETATM   17  C2  UNL     1      25.397   5.992  49.863  1.00  0.00    -0.011 C 
HETATM   18  C1  UNL     1      25.276   7.164  50.499  1.00  0.00     0.009 C 
ENDBRANCH  10  17
ENDBRANCH   8   9
ENDBRANCH   1   8
BRANCH   3  19
HETATM   19  N3  UNL     1      25.829  -0.674  52.879  1.00  0.00    -0.339 N 
HETATM   20  H16 UNL     1      26.105  -1.502  52.276  1.00  0.00     0.167 HD
BRANCH  19  21
HETATM   21  C12 UNL     1      24.621  -0.759  53.616  1.00  0.00     0.034 A 
HETATM   22  C13 UNL     1      24.458  -1.155  54.908  1.00  0.00     0.029 A 
HETATM   23  C14 UNL     1      23.252  -1.207  55.569  1.00  0.00     0.003 A 
HETATM   24  C15 UNL     1      22.100  -0.840  54.915  1.00  0.00     0.007 A 
HETATM   25  C16 UNL     1      22.190  -0.426  53.602  1.00  0.00    -0.060 A 
HETATM   26  C17 UNL     1      20.977  -0.009  52.817  1.00  0.00     0.048 C 
HETATM   27  C18 UNL     1      23.422  -0.397  53.001  1.00  0.00     0.036 A 
ENDBRANCH  19  21
ENDBRANCH   3  19
TORSDOF 5
ENDMDL
MODEL 3
REMARK VINA RESULT:      -8.2      2.516      4.322
REMARK  5 active torsions:
REMARK  status: ('A' for Active; 'I' for Inactive)
REMARK    1  A    between atoms: C2_2  and  C3_3 
REMARK    2  A    between atoms: N2_9  and  C8_10 
REMARK    3  A    between atoms: C8_10  and  C9_11 
REMARK    4  A    between atoms: C11_13  and  N3_14 
REMARK    5  A    between atoms: N3_14  and  C12_15 
ROOT
HETATM    1  C9  UNL     1      24.421  -0.250  53.094  1.00  0.00     0.061 A 
HETATM    2  C10 UNL     1      23.170   0.182  53.120  1.00  0.00     0.105 A 
HETATM    3  C11 UNL     1      21.811   0.704  53.100  1.00  0.00     0.154 A 
HETATM    4  N4  UNL     1      20.896   0.199  53.863  1.00  0.00    -0.221 NA
HETATM    5  C19 UNL     1      21.228  -0.876  54.726  1.00  0.00     0.252 A 
HETATM    6  N5  UNL     1      22.431  -1.381  54.783  1.00  0.00    -0.182 NA
HETATM    7  N6  UNL     1      23.485  -0.889  53.985  1.00  0.00    -0.133 NA
ENDROOT
BRANCH   1   8
HETATM    8  C8  UNL     1      25.841  -0.301  52.664  1.00  0.00     0.173 C 
BRANCH   8   9
HETATM    9  N2  UNL     1      26.550   0.763  53.236  1.00  0.00    -0.398 N 
HETATM   10  C3  UNL     1      27.289   1.615  52.413  1.00  0.00     0.130 C 
HETATM   11  C4  UNL     1      28.442   2.324  52.997  1.00  0.00     0.298 C 
HETATM   12  N1  UNL     1      28.884   1.878  54.281  1.00  0.00     0.085 N 
HETATM   13  C5  UNL     1      28.896   0.451  54.456  1.00  0.00     0.271 C 
HETATM   14  H7  UNL     1      29.864   2.204  54.456  1.00  0.00     0.315 HD
HETATM   15  C6  UNL     1      27.626   0.090  55.217  1.00  0.00     0.049 C 
HETATM   16  C7  UNL     1      26.515   0.970  54.628  1.00  0.00     0.119 C 
BRANCH  10  17
HETATM   17  C2  UNL     1      26.332   2.651  51.870  1.00  0.00    -0.011 C 
HETATM   18  C1  UNL     1      26.472   2.818  50.549  1.00  0.00     0.009 C 
ENDBRANCH  10  17
ENDBRANCH   8   9
ENDBRANCH   1   8
BRANCH   3  19
HETATM   19  N3  UNL     1      21.431   1.770  52.266  1.00  0.00    -0.339 N 
HETATM   20  H16 UNL     1      20.884   2.564  52.710  1.00  0.00     0.167 HD
BRANCH  19  21
HETATM   21  C12 UNL     1      21.732   1.858  50.884  1.00  0.00     0.034 A 
HETATM   22  C13 UNL     1      21.366   0.999  49.894  1.00  0.00     0.029 A 
HETATM   23  C14 UNL     1      21.688   1.147  48.564  1.00  0.00     0.003 A 
HETATM   24  C15 UNL     1      22.433   2.229  48.160  1.00  0.00     0.007 A 
HETATM   25  C16 UNL     1      22.839   3.143  49.111  1.00  0.00    -0.060 A 
HETATM   26  C17 UNL     1      23.658   4.352  48.750  1.00  0.00     0.048 C 
HETATM   27  C18 UNL     1      22.486   2.937  50.419  1.00  0.00     0.036 A 
ENDBRANCH  19  21
ENDBRANCH   3  19
TORSDOF 5
ENDMDL
MODEL 4
REMARK VINA RESULT:      -8.2      2.542      6.414
REMARK  5 active torsions:
REMARK  status: ('A' for Active; 'I' for Inactive)
REMARK    1  A    between atoms: C2_2  and  C3_3 
REMARK    2  A    between atoms: N2_9  and  C8_10 
REMARK    3  A    between atoms: C8_10  and  C9_11 
REMARK    4  A    between atoms: C11_13  and  N3_14 
REMARK    5  A    between atoms: N3_14  and  C12_15 
ROOT
HETATM    1  C9  UNL     1      22.676   1.829  50.713  1.00  0.00     0.061 A 
HETATM    2  C10 UNL     1      23.749   2.601  50.788  1.00  0.00     0.105 A 
HETATM    3  C11 UNL     1      24.967   3.392  50.892  1.00  0.00     0.154 A 
HETATM    4  N4  UNL     1      24.959   4.657  50.621  1.00  0.00    -0.221 NA
HETATM    5  C19 UNL     1      23.747   5.273  50.219  1.00  0.00     0.252 A 
HETATM    6  N5  UNL     1      22.628   4.609  50.111  1.00  0.00    -0.182 NA
HETATM    7  N6  UNL     1      22.550   3.228  50.387  1.00  0.00    -0.133 NA
ENDROOT
BRANCH   1   8
HETATM    8  C8  UNL     1      21.883   0.577  50.799  1.00  0.00     0.173 C 
BRANCH   8   9
HETATM    9  N2  UNL     1      21.339   0.447  52.083  1.00  0.00    -0.398 N 
HETATM   10  C3  UNL     1      21.681  -0.659  52.864  1.00  0.00     0.130 C 
HETATM   11  C4  UNL     1      20.731  -1.103  53.901  1.00  0.00     0.298 C 
HETATM   12  N1  UNL     1      19.417  -0.545  53.846  1.00  0.00     0.085 N 
HETATM   13  C5  UNL     1      18.862  -0.428  52.525  1.00  0.00     0.271 C 
HETATM   14  H7  UNL     1      18.752  -1.141  54.393  1.00  0.00     0.315 HD
HETATM   15  C6  UNL     1      19.057   1.021  52.093  1.00  0.00     0.049 C 
HETATM   16  C7  UNL     1      20.455   1.424  52.580  1.00  0.00     0.119 C 
BRANCH  10  17
HETATM   17  C2  UNL     1      22.992  -0.337  53.542  1.00  0.00    -0.011 C 
HETATM   18  C1  UNL     1      23.112  -0.960  54.720  1.00  0.00     0.009 C 
ENDBRANCH  10  17
ENDBRANCH   8   9
ENDBRANCH   1   8
BRANCH   3  19
HETATM   19  N3  UNL     1      26.193   2.831  51.289  1.00  0.00    -0.339 N 
HETATM   20  H16 UNL     1      27.068   3.175  50.796  1.00  0.00     0.167 HD
BRANCH  19  21
HETATM   21  C12 UNL     1      26.339   1.850  52.301  1.00  0.00     0.034 A 
HETATM   22  C13 UNL     1      26.306   2.031  53.650  1.00  0.00     0.029 A 
HETATM   23  C14 UNL     1      26.448   1.028  54.582  1.00  0.00     0.003 A 
HETATM   24  C15 UNL     1      26.639  -0.268  54.165  1.00  0.00     0.007 A 
HETATM   25  C16 UNL     1      26.682  -0.526  52.811  1.00  0.00    -0.060 A 
HETATM   26  C17 UNL     1      26.888  -1.916  52.275  1.00  0.00     0.048 C 
HETATM   27  C18 UNL     1      26.534   0.517  51.934  1.00  0.00     0.036 A 
ENDBRANCH  19  21
ENDBRANCH   3  19
TORSDOF 5
ENDMDL
MODEL 5
REMARK VINA RESULT:      -8.2      2.314      5.449
REMARK  5 active torsions:
REMARK  status: ('A' for Active; 'I' for Inactive)
REMARK    1  A    between atoms: C2_2  and  C3_3 
REMARK    2  A    between atoms: N2_9  and  C8_10 
REMARK    3  A    between atoms: C8_10  and  C9_11 
REMARK    4  A    between atoms: C11_13  and  N3_14 
REMARK    5  A    between atoms: N3_14  and  C12_15 
ROOT
HETATM    1  C9  UNL     1      24.826   2.505  52.666  1.00  0.00     0.061 A 
HETATM    2  C10 UNL     1      23.938   2.387  51.690  1.00  0.00     0.105 A 
HETATM    3  C11 UNL     1      22.946   2.192  50.642  1.00  0.00     0.154 A 
HETATM    4  N4  UNL     1      22.716   3.119  49.769  1.00  0.00    -0.221 NA
HETATM    5  C19 UNL     1      23.441   4.336  49.840  1.00  0.00     0.252 A 
HETATM    6  N5  UNL     1      24.341   4.560  50.759  1.00  0.00    -0.182 NA
HETATM    7  N6  UNL     1      24.652   3.604  51.748  1.00  0.00    -0.133 NA
ENDROOT
BRANCH   1   8
HETATM    8  C8  UNL     1      25.608   2.097  53.860  1.00  0.00     0.173 C 
BRANCH   8   9
HETATM    9  N2  UNL     1      26.704   1.321  53.468  1.00  0.00    -0.398 N 
HETATM   10  C3  UNL     1      26.824   0.014  53.945  1.00  0.00     0.130 C 
HETATM   11  C4  UNL     1      28.172  -0.578  54.028  1.00  0.00     0.298 C 
HETATM   12  N1  UNL     1      29.275   0.317  53.879  1.00  0.00     0.085 N 
HETATM   13  C5  UNL     1      29.125   1.581  54.548  1.00  0.00     0.271 C 
HETATM   14  H7  UNL     1      30.145  -0.119  54.266  1.00  0.00     0.315 HD
HETATM   15  C6  UNL     1      28.687   2.589  53.491  1.00  0.00     0.049 C 
HETATM   16  C7  UNL     1      27.676   1.855  52.600  1.00  0.00     0.119 C 
BRANCH  10  17
HETATM   17  C2  UNL     1      25.985  -0.866  53.048  1.00  0.00    -0.011 C 
HETATM   18  C1  UNL     1      26.729  -1.761  52.386  1.00  0.00     0.009 C 
ENDBRANCH  10  17
ENDBRANCH   8   9
ENDBRANCH   1   8
BRANCH   3  19
HETATM   19  N3  UNL     1      22.204   1.005  50.525  1.00  0.00    -0.339 N 
HETATM   20  H16 UNL     1      22.226   0.508  49.588  1.00  0.00     0.167 HD
BRANCH  19  21
HETATM   21  C12 UNL     1      21.439   0.428  51.569  1.00  0.00     0.034 A 
HETATM   22  C13 UNL     1      20.083   0.354  51.668  1.00  0.00     0.029 A 
HETATM   23  C14 UNL     1      19.400  -0.229  52.711  1.00  0.00     0.003 A 
HETATM   24  C15 UNL     1      20.099  -0.791  53.753  1.00  0.00     0.007 A 
HETATM   25  C16 UNL     1      21.478  -0.753  53.719  1.00  0.00    -0.060 A 
HETATM   26  C17 UNL     1      22.313  -1.346  54.821  1.00  0.00     0.048 C 
HETATM   27  C18 UNL     1      22.097  -0.158  52.652  1.00  0.00     0.036 A 
ENDBRANCH  19  21
ENDBRANCH   3  19
TORSDOF 5
ENDMDL
MODEL 6
REMARK VINA RESULT:      -8.2      2.505      7.285
REMARK  5 active torsions:
REMARK  status: ('A' for Active; 'I' for Inactive)
REMARK    1  A    between atoms: C2_2  and  C3_3 
REMARK    2  A    between atoms: N2_9  and  C8_10 
REMARK    3  A    between atoms: C8_10  and  C9_11 
REMARK    4  A    between atoms: C11_13  and  N3_14 
REMARK    5  A    between atoms: N3_14  and  C12_15 
ROOT
HETATM    1  C9  UNL     1      25.898   2.480  51.321  1.00  0.00     0.061 A 
HETATM    2  C10 UNL     1      26.292   1.451  52.056  1.00  0.00     0.105 A 
HETATM    3  C11 UNL     1      26.663   0.287  52.848  1.00  0.00     0.154 A 
HETATM    4  N4  UNL     1      27.795   0.246  53.474  1.00  0.00    -0.221 NA
HETATM    5  C19 UNL     1      28.678   1.352  53.383  1.00  0.00     0.252 A 
HETATM    6  N5  UNL     1      28.393   2.419  52.688  1.00  0.00    -0.182 NA
HETATM    7  N6  UNL     1      27.182   2.544  51.975  1.00  0.00    -0.133 NA
ENDROOT
BRANCH   1   8
HETATM    8  C8  UNL     1      25.000   3.265  50.438  1.00  0.00     0.173 C 
BRANCH   8   9
HETATM    9  N2  UNL     1      23.692   3.228  50.936  1.00  0.00    -0.398 N 
HETATM   10  C3  UNL     1      22.624   3.074  50.049  1.00  0.00     0.130 C 
HETATM   11  C4  UNL     1      21.305   3.597  50.447  1.00  0.00     0.298 C 
HETATM   12  N1  UNL     1      21.275   4.464  51.582  1.00  0.00     0.085 N 
HETATM   13  C5  UNL     1      22.350   5.417  51.645  1.00  0.00     0.271 C 
HETATM   14  H7  UNL     1      20.388   5.021  51.584  1.00  0.00     0.315 HD
HETATM   15  C6  UNL     1      23.383   4.851  52.612  1.00  0.00     0.049 C 
HETATM   16  C7  UNL     1      23.457   3.346  52.320  1.00  0.00     0.119 C 
BRANCH  10  17
HETATM   17  C2  UNL     1      22.477   1.593  49.784  1.00  0.00    -0.011 C 
HETATM   18  C1  UNL     1      21.588   1.345  48.814  1.00  0.00     0.009 C 
ENDBRANCH  10  17
ENDBRANCH   8   9
ENDBRANCH   1   8
BRANCH   3  19
HETATM   19  N3  UNL     1      25.823  -0.833  52.974  1.00  0.00    -0.339 N 
HETATM   20  H16 UNL     1      26.141  -1.734  52.512  1.00  0.00     0.167 HD
BRANCH  19  21
HETATM   21  C12 UNL     1      24.593  -0.840  53.677  1.00  0.00     0.034 A 
HETATM   22  C13 UNL     1      24.359  -1.271  54.946  1.00  0.00     0.029 A 
HETATM   23  C14 UNL     1      23.135  -1.244  55.575  1.00  0.00     0.003 A 
HETATM   24  C15 UNL     1      22.038  -0.753  54.908  1.00  0.00     0.007 A 
HETATM   25  C16 UNL     1      22.201  -0.297  53.616  1.00  0.00    -0.060 A 
HETATM   26  C17 UNL     1      21.050   0.254  52.819  1.00  0.00     0.048 C 
HETATM   27  C18 UNL     1      23.446  -0.352  53.048  1.00  0.00     0.036 A 
ENDBRANCH  19  21
ENDBRANCH   3  19
TORSDOF 5
ENDMDL
MODEL 7
REMARK VINA RESULT:      -8.1      2.122      5.266
REMARK  5 active torsions:
REMARK  status: ('A' for Active; 'I' for Inactive)
REMARK    1  A    between atoms: C2_2  and  C3_3 
REMARK    2  A    between atoms: N2_9  and  C8_10 
REMARK    3  A    between atoms: C8_10  and  C9_11 
REMARK    4  A    between atoms: C11_13  and  N3_14 
REMARK    5  A    between atoms: N3_14  and  C12_15 
ROOT
HETATM    1  C9  UNL     1      26.861   2.469  52.631  1.00  0.00     0.061 A 
HETATM    2  C10 UNL     1      25.778   2.784  51.937  1.00  0.00     0.105 A 
HETATM    3  C11 UNL     1      24.548   3.121  51.233  1.00  0.00     0.154 A 
HETATM    4  N4  UNL     1      24.570   3.446  49.981  1.00  0.00    -0.221 NA
HETATM    5  C19 UNL     1      25.810   3.472  49.292  1.00  0.00     0.252 A 
HETATM    6  N5  UNL     1      26.940   3.178  49.876  1.00  0.00    -0.182 NA
HETATM    7  N6  UNL     1      27.004   2.815  51.238  1.00  0.00    -0.133 NA
ENDROOT
BRANCH   1   8
HETATM    8  C8  UNL     1      27.654   2.062  53.818  1.00  0.00     0.173 C 
BRANCH   8   9
HETATM    9  N2  UNL     1      27.612   0.671  53.964  1.00  0.00    -0.398 N 
HETATM   10  C3  UNL     1      28.321  -0.134  53.069  1.00  0.00     0.130 C 
HETATM   11  C4  UNL     1      27.848  -1.512  52.844  1.00  0.00     0.298 C 
HETATM   12  N1  UNL     1      26.547  -1.832  53.341  1.00  0.00     0.085 N 
HETATM   13  C5  UNL     1      25.555  -0.810  53.145  1.00  0.00     0.271 C 
HETATM   14  H7  UNL     1      26.183  -2.691  52.865  1.00  0.00     0.315 HD
HETATM   15  C6  UNL     1      25.432  -0.058  54.466  1.00  0.00     0.049 C 
HETATM   16  C7  UNL     1      26.861   0.090  55.004  1.00  0.00     0.119 C 
BRANCH  10  17
HETATM   17  C2  UNL     1      29.745  -0.207  53.569  1.00  0.00    -0.011 C 
HETATM   18  C1  UNL     1      30.146  -1.471  53.755  1.00  0.00     0.009 C 
ENDBRANCH  10  17
ENDBRANCH   8   9
ENDBRANCH   1   8
BRANCH   3  19
HETATM   19  N3  UNL     1      23.294   3.107  51.868  1.00  0.00    -0.339 N 
HETATM   20  H16 UNL     1      22.961   4.013  52.307  1.00  0.00     0.167 HD
BRANCH  19  21
HETATM   21  C12 UNL     1      22.449   1.973  51.953  1.00  0.00     0.034 A 
HETATM   22  C13 UNL     1      21.673   1.434  50.973  1.00  0.00     0.029 A 
HETATM   23  C14 UNL     1      20.877   0.322  51.121  1.00  0.00     0.003 A 
HETATM   24  C15 UNL     1      20.830  -0.327  52.333  1.00  0.00     0.007 A 
HETATM   25  C16 UNL     1      21.593   0.164  53.373  1.00  0.00    -0.060 A 
HETATM   26  C17 UNL     1      21.597  -0.489  54.728  1.00  0.00     0.048 C 
HETATM   27  C18 UNL     1      22.364   1.276  53.160  1.00  0.00     0.036 A 
ENDBRANCH  19  21
ENDBRANCH   3  19
TORSDOF 5
ENDMDL
MODEL 8
REMARK VINA RESULT:      -8.1      2.312      6.444
REMARK  5 active torsions:
REMARK  status: ('A' for Active; 'I' for Inactive)
REMARK    1  A    between atoms: C2_2  and  C3_3 
REMARK    2  A    between atoms: N2_9  and  C8_10 
REMARK    3  A    between atoms: C8_10  and  C9_11 
REMARK    4  A    between atoms: C11_13  and  N3_14 
REMARK    5  A    between atoms: N3_14  and  C12_15 
ROOT
HETATM    1  C9  UNL     1      22.513   1.235  51.309  1.00  0.00     0.061 A 
HETATM    2  C10 UNL     1      23.002   0.503  52.299  1.00  0.00     0.105 A 
HETATM    3  C11 UNL     1      23.601  -0.306  53.351  1.00  0.00     0.154 A 
HETATM    4  N4  UNL     1      22.926  -0.620  54.409  1.00  0.00    -0.221 NA
HETATM    5  C19 UNL     1      21.588  -0.169  54.538  1.00  0.00     0.252 A 
HETATM    6  N5  UNL     1      21.004   0.558  53.625  1.00  0.00    -0.182 NA
HETATM    7  N6  UNL     1      21.668   0.945  52.442  1.00  0.00    -0.133 NA
ENDROOT
BRANCH   1   8
HETATM    8  C8  UNL     1      22.512   1.949  50.008  1.00  0.00     0.173 C 
BRANCH   8   9
HETATM    9  N2  UNL     1      22.806   3.303  50.209  1.00  0.00    -0.398 N 
HETATM   10  C3  UNL     1      24.028   3.661  50.782  1.00  0.00     0.130 C 
HETATM   11  C4  UNL     1      24.111   4.943  51.507  1.00  0.00     0.298 C 
HETATM   12  N1  UNL     1      22.873   5.590  51.807  1.00  0.00     0.085 N 
HETATM   13  C5  UNL     1      21.820   4.713  52.243  1.00  0.00     0.271 C 
HETATM   14  H7  UNL     1      23.010   6.288  52.575  1.00  0.00     0.315 HD
HETATM   15  C6  UNL     1      20.929   4.460  51.032  1.00  0.00     0.049 C 
HETATM   16  C7  UNL     1      21.876   4.293  49.836  1.00  0.00     0.119 C 
BRANCH  10  17
HETATM   17  C2  UNL     1      25.050   3.690  49.669  1.00  0.00    -0.011 C 
HETATM   18  C1  UNL     1      26.203   3.115  50.035  1.00  0.00     0.009 C 
ENDBRANCH  10  17
ENDBRANCH   8   9
ENDBRANCH   1   8
BRANCH   3  19
HETATM   19  N3  UNL     1      24.921  -0.782  53.270  1.00  0.00    -0.339 N 
HETATM   20  H16 UNL     1      25.054  -1.825  53.130  1.00  0.00     0.167 HD
BRANCH  19  21
HETATM   21  C12 UNL     1      26.077   0.034  53.355  1.00  0.00     0.034 A 
HETATM   22  C13 UNL     1      26.137   1.392  53.413  1.00  0.00     0.029 A 
HETATM   23  C14 UNL     1      27.298   2.126  53.503  1.00  0.00     0.003 A 
HETATM   24  C15 UNL     1      28.511   1.479  53.539  1.00  0.00     0.007 A 
HETATM   25  C16 UNL     1      28.526   0.101  53.485  1.00  0.00    -0.060 A 
HETATM   26  C17 UNL     1      29.811  -0.680  53.519  1.00  0.00     0.048 C 
HETATM   27  C18 UNL     1      27.334  -0.570  53.396  1.00  0.00     0.036 A 
ENDBRANCH  19  21
ENDBRANCH   3  19
TORSDOF 5
ENDMDL
MODEL 9
REMARK VINA RESULT:      -8.0      2.614      6.366
REMARK  5 active torsions:
REMARK  status: ('A' for Active; 'I' for Inactive)
REMARK    1  A    between atoms: C2_2  and  C3_3 
REMARK    2  A    between atoms: N2_9  and  C8_10 
REMARK    3  A    between atoms: C8_10  and  C9_11 
REMARK    4  A    between atoms: C11_13  and  N3_14 
REMARK    5  A    between atoms: N3_14  and  C12_15 
ROOT
HETATM    1  C9  UNL     1      23.211   2.348  52.241  1.00  0.00     0.061 A 
HETATM    2  C10 UNL     1      24.502   2.517  51.999  1.00  0.00     0.105 A 
HETATM    3  C11 UNL     1      25.935   2.686  51.800  1.00  0.00     0.154 A 
HETATM    4  N4  UNL     1      26.408   3.017  50.642  1.00  0.00    -0.221 NA
HETATM    5  C19 UNL     1      25.514   3.215  49.558  1.00  0.00     0.252 A 
HETATM    6  N5  UNL     1      24.223   3.076  49.683  1.00  0.00    -0.182 NA
HETATM    7  N6  UNL     1      23.625   2.718  50.910  1.00  0.00    -0.133 NA
ENDROOT
BRANCH   1   8
HETATM    8  C8  UNL     1      21.999   2.044  53.042  1.00  0.00     0.173 C 
BRANCH   8   9
HETATM    9  N2  UNL     1      21.721   0.673  52.980  1.00  0.00    -0.398 N 
HETATM   10  C3  UNL     1      20.416   0.227  53.199  1.00  0.00     0.130 C 
HETATM   11  C4  UNL     1      20.221  -1.145  53.700  1.00  0.00     0.298 C 
HETATM   12  N1  UNL     1      21.383  -1.820  54.187  1.00  0.00     0.085 N 
HETATM   13  C5  UNL     1      22.272  -1.008  54.972  1.00  0.00     0.271 C 
HETATM   14  H7  UNL     1      21.101  -2.623  54.798  1.00  0.00     0.315 HD
HETATM   15  C6  UNL     1      23.405  -0.577  54.048  1.00  0.00     0.049 C 
HETATM   16  C7  UNL     1      22.750  -0.247  52.700  1.00  0.00     0.119 C 
BRANCH  10  17
HETATM   17  C2  UNL     1      19.677   0.352  51.886  1.00  0.00    -0.011 C 
HETATM   18  C1  UNL     1      18.523  -0.327  51.895  1.00  0.00     0.009 C 
ENDBRANCH  10  17
ENDBRANCH   8   9
ENDBRANCH   1   8
BRANCH   3  19
HETATM   19  N3  UNL     1      26.862   2.506  52.841  1.00  0.00    -0.339 N 
HETATM   20  H16 UNL     1      26.986   3.307  53.526  1.00  0.00     0.167 HD
BRANCH  19  21
HETATM   21  C12 UNL     1      27.631   1.332  53.039  1.00  0.00     0.034 A 
HETATM   22  C13 UNL     1      28.894   1.237  53.537  1.00  0.00     0.029 A 
HETATM   23  C14 UNL     1      29.584   0.059  53.711  1.00  0.00     0.003 A 
HETATM   24  C15 UNL     1      28.994  -1.134  53.369  1.00  0.00     0.007 A 
HETATM   25  C16 UNL     1      27.713  -1.113  52.857  1.00  0.00    -0.060 A 
HETATM   26  C17 UNL     1      26.998  -2.375  52.459  1.00  0.00     0.048 C 
HETATM   27  C18 UNL     1      27.080   0.093  52.709  1.00  0.00     0.036 A 
ENDBRANCH  19  21
ENDBRANCH   3  19
TORSDOF 5
ENDMDL
