MODEL 1
REMARK VINA RESULT:      -8.5      0.000      0.000
REMARK  7 active torsions:
REMARK  status: ('A' for Active; 'I' for Inactive)
REMARK    1  A    between atoms: C1_1  and  C7_8 
REMARK    2  A    between atoms: C2_2  and  N1_3 
REMARK    3  A    between atoms: N1_3  and  C3_4 
REMARK    4  A    between atoms: C7_8  and  N2_9 
REMARK    5  A    between atoms: C10_13  and  N4_14 
REMARK    6  A    between atoms: N4_14  and  C11_15 
REMARK    7  A    between atoms: C11_15  and  C12_16 
ROOT
HETATM    1  N2  UNL     1      26.934   5.332  49.021  1.00  0.00    -0.248 N 
HETATM    2  N3  UNL     1      27.207   4.030  49.000  1.00  0.00    -0.182 NA
HETATM    3  C8  UNL     1      26.264   3.350  49.689  1.00  0.00     0.158 A 
HETATM    4  C9  UNL     1      25.379   4.287  50.146  1.00  0.00     0.076 A 
HETATM    5  C10 UNL     1      24.224   4.163  50.904  1.00  0.00     0.140 A 
HETATM    6  N5  UNL     1      23.529   5.277  51.219  1.00  0.00    -0.224 NA
HETATM    7  C19 UNL     1      23.946   6.494  50.805  1.00  0.00     0.237 A 
HETATM    8  N6  UNL     1      25.074   6.629  50.064  1.00  0.00    -0.222 NA
HETATM    9  C20 UNL     1      25.791   5.536  49.733  1.00  0.00     0.163 A 
ENDROOT
BRANCH   5  10
HETATM   10  N4  UNL     1      23.755   2.880  51.359  1.00  0.00    -0.370 N 
HETATM   11  H10 UNL     1      23.496   2.182  50.628  1.00  0.00     0.161 HD
BRANCH  10  12
HETATM   12  C11 UNL     1      23.632   2.539  52.761  1.00  0.00     0.160 C 
BRANCH  12  13
HETATM   13  C12 UNL     1      24.692   1.551  53.130  1.00  0.00    -0.038 A 
HETATM   14  C13 UNL     1      24.497   0.187  53.046  1.00  0.00     0.012 A 
HETATM   15  C14 UNL     1      25.530  -0.653  53.408  1.00  0.00     0.040 A 
HETATM   16  C15 UNL     1      26.739  -0.138  53.846  1.00  0.00     0.105 A 
HETATM   17  C16 UNL     1      26.901   1.245  53.918  1.00  0.00     0.105 A 
HETATM   18  O2  UNL     1      27.912  -0.786  54.259  1.00  0.00    -0.323 OA
HETATM   19  C17 UNL     1      25.880   2.093  53.562  1.00  0.00     0.048 A 
HETATM   20  O1  UNL     1      28.207   1.450  54.388  1.00  0.00    -0.323 OA
HETATM   21  C18 UNL     1      28.668   0.209  54.935  1.00  0.00     0.352 C 
ENDBRANCH  12  13
ENDBRANCH  10  12
ENDBRANCH   5  10
BRANCH   1  22
HETATM   22  C7  UNL     1      27.709   6.374  48.398  1.00  0.00     0.181 C 
BRANCH  22  23
HETATM   23  C1  UNL     1      29.091   5.889  48.152  1.00  0.00     0.012 C 
HETATM   24  C2  UNL     1      30.219   6.482  48.493  1.00  0.00     0.085 C 
BRANCH  24  25
HETATM   25  N1  UNL     1      30.093   7.725  49.174  1.00  0.00    -0.375 N 
HETATM   26  H3  UNL     1      29.190   7.709  49.689  1.00  0.00     0.164 HD
BRANCH  25  27
HETATM   27  C3  UNL     1      30.979   8.815  49.194  1.00  0.00     0.099 C 
HETATM   28  C4  UNL     1      30.563  10.060  49.041  1.00  0.00    -0.021 A 
HETATM   29  C5  UNL     1      29.538  11.069  48.832  1.00  0.00     0.013 A 
HETATM   30  C6  UNL     1      30.839  11.481  48.960  1.00  0.00     0.013 A 
ENDBRANCH  25  27
ENDBRANCH  24  25
ENDBRANCH  22  23
ENDBRANCH   1  22
TORSDOF 7
ENDMDL
MODEL 2
REMARK VINA RESULT:      -8.3      1.884      2.500
REMARK  7 active torsions:
REMARK  status: ('A' for Active; 'I' for Inactive)
REMARK    1  A    between atoms: C1_1  and  C7_8 
REMARK    2  A    between atoms: C2_2  and  N1_3 
REMARK    3  A    between atoms: N1_3  and  C3_4 
REMARK    4  A    between atoms: C7_8  and  N2_9 
REMARK    5  A    between atoms: C10_13  and  N4_14 
REMARK    6  A    between atoms: N4_14  and  C11_15 
REMARK    7  A    between atoms: C11_15  and  C12_16 
ROOT
HETATM    1  N2  UNL     1      26.325   5.739  49.433  1.00  0.00    -0.248 N 
HETATM    2  N3  UNL     1      26.930   4.585  49.164  1.00  0.00    -0.182 NA
HETATM    3  C8  UNL     1      26.189   3.556  49.632  1.00  0.00     0.158 A 
HETATM    4  C9  UNL     1      25.084   4.117  50.211  1.00  0.00     0.076 A 
HETATM    5  C10 UNL     1      23.992   3.545  50.846  1.00  0.00     0.140 A 
HETATM    6  N5  UNL     1      23.026   4.351  51.335  1.00  0.00    -0.224 NA
HETATM    7  C19 UNL     1      23.115   5.694  51.209  1.00  0.00     0.237 A 
HETATM    8  N6  UNL     1      24.177   6.267  50.590  1.00  0.00    -0.222 NA
HETATM    9  C20 UNL     1      25.160   5.489  50.092  1.00  0.00     0.163 A 
ENDROOT
BRANCH   5  10
HETATM   10  N4  UNL     1      23.869   2.118  50.995  1.00  0.00    -0.370 N 
HETATM   11  H10 UNL     1      23.717   1.560  50.126  1.00  0.00     0.161 HD
BRANCH  10  12
HETATM   12  C11 UNL     1      23.944   1.451  52.278  1.00  0.00     0.160 C 
BRANCH  12  13
HETATM   13  C12 UNL     1      25.370   1.125  52.589  1.00  0.00    -0.038 A 
HETATM   14  C13 UNL     1      25.940  -0.091  52.273  1.00  0.00     0.012 A 
HETATM   15  C14 UNL     1      27.263  -0.307  52.598  1.00  0.00     0.040 A 
HETATM   16  C15 UNL     1      28.005   0.677  53.229  1.00  0.00     0.105 A 
HETATM   17  C16 UNL     1      27.397   1.894  53.534  1.00  0.00     0.105 A 
HETATM   18  O2  UNL     1      29.343   0.685  53.649  1.00  0.00    -0.323 OA
HETATM   19  C17 UNL     1      26.080   2.122  53.217  1.00  0.00     0.048 A 
HETATM   20  O1  UNL     1      28.388   2.668  54.158  1.00  0.00    -0.323 OA
HETATM   21  C18 UNL     1      29.445   1.782  54.546  1.00  0.00     0.352 C 
ENDBRANCH  12  13
ENDBRANCH  10  12
ENDBRANCH   5  10
BRANCH   1  22
HETATM   22  C7  UNL     1      26.808   7.052  49.092  1.00  0.00     0.181 C 
BRANCH  22  23
HETATM   23  C1  UNL     1      27.558   6.991  47.812  1.00  0.00     0.012 C 
HETATM   24  C2  UNL     1      28.839   6.720  47.647  1.00  0.00     0.085 C 
BRANCH  24  25
HETATM   25  N1  UNL     1      29.580   6.454  48.833  1.00  0.00    -0.375 N 
HETATM   26  H3  UNL     1      28.908   6.444  49.627  1.00  0.00     0.164 HD
BRANCH  25  27
HETATM   27  C3  UNL     1      30.959   6.234  48.981  1.00  0.00     0.099 C 
HETATM   28  C4  UNL     1      31.604   5.321  48.276  1.00  0.00    -0.021 A 
HETATM   29  C5  UNL     1      31.677   4.262  47.283  1.00  0.00     0.013 A 
HETATM   30  C6  UNL     1      32.829   4.627  47.930  1.00  0.00     0.013 A 
ENDBRANCH  25  27
ENDBRANCH  24  25
ENDBRANCH  22  23
ENDBRANCH   1  22
TORSDOF 7
ENDMDL
MODEL 3
REMARK VINA RESULT:      -8.3      1.148      1.736
REMARK  7 active torsions:
REMARK  status: ('A' for Active; 'I' for Inactive)
REMARK    1  A    between atoms: C1_1  and  C7_8 
REMARK    2  A    between atoms: C2_2  and  N1_3 
REMARK    3  A    between atoms: N1_3  and  C3_4 
REMARK    4  A    between atoms: C7_8  and  N2_9 
REMARK    5  A    between atoms: C10_13  and  N4_14 
REMARK    6  A    between atoms: N4_14  and  C11_15 
REMARK    7  A    between atoms: C11_15  and  C12_16 
ROOT
HETATM    1  N2  UNL     1      26.424   5.454  49.185  1.00  0.00    -0.248 N 
HETATM    2  N3  UNL     1      27.067   4.307  48.983  1.00  0.00    -0.182 NA
HETATM    3  C8  UNL     1      26.469   3.314  49.679  1.00  0.00     0.158 A 
HETATM    4  C9  UNL     1      25.415   3.891  50.332  1.00  0.00     0.076 A 
HETATM    5  C10 UNL     1      24.461   3.355  51.183  1.00  0.00     0.140 A 
HETATM    6  N5  UNL     1      23.514   4.169  51.698  1.00  0.00    -0.224 NA
HETATM    7  C19 UNL     1      23.492   5.485  51.390  1.00  0.00     0.237 A 
HETATM    8  N6  UNL     1      24.419   6.023  50.559  1.00  0.00    -0.222 NA
HETATM    9  C20 UNL     1      25.378   5.236  50.030  1.00  0.00     0.163 A 
ENDROOT
BRANCH   5  10
HETATM   10  N4  UNL     1      24.459   1.957  51.530  1.00  0.00    -0.370 N 
HETATM   11  H10 UNL     1      24.359   1.274  50.747  1.00  0.00     0.161 HD
BRANCH  10  12
HETATM   12  C11 UNL     1      24.586   1.483  52.891  1.00  0.00     0.160 C 
BRANCH  12  13
HETATM   13  C12 UNL     1      26.015   1.145  53.173  1.00  0.00    -0.038 A 
HETATM   14  C13 UNL     1      26.964   2.108  53.450  1.00  0.00     0.012 A 
HETATM   15  C14 UNL     1      28.261   1.707  53.698  1.00  0.00     0.040 A 
HETATM   16  C15 UNL     1      28.603   0.365  53.670  1.00  0.00     0.105 A 
HETATM   17  C16 UNL     1      27.619  -0.580  53.387  1.00  0.00     0.105 A 
HETATM   18  O2  UNL     1      29.835  -0.268  53.887  1.00  0.00    -0.323 OA
HETATM   19  C17 UNL     1      26.323  -0.195  53.137  1.00  0.00     0.048 A 
HETATM   20  O1  UNL     1      28.264  -1.825  53.431  1.00  0.00    -0.323 OA
HETATM   21  C18 UNL     1      29.675  -1.581  53.371  1.00  0.00     0.352 C 
ENDBRANCH  12  13
ENDBRANCH  10  12
ENDBRANCH   5  10
BRANCH   1  22
HETATM   22  C7  UNL     1      26.764   6.732  48.615  1.00  0.00     0.181 C 
BRANCH  22  23
HETATM   23  C1  UNL     1      28.092   6.647  47.956  1.00  0.00     0.012 C 
HETATM   24  C2  UNL     1      29.196   7.285  48.295  1.00  0.00     0.085 C 
BRANCH  24  25
HETATM   25  N1  UNL     1      29.098   8.150  49.421  1.00  0.00    -0.375 N 
HETATM   26  H3  UNL     1      29.157   7.561  50.275  1.00  0.00     0.164 HD
BRANCH  25  27
HETATM   27  C3  UNL     1      28.949   9.547  49.450  1.00  0.00     0.099 C 
HETATM   28  C4  UNL     1      29.906  10.363  49.041  1.00  0.00    -0.021 A 
HETATM   29  C5  UNL     1      31.222  10.647  48.496  1.00  0.00     0.013 A 
HETATM   30  C6  UNL     1      30.405  11.703  48.806  1.00  0.00     0.013 A 
ENDBRANCH  25  27
ENDBRANCH  24  25
ENDBRANCH  22  23
ENDBRANCH   1  22
TORSDOF 7
ENDMDL
MODEL 4
REMARK VINA RESULT:      -8.2      1.580      2.866
REMARK  7 active torsions:
REMARK  status: ('A' for Active; 'I' for Inactive)
REMARK    1  A    between atoms: C1_1  and  C7_8 
REMARK    2  A    between atoms: C2_2  and  N1_3 
REMARK    3  A    between atoms: N1_3  and  C3_4 
REMARK    4  A    between atoms: C7_8  and  N2_9 
REMARK    5  A    between atoms: C10_13  and  N4_14 
REMARK    6  A    between atoms: N4_14  and  C11_15 
REMARK    7  A    between atoms: C11_15  and  C12_16 
ROOT
HETATM    1  N2  UNL     1      24.705   7.021  49.905  1.00  0.00    -0.248 N 
HETATM    2  N3  UNL     1      23.700   6.960  50.775  1.00  0.00    -0.182 NA
HETATM    3  C8  UNL     1      23.625   5.720  51.307  1.00  0.00     0.158 A 
HETATM    4  C9  UNL     1      24.634   4.998  50.731  1.00  0.00     0.076 A 
HETATM    5  C10 UNL     1      25.029   3.679  50.898  1.00  0.00     0.140 A 
HETATM    6  N5  UNL     1      26.079   3.217  50.187  1.00  0.00    -0.224 NA
HETATM    7  C19 UNL     1      26.740   4.023  49.326  1.00  0.00     0.237 A 
HETATM    8  N6  UNL     1      26.365   5.315  49.152  1.00  0.00    -0.222 NA
HETATM    9  C20 UNL     1      25.319   5.806  49.847  1.00  0.00     0.163 A 
ENDROOT
BRANCH   5  10
HETATM   10  N4  UNL     1      24.345   2.797  51.808  1.00  0.00    -0.370 N 
HETATM   11  H10 UNL     1      23.484   2.324  51.455  1.00  0.00     0.161 HD
BRANCH  10  12
HETATM   12  C11 UNL     1      24.799   2.554  53.161  1.00  0.00     0.160 C 
BRANCH  12  13
HETATM   13  C12 UNL     1      25.705   1.364  53.178  1.00  0.00    -0.038 A 
HETATM   14  C13 UNL     1      25.241   0.075  53.020  1.00  0.00     0.012 A 
HETATM   15  C14 UNL     1      26.148  -0.964  53.050  1.00  0.00     0.040 A 
HETATM   16  C15 UNL     1      27.498  -0.718  53.234  1.00  0.00     0.105 A 
HETATM   17  C16 UNL     1      27.933   0.597  53.391  1.00  0.00     0.105 A 
HETATM   18  O2  UNL     1      28.587  -1.600  53.299  1.00  0.00    -0.323 OA
HETATM   19  C17 UNL     1      27.040   1.642  53.365  1.00  0.00     0.048 A 
HETATM   20  O1  UNL     1      29.324   0.520  53.556  1.00  0.00    -0.323 OA
HETATM   21  C18 UNL     1      29.646  -0.842  53.865  1.00  0.00     0.352 C 
ENDBRANCH  12  13
ENDBRANCH  10  12
ENDBRANCH   5  10
BRANCH   1  22
HETATM   22  C7  UNL     1      25.097   8.174  49.137  1.00  0.00     0.181 C 
BRANCH  22  23
HETATM   23  C1  UNL     1      25.932   9.071  49.975  1.00  0.00     0.012 C 
HETATM   24  C2  UNL     1      27.241   9.028  50.136  1.00  0.00     0.085 C 
BRANCH  24  25
HETATM   25  N1  UNL     1      27.925   8.005  49.422  1.00  0.00    -0.375 N 
HETATM   26  H3  UNL     1      27.421   7.112  49.593  1.00  0.00     0.164 HD
BRANCH  25  27
HETATM   27  C3  UNL     1      29.071   8.106  48.615  1.00  0.00     0.099 C 
HETATM   28  C4  UNL     1      29.711   7.039  48.169  1.00  0.00    -0.021 A 
HETATM   29  C5  UNL     1      29.907   5.605  48.036  1.00  0.00     0.013 A 
HETATM   30  C6  UNL     1      30.793   6.443  47.409  1.00  0.00     0.013 A 
ENDBRANCH  25  27
ENDBRANCH  24  25
ENDBRANCH  22  23
ENDBRANCH   1  22
TORSDOF 7
ENDMDL
MODEL 5
REMARK VINA RESULT:      -8.1      2.626      3.947
REMARK  7 active torsions:
REMARK  status: ('A' for Active; 'I' for Inactive)
REMARK    1  A    between atoms: C1_1  and  C7_8 
REMARK    2  A    between atoms: C2_2  and  N1_3 
REMARK    3  A    between atoms: N1_3  and  C3_4 
REMARK    4  A    between atoms: C7_8  and  N2_9 
REMARK    5  A    between atoms: C10_13  and  N4_14 
REMARK    6  A    between atoms: N4_14  and  C11_15 
REMARK    7  A    between atoms: C11_15  and  C12_16 
ROOT
HETATM    1  N2  UNL     1      23.433   4.877  50.691  1.00  0.00    -0.248 N 
HETATM    2  N3  UNL     1      23.867   5.093  51.930  1.00  0.00    -0.182 NA
HETATM    3  C8  UNL     1      23.740   3.967  52.666  1.00  0.00     0.158 A 
HETATM    4  C9  UNL     1      23.202   3.027  51.831  1.00  0.00     0.076 A 
HETATM    5  C10 UNL     1      22.859   1.700  52.045  1.00  0.00     0.140 A 
HETATM    6  N5  UNL     1      22.335   0.989  51.023  1.00  0.00    -0.224 NA
HETATM    7  C19 UNL     1      22.149   1.555  49.809  1.00  0.00     0.237 A 
HETATM    8  N6  UNL     1      22.481   2.851  49.586  1.00  0.00    -0.222 NA
HETATM    9  C20 UNL     1      23.005   3.588  50.587  1.00  0.00     0.163 A 
ENDROOT
BRANCH   5  10
HETATM   10  N4  UNL     1      23.045   1.070  53.326  1.00  0.00    -0.370 N 
HETATM   11  H10 UNL     1      22.682   1.577  54.163  1.00  0.00     0.161 HD
BRANCH  10  12
HETATM   12  C11 UNL     1      23.704  -0.209  53.486  1.00  0.00     0.160 C 
BRANCH  12  13
HETATM   13  C12 UNL     1      25.183  -0.029  53.368  1.00  0.00    -0.038 A 
HETATM   14  C13 UNL     1      26.000  -0.966  52.768  1.00  0.00     0.012 A 
HETATM   15  C14 UNL     1      27.355  -0.718  52.703  1.00  0.00     0.040 A 
HETATM   16  C15 UNL     1      27.886   0.448  53.228  1.00  0.00     0.105 A 
HETATM   17  C16 UNL     1      27.033   1.373  53.827  1.00  0.00     0.105 A 
HETATM   18  O2  UNL     1      29.210   0.908  53.277  1.00  0.00    -0.323 OA
HETATM   19  C17 UNL     1      25.680   1.138  53.900  1.00  0.00     0.048 A 
HETATM   20  O1  UNL     1      27.854   2.426  54.255  1.00  0.00    -0.323 OA
HETATM   21  C18 UNL     1      29.206   1.952  54.239  1.00  0.00     0.352 C 
ENDBRANCH  12  13
ENDBRANCH  10  12
ENDBRANCH   5  10
BRANCH   1  22
HETATM   22  C7  UNL     1      23.409   5.838  49.618  1.00  0.00     0.181 C 
BRANCH  22  23
HETATM   23  C1  UNL     1      23.134   7.190  50.166  1.00  0.00     0.012 C 
HETATM   24  C2  UNL     1      24.008   8.048  50.657  1.00  0.00     0.085 C 
BRANCH  24  25
HETATM   25  N1  UNL     1      25.367   7.624  50.658  1.00  0.00    -0.375 N 
HETATM   26  H3  UNL     1      25.505   7.018  51.492  1.00  0.00     0.164 HD
BRANCH  25  27
HETATM   27  C3  UNL     1      26.387   7.925  49.740  1.00  0.00     0.099 C 
HETATM   28  C4  UNL     1      26.985   6.987  49.025  1.00  0.00    -0.021 A 
HETATM   29  C5  UNL     1      27.198   5.612  48.608  1.00  0.00     0.013 A 
HETATM   30  C6  UNL     1      27.966   6.591  48.033  1.00  0.00     0.013 A 
ENDBRANCH  25  27
ENDBRANCH  24  25
ENDBRANCH  22  23
ENDBRANCH   1  22
TORSDOF 7
ENDMDL
MODEL 6
REMARK VINA RESULT:      -8.0      3.277      8.341
REMARK  7 active torsions:
REMARK  status: ('A' for Active; 'I' for Inactive)
REMARK    1  A    between atoms: C1_1  and  C7_8 
REMARK    2  A    between atoms: C2_2  and  N1_3 
REMARK    3  A    between atoms: N1_3  and  C3_4 
REMARK    4  A    between atoms: C7_8  and  N2_9 
REMARK    5  A    between atoms: C10_13  and  N4_14 
REMARK    6  A    between atoms: N4_14  and  C11_15 
REMARK    7  A    between atoms: C11_15  and  C12_16 
ROOT
HETATM    1  N2  UNL     1      25.129   1.837  52.299  1.00  0.00    -0.248 N 
HETATM    2  N3  UNL     1      26.268   1.462  51.723  1.00  0.00    -0.182 NA
HETATM    3  C8  UNL     1      26.627   2.363  50.781  1.00  0.00     0.158 A 
HETATM    4  C9  UNL     1      25.657   3.327  50.789  1.00  0.00     0.076 A 
HETATM    5  C10 UNL     1      25.508   4.484  50.039  1.00  0.00     0.140 A 
HETATM    6  N5  UNL     1      24.433   5.270  50.259  1.00  0.00    -0.224 NA
HETATM    7  C19 UNL     1      23.514   4.942  51.194  1.00  0.00     0.237 A 
HETATM    8  N6  UNL     1      23.648   3.814  51.936  1.00  0.00    -0.222 NA
HETATM    9  C20 UNL     1      24.710   3.007  51.739  1.00  0.00     0.163 A 
ENDROOT
BRANCH   5  10
HETATM   10  N4  UNL     1      26.470   4.860  49.035  1.00  0.00    -0.370 N 
HETATM   11  H10 UNL     1      27.017   4.091  48.589  1.00  0.00     0.161 HD
BRANCH  10  12
HETATM   12  C11 UNL     1      26.696   6.233  48.637  1.00  0.00     0.160 C 
BRANCH  12  13
HETATM   13  C12 UNL     1      28.152   6.443  48.366  1.00  0.00    -0.038 A 
HETATM   14  C13 UNL     1      29.027   5.396  48.161  1.00  0.00     0.012 A 
HETATM   15  C14 UNL     1      30.355   5.681  47.918  1.00  0.00     0.040 A 
HETATM   16  C15 UNL     1      30.801   6.992  47.881  1.00  0.00     0.105 A 
HETATM   17  C16 UNL     1      29.889   8.025  48.093  1.00  0.00     0.105 A 
HETATM   18  O2  UNL     1      32.082   7.515  47.656  1.00  0.00    -0.323 OA
HETATM   19  C17 UNL     1      28.563   7.755  48.336  1.00  0.00     0.048 A 
HETATM   20  O1  UNL     1      30.631   9.212  47.995  1.00  0.00    -0.323 OA
HETATM   21  C18 UNL     1      32.017   8.863  48.097  1.00  0.00     0.352 C 
ENDBRANCH  12  13
ENDBRANCH  10  12
ENDBRANCH   5  10
BRANCH   1  22
HETATM   22  C7  UNL     1      24.433   1.135  53.345  1.00  0.00     0.181 C 
BRANCH  22  23
HETATM   23  C1  UNL     1      24.790  -0.306  53.302  1.00  0.00     0.012 C 
HETATM   24  C2  UNL     1      25.749  -0.913  53.975  1.00  0.00     0.085 C 
BRANCH  24  25
HETATM   25  N1  UNL     1      26.524  -0.090  54.839  1.00  0.00    -0.375 N 
HETATM   26  H3  UNL     1      25.898   0.242  55.600  1.00  0.00     0.164 HD
BRANCH  25  27
HETATM   27  C3  UNL     1      27.884   0.252  54.747  1.00  0.00     0.099 C 
HETATM   28  C4  UNL     1      28.749  -0.487  54.074  1.00  0.00    -0.021 A 
HETATM   29  C5  UNL     1      29.119  -1.629  53.256  1.00  0.00     0.013 A 
HETATM   30  C6  UNL     1      30.098  -0.735  53.604  1.00  0.00     0.013 A 
ENDBRANCH  25  27
ENDBRANCH  24  25
ENDBRANCH  22  23
ENDBRANCH   1  22
TORSDOF 7
ENDMDL
MODEL 7
REMARK VINA RESULT:      -8.0      4.051      9.695
REMARK  7 active torsions:
REMARK  status: ('A' for Active; 'I' for Inactive)
REMARK    1  A    between atoms: C1_1  and  C7_8 
REMARK    2  A    between atoms: C2_2  and  N1_3 
REMARK    3  A    between atoms: N1_3  and  C3_4 
REMARK    4  A    between atoms: C7_8  and  N2_9 
REMARK    5  A    between atoms: C10_13  and  N4_14 
REMARK    6  A    between atoms: N4_14  and  C11_15 
REMARK    7  A    between atoms: C11_15  and  C12_16 
ROOT
HETATM    1  N2  UNL     1      23.538   0.189  52.675  1.00  0.00    -0.248 N 
HETATM    2  N3  UNL     1      22.961   1.072  51.864  1.00  0.00    -0.182 NA
HETATM    3  C8  UNL     1      23.880   1.954  51.414  1.00  0.00     0.158 A 
HETATM    4  C9  UNL     1      25.069   1.586  51.980  1.00  0.00     0.076 A 
HETATM    5  C10 UNL     1      26.341   2.127  51.874  1.00  0.00     0.140 A 
HETATM    6  N5  UNL     1      27.354   1.551  52.557  1.00  0.00    -0.224 NA
HETATM    7  C19 UNL     1      27.138   0.464  53.331  1.00  0.00     0.237 A 
HETATM    8  N6  UNL     1      25.898  -0.075  53.444  1.00  0.00    -0.222 NA
HETATM    9  C20 UNL     1      24.865   0.477  52.776  1.00  0.00     0.163 A 
ENDROOT
BRANCH   5  10
HETATM   10  N4  UNL     1      26.603   3.284  51.058  1.00  0.00    -0.370 N 
HETATM   11  H10 UNL     1      26.741   4.193  51.551  1.00  0.00     0.161 HD
BRANCH  10  12
HETATM   12  C11 UNL     1      26.678   3.228  49.613  1.00  0.00     0.160 C 
BRANCH  12  13
HETATM   13  C12 UNL     1      26.789   4.614  49.063  1.00  0.00    -0.038 A 
HETATM   14  C13 UNL     1      25.727   5.495  49.049  1.00  0.00     0.012 A 
HETATM   15  C14 UNL     1      25.919   6.755  48.522  1.00  0.00     0.040 A 
HETATM   16  C15 UNL     1      27.153   7.129  48.018  1.00  0.00     0.105 A 
HETATM   17  C16 UNL     1      28.205   6.214  48.048  1.00  0.00     0.105 A 
HETATM   18  O2  UNL     1      27.577   8.336  47.442  1.00  0.00    -0.323 OA
HETATM   19  C17 UNL     1      28.027   4.955  48.569  1.00  0.00     0.048 A 
HETATM   20  O1  UNL     1      29.301   6.876  47.476  1.00  0.00    -0.323 OA
HETATM   21  C18 UNL     1      28.797   8.026  46.784  1.00  0.00     0.352 C 
ENDBRANCH  12  13
ENDBRANCH  10  12
ENDBRANCH   5  10
BRANCH   1  22
HETATM   22  C7  UNL     1      22.884  -0.903  53.348  1.00  0.00     0.181 C 
BRANCH  22  23
HETATM   23  C1  UNL     1      22.073  -0.379  54.477  1.00  0.00     0.012 C 
HETATM   24  C2  UNL     1      20.834   0.071  54.431  1.00  0.00     0.085 C 
BRANCH  24  25
HETATM   25  N1  UNL     1      20.207   0.048  53.154  1.00  0.00    -0.375 N 
HETATM   26  H3  UNL     1      20.869   0.470  52.472  1.00  0.00     0.164 HD
BRANCH  25  27
HETATM   27  C3  UNL     1      18.936  -0.439  52.802  1.00  0.00     0.099 C 
HETATM   28  C4  UNL     1      18.365  -0.138  51.649  1.00  0.00    -0.021 A 
HETATM   29  C5  UNL     1      18.325   0.518  50.353  1.00  0.00     0.013 A 
HETATM   30  C6  UNL     1      17.250  -0.246  50.728  1.00  0.00     0.013 A 
ENDBRANCH  25  27
ENDBRANCH  24  25
ENDBRANCH  22  23
ENDBRANCH   1  22
TORSDOF 7
ENDMDL
MODEL 8
REMARK VINA RESULT:      -8.0      4.272      7.936
REMARK  7 active torsions:
REMARK  status: ('A' for Active; 'I' for Inactive)
REMARK    1  A    between atoms: C1_1  and  C7_8 
REMARK    2  A    between atoms: C2_2  and  N1_3 
REMARK    3  A    between atoms: N1_3  and  C3_4 
REMARK    4  A    between atoms: C7_8  and  N2_9 
REMARK    5  A    between atoms: C10_13  and  N4_14 
REMARK    6  A    between atoms: N4_14  and  C11_15 
REMARK    7  A    between atoms: C11_15  and  C12_16 
ROOT
HETATM    1  N2  UNL     1      26.134   2.129  52.503  1.00  0.00    -0.248 N 
HETATM    2  N3  UNL     1      24.989   2.321  53.153  1.00  0.00    -0.182 NA
HETATM    3  C8  UNL     1      24.205   3.178  52.463  1.00  0.00     0.158 A 
HETATM    4  C9  UNL     1      24.910   3.519  51.342  1.00  0.00     0.076 A 
HETATM    5  C10 UNL     1      24.599   4.359  50.284  1.00  0.00     0.140 A 
HETATM    6  N5  UNL     1      25.499   4.517  49.290  1.00  0.00    -0.224 NA
HETATM    7  C19 UNL     1      26.684   3.868  49.319  1.00  0.00     0.237 A 
HETATM    8  N6  UNL     1      27.002   3.043  50.348  1.00  0.00    -0.222 NA
HETATM    9  C20 UNL     1      26.124   2.866  51.357  1.00  0.00     0.163 A 
ENDROOT
BRANCH   5  10
HETATM   10  N4  UNL     1      23.344   5.064  50.224  1.00  0.00    -0.370 N 
HETATM   11  H10 UNL     1      23.206   5.847  50.901  1.00  0.00     0.161 HD
BRANCH  10  12
HETATM   12  C11 UNL     1      22.297   4.730  49.282  1.00  0.00     0.160 C 
BRANCH  12  13
HETATM   13  C12 UNL     1      21.679   3.423  49.664  1.00  0.00    -0.038 A 
HETATM   14  C13 UNL     1      21.904   2.260  48.955  1.00  0.00     0.012 A 
HETATM   15  C14 UNL     1      21.292   1.098  49.378  1.00  0.00     0.040 A 
HETATM   16  C15 UNL     1      20.469   1.098  50.492  1.00  0.00     0.105 A 
HETATM   17  C16 UNL     1      20.264   2.290  51.185  1.00  0.00     0.105 A 
HETATM   18  O2  UNL     1      19.753   0.056  51.098  1.00  0.00    -0.323 OA
HETATM   19  C17 UNL     1      20.866   3.456  50.774  1.00  0.00     0.048 A 
HETATM   20  O1  UNL     1      19.400   1.971  52.242  1.00  0.00    -0.323 OA
HETATM   21  C18 UNL     1      18.815   0.696  51.951  1.00  0.00     0.352 C 
ENDBRANCH  12  13
ENDBRANCH  10  12
ENDBRANCH   5  10
BRANCH   1  22
HETATM   22  C7  UNL     1      27.220   1.283  52.924  1.00  0.00     0.181 C 
BRANCH  22  23
HETATM   23  C1  UNL     1      26.984  -0.105  52.454  1.00  0.00     0.012 C 
HETATM   24  C2  UNL     1      26.335  -1.065  53.086  1.00  0.00     0.085 C 
BRANCH  24  25
HETATM   25  N1  UNL     1      25.803  -0.725  54.361  1.00  0.00    -0.375 N 
HETATM   26  H3  UNL     1      26.543  -0.214  54.883  1.00  0.00     0.164 HD
BRANCH  25  27
HETATM   27  C3  UNL     1      24.528  -0.994  54.886  1.00  0.00     0.099 C 
HETATM   28  C4  UNL     1      23.423  -0.760  54.198  1.00  0.00    -0.021 A 
HETATM   29  C5  UNL     1      22.698  -0.310  53.023  1.00  0.00     0.013 A 
HETATM   30  C6  UNL     1      21.977  -0.778  54.091  1.00  0.00     0.013 A 
ENDBRANCH  25  27
ENDBRANCH  24  25
ENDBRANCH  22  23
ENDBRANCH   1  22
TORSDOF 7
ENDMDL
MODEL 9
REMARK VINA RESULT:      -7.9      2.853      4.318
REMARK  7 active torsions:
REMARK  status: ('A' for Active; 'I' for Inactive)
REMARK    1  A    between atoms: C1_1  and  C7_8 
REMARK    2  A    between atoms: C2_2  and  N1_3 
REMARK    3  A    between atoms: N1_3  and  C3_4 
REMARK    4  A    between atoms: C7_8  and  N2_9 
REMARK    5  A    between atoms: C10_13  and  N4_14 
REMARK    6  A    between atoms: N4_14  and  C11_15 
REMARK    7  A    between atoms: C11_15  and  C12_16 
ROOT
HETATM    1  N2  UNL     1      22.751   5.969  50.830  1.00  0.00    -0.248 N 
HETATM    2  N3  UNL     1      23.990   5.847  51.299  1.00  0.00    -0.182 NA
HETATM    3  C8  UNL     1      24.131   4.659  51.928  1.00  0.00     0.158 A 
HETATM    4  C9  UNL     1      22.918   4.034  51.833  1.00  0.00     0.076 A 
HETATM    5  C10 UNL     1      22.485   2.800  52.294  1.00  0.00     0.140 A 
HETATM    6  N5  UNL     1      21.209   2.427  52.057  1.00  0.00    -0.224 NA
HETATM    7  C19 UNL     1      20.365   3.237  51.380  1.00  0.00     0.237 A 
HETATM    8  N6  UNL     1      20.776   4.446  50.924  1.00  0.00    -0.222 NA
HETATM    9  C20 UNL     1      22.043   4.849  51.146  1.00  0.00     0.163 A 
ENDROOT
BRANCH   5  10
HETATM   10  N4  UNL     1      23.361   1.915  53.018  1.00  0.00    -0.370 N 
HETATM   11  H10 UNL     1      23.472   2.088  54.041  1.00  0.00     0.161 HD
BRANCH  10  12
HETATM   12  C11 UNL     1      24.074   0.824  52.388  1.00  0.00     0.160 C 
BRANCH  12  13
HETATM   13  C12 UNL     1      25.500   0.832  52.838  1.00  0.00    -0.038 A 
HETATM   14  C13 UNL     1      26.172   1.994  53.154  1.00  0.00     0.012 A 
HETATM   15  C14 UNL     1      27.488   1.909  53.561  1.00  0.00     0.040 A 
HETATM   16  C15 UNL     1      28.121   0.680  53.650  1.00  0.00     0.105 A 
HETATM   17  C16 UNL     1      27.412  -0.474  53.323  1.00  0.00     0.105 A 
HETATM   18  O2  UNL     1      29.430   0.353  54.033  1.00  0.00    -0.323 OA
HETATM   19  C17 UNL     1      26.101  -0.403  52.916  1.00  0.00     0.048 A 
HETATM   20  O1  UNL     1      28.308  -1.537  53.510  1.00  0.00    -0.323 OA
HETATM   21  C18 UNL     1      29.627  -0.980  53.583  1.00  0.00     0.352 C 
ENDBRANCH  12  13
ENDBRANCH  10  12
ENDBRANCH   5  10
BRANCH   1  22
HETATM   22  C7  UNL     1      22.223   7.095  50.105  1.00  0.00     0.181 C 
BRANCH  22  23
HETATM   23  C1  UNL     1      22.385   6.869  48.646  1.00  0.00     0.012 C 
HETATM   24  C2  UNL     1      23.501   6.929  47.946  1.00  0.00     0.085 C 
BRANCH  24  25
HETATM   25  N1  UNL     1      24.682   7.245  48.676  1.00  0.00    -0.375 N 
HETATM   26  H3  UNL     1      24.389   7.725  49.551  1.00  0.00     0.164 HD
BRANCH  25  27
HETATM   27  C3  UNL     1      26.022   6.987  48.343  1.00  0.00     0.099 C 
HETATM   28  C4  UNL     1      26.607   5.837  48.630  1.00  0.00    -0.021 A 
HETATM   29  C5  UNL     1      26.625   4.494  49.185  1.00  0.00     0.013 A 
HETATM   30  C6  UNL     1      27.772   4.974  48.606  1.00  0.00     0.013 A 
ENDBRANCH  25  27
ENDBRANCH  24  25
ENDBRANCH  22  23
ENDBRANCH   1  22
TORSDOF 7
ENDMDL
