MODEL 1
REMARK VINA RESULT:      -9.2      0.000      0.000
REMARK  0 active torsions:
REMARK  status: ('A' for Active; 'I' for Inactive)
ROOT
HETATM    1  C1  UNL     1      25.334   2.808  51.108  1.00  0.00     0.020 C 
HETATM    2  C2  UNL     1      24.664   2.645  52.435  1.00  0.00    -0.019 C 
HETATM    3  C3  UNL     1      24.126   3.926  53.048  1.00  0.00     0.020 C 
HETATM    4  C4  UNL     1      25.927   2.476  53.333  1.00  0.00     0.013 C 
HETATM    5  C5  UNL     1      26.938   1.541  52.807  1.00  0.00     0.001 C 
HETATM    6  C6  UNL     1      27.579   0.905  54.048  1.00  0.00     0.008 C 
HETATM    7  C7  UNL     1      26.496   0.419  54.982  1.00  0.00     0.084 C 
HETATM    8  C8  UNL     1      25.376  -0.202  54.226  1.00  0.00     0.160 C 
HETATM    9  O1  UNL     1      25.449  -1.476  54.308  1.00  0.00    -0.292 OA
HETATM   10  C9  UNL     1      24.208   0.232  53.409  1.00  0.00     0.017 A 
HETATM   11  C10 UNL     1      23.466  -0.904  53.562  1.00  0.00     0.016 A 
HETATM   12  C11 UNL     1      22.245  -0.922  52.924  1.00  0.00     0.009 A 
HETATM   13  C12 UNL     1      21.874   0.183  52.200  1.00  0.00    -0.051 A 
HETATM   14  C13 UNL     1      22.620   1.344  52.042  1.00  0.00    -0.044 A 
HETATM   15  C14 UNL     1      23.903   1.423  52.679  1.00  0.00    -0.029 A 
HETATM   16  C15 UNL     1      22.297   2.539  51.350  1.00  0.00     0.042 C 
HETATM   17  C16 UNL     1      21.039   2.761  50.552  1.00  0.00     0.039 C 
HETATM   18  C17 UNL     1      19.752   2.836  51.288  1.00  0.00     0.146 C 
HETATM   19  O2  UNL     1      19.075   4.046  51.214  1.00  0.00    -0.382 OA
HETATM   20  C18 UNL     1      18.054   3.460  50.536  1.00  0.00     0.195 C 
HETATM   21  C19 UNL     1      18.611   2.061  50.751  1.00  0.00     0.129 C 
HETATM   22  N1  UNL     1      17.862   1.395  51.747  1.00  0.00    -0.413 N 
HETATM   23  C20 UNL     1      18.100   0.027  52.027  1.00  0.00     0.114 C 
HETATM   24  C21 UNL     1      19.501  -0.134  52.616  1.00  0.00     0.024 C 
HETATM   25  C22 UNL     1      20.568  -0.049  51.573  1.00  0.00     0.041 C 
HETATM   26  H25 UNL     1      16.853   1.667  51.770  1.00  0.00     0.153 HD
ENDROOT
TORSDOF 0
ENDMDL
MODEL 2
REMARK VINA RESULT:      -9.0      2.454      3.528
REMARK  0 active torsions:
REMARK  status: ('A' for Active; 'I' for Inactive)
ROOT
HETATM    1  C1  UNL     1      26.082   0.775  52.146  1.00  0.00     0.020 C 
HETATM    2  C2  UNL     1      24.864   1.371  52.779  1.00  0.00    -0.019 C 
HETATM    3  C3  UNL     1      25.020   2.805  53.254  1.00  0.00     0.020 C 
HETATM    4  C4  UNL     1      24.933   0.662  54.167  1.00  0.00     0.013 C 
HETATM    5  C5  UNL     1      25.199  -0.786  54.108  1.00  0.00     0.001 C 
HETATM    6  C6  UNL     1      24.448  -1.380  55.307  1.00  0.00     0.008 C 
HETATM    7  C7  UNL     1      23.029  -0.859  55.321  1.00  0.00     0.084 C 
HETATM    8  C8  UNL     1      22.467  -0.801  53.945  1.00  0.00     0.160 C 
HETATM    9  O1  UNL     1      21.670  -1.783  53.759  1.00  0.00    -0.292 OA
HETATM   10  C9  UNL     1      22.568   0.065  52.737  1.00  0.00     0.017 A 
HETATM   11  C10 UNL     1      21.376  -0.291  52.176  1.00  0.00     0.016 A 
HETATM   12  C11 UNL     1      21.066   0.309  50.975  1.00  0.00     0.009 A 
HETATM   13  C12 UNL     1      21.961   1.203  50.446  1.00  0.00    -0.051 A 
HETATM   14  C13 UNL     1      23.175   1.576  51.011  1.00  0.00    -0.044 A 
HETATM   15  C14 UNL     1      23.556   0.982  52.260  1.00  0.00    -0.029 A 
HETATM   16  C15 UNL     1      24.134   2.515  50.556  1.00  0.00     0.042 C 
HETATM   17  C16 UNL     1      24.044   3.281  49.262  1.00  0.00     0.039 C 
HETATM   18  C17 UNL     1      22.976   4.304  49.132  1.00  0.00     0.146 C 
HETATM   19  O2  UNL     1      23.402   5.617  48.968  1.00  0.00    -0.382 OA
HETATM   20  C18 UNL     1      22.870   5.657  47.719  1.00  0.00     0.195 C 
HETATM   21  C19 UNL     1      22.182   4.311  47.883  1.00  0.00     0.129 C 
HETATM   22  N1  UNL     1      20.799   4.502  48.093  1.00  0.00    -0.413 N 
HETATM   23  C20 UNL     1      19.919   3.392  48.135  1.00  0.00     0.114 C 
HETATM   24  C21 UNL     1      20.244   2.535  49.358  1.00  0.00     0.024 C 
HETATM   25  C22 UNL     1      21.466   1.699  49.157  1.00  0.00     0.041 C 
HETATM   26  H25 UNL     1      20.408   5.338  47.603  1.00  0.00     0.153 HD
ENDROOT
TORSDOF 0
ENDMDL
MODEL 3
REMARK VINA RESULT:      -9.0      2.663      6.471
REMARK  0 active torsions:
REMARK  status: ('A' for Active; 'I' for Inactive)
ROOT
HETATM    1  C1  UNL     1      22.114   4.622  52.663  1.00  0.00     0.020 C 
HETATM    2  C2  UNL     1      22.417   3.624  51.590  1.00  0.00    -0.019 C 
HETATM    3  C3  UNL     1      23.385   4.099  50.520  1.00  0.00     0.020 C 
HETATM    4  C4  UNL     1      21.096   3.733  50.768  1.00  0.00     0.013 C 
HETATM    5  C5  UNL     1      19.863   3.718  51.575  1.00  0.00     0.001 C 
HETATM    6  C6  UNL     1      18.816   3.025  50.693  1.00  0.00     0.008 C 
HETATM    7  C7  UNL     1      19.391   1.740  50.143  1.00  0.00     0.084 C 
HETATM    8  C8  UNL     1      20.197   1.031  51.173  1.00  0.00     0.160 C 
HETATM    9  O1  UNL     1      19.531   0.050  51.649  1.00  0.00    -0.292 OA
HETATM   10  C9  UNL     1      21.544   1.139  51.800  1.00  0.00     0.017 A 
HETATM   11  C10 UNL     1      21.641  -0.159  52.211  1.00  0.00     0.016 A 
HETATM   12  C11 UNL     1      22.798  -0.500  52.878  1.00  0.00     0.009 A 
HETATM   13  C12 UNL     1      23.746   0.472  53.073  1.00  0.00    -0.051 A 
HETATM   14  C13 UNL     1      23.659   1.794  52.656  1.00  0.00    -0.044 A 
HETATM   15  C14 UNL     1      22.476   2.213  51.958  1.00  0.00    -0.029 A 
HETATM   16  C15 UNL     1      24.601   2.846  52.779  1.00  0.00     0.042 C 
HETATM   17  C16 UNL     1      25.925   2.739  53.489  1.00  0.00     0.039 C 
HETATM   18  C17 UNL     1      26.968   1.870  52.887  1.00  0.00     0.146 C 
HETATM   19  O2  UNL     1      28.132   2.507  52.475  1.00  0.00    -0.382 OA
HETATM   20  C18 UNL     1      28.856   1.841  53.411  1.00  0.00     0.195 C 
HETATM   21  C19 UNL     1      27.689   0.942  53.788  1.00  0.00     0.129 C 
HETATM   22  N1  UNL     1      27.878  -0.346  53.239  1.00  0.00    -0.413 N 
HETATM   23  C20 UNL     1      26.992  -1.402  53.566  1.00  0.00     0.114 C 
HETATM   24  C21 UNL     1      25.605  -1.092  53.007  1.00  0.00     0.024 C 
HETATM   25  C22 UNL     1      24.876  -0.080  53.830  1.00  0.00     0.041 C 
HETATM   26  H25 UNL     1      28.880  -0.633  53.171  1.00  0.00     0.153 HD
ENDROOT
TORSDOF 0
ENDMDL
MODEL 4
REMARK VINA RESULT:      -9.0      3.171      5.847
REMARK  0 active torsions:
REMARK  status: ('A' for Active; 'I' for Inactive)
ROOT
HETATM    1  C1  UNL     1      21.816   3.302  49.130  1.00  0.00     0.020 C 
HETATM    2  C2  UNL     1      22.583   3.923  50.255  1.00  0.00    -0.019 C 
HETATM    3  C3  UNL     1      21.740   4.398  51.426  1.00  0.00     0.020 C 
HETATM    4  C4  UNL     1      22.886   5.311  49.613  1.00  0.00     0.013 C 
HETATM    5  C5  UNL     1      23.373   5.257  48.224  1.00  0.00     0.001 C 
HETATM    6  C6  UNL     1      24.330   6.448  48.088  1.00  0.00     0.008 C 
HETATM    7  C7  UNL     1      25.303   6.448  49.245  1.00  0.00     0.084 C 
HETATM    8  C8  UNL     1      25.751   5.067  49.566  1.00  0.00     0.160 C 
HETATM    9  O1  UNL     1      26.928   4.873  49.108  1.00  0.00    -0.292 OA
HETATM   10  C9  UNL     1      25.224   3.859  50.261  1.00  0.00     0.017 A 
HETATM   11  C10 UNL     1      26.431   3.286  50.540  1.00  0.00     0.016 A 
HETATM   12  C11 UNL     1      26.392   2.082  51.209  1.00  0.00     0.009 A 
HETATM   13  C12 UNL     1      25.167   1.561  51.538  1.00  0.00    -0.051 A 
HETATM   14  C13 UNL     1      23.933   2.137  51.262  1.00  0.00    -0.044 A 
HETATM   15  C14 UNL     1      23.906   3.391  50.564  1.00  0.00    -0.029 A 
HETATM   16  C15 UNL     1      22.630   1.691  51.599  1.00  0.00     0.042 C 
HETATM   17  C16 UNL     1      22.317   0.396  52.301  1.00  0.00     0.039 C 
HETATM   18  C17 UNL     1      22.736   0.255  53.719  1.00  0.00     0.146 C 
HETATM   19  O2  UNL     1      21.714   0.094  54.646  1.00  0.00    -0.382 OA
HETATM   20  C18 UNL     1      22.144  -1.161  54.938  1.00  0.00     0.195 C 
HETATM   21  C19 UNL     1      23.411  -1.002  54.111  1.00  0.00     0.129 C 
HETATM   22  N1  UNL     1      24.519  -0.806  54.965  1.00  0.00    -0.413 N 
HETATM   23  C20 UNL     1      25.834  -0.772  54.437  1.00  0.00     0.114 C 
HETATM   24  C21 UNL     1      25.987   0.455  53.540  1.00  0.00     0.024 C 
HETATM   25  C22 UNL     1      25.340   0.266  52.206  1.00  0.00     0.041 C 
HETATM   26  H25 UNL     1      24.439  -1.301  55.882  1.00  0.00     0.153 HD
ENDROOT
TORSDOF 0
ENDMDL
MODEL 5
REMARK VINA RESULT:      -8.9      2.412      6.607
REMARK  0 active torsions:
REMARK  status: ('A' for Active; 'I' for Inactive)
ROOT
HETATM    1  C1  UNL     1      20.363   3.030  50.373  1.00  0.00     0.020 C 
HETATM    2  C2  UNL     1      20.463   1.541  50.276  1.00  0.00    -0.019 C 
HETATM    3  C3  UNL     1      21.442   1.026  49.235  1.00  0.00     0.020 C 
HETATM    4  C4  UNL     1      19.138   1.253  49.505  1.00  0.00     0.013 C 
HETATM    5  C5  UNL     1      17.955   1.961  50.024  1.00  0.00     0.001 C 
HETATM    6  C6  UNL     1      16.776   1.013  49.768  1.00  0.00     0.008 C 
HETATM    7  C7  UNL     1      17.124  -0.371  50.268  1.00  0.00     0.084 C 
HETATM    8  C8  UNL     1      17.860  -0.304  51.559  1.00  0.00     0.160 C 
HETATM    9  O1  UNL     1      17.074  -0.598  52.523  1.00  0.00    -0.292 OA
HETATM   10  C9  UNL     1      19.235   0.007  52.042  1.00  0.00     0.017 A 
HETATM   11  C10 UNL     1      19.153  -0.670  53.224  1.00  0.00     0.016 A 
HETATM   12  C11 UNL     1      20.274  -0.630  54.025  1.00  0.00     0.009 A 
HETATM   13  C12 UNL     1      21.365   0.071  53.581  1.00  0.00    -0.051 A 
HETATM   14  C13 UNL     1      21.460   0.759  52.378  1.00  0.00    -0.044 A 
HETATM   15  C14 UNL     1      20.324   0.759  51.500  1.00  0.00    -0.029 A 
HETATM   16  C15 UNL     1      22.555   1.470  51.826  1.00  0.00     0.042 C 
HETATM   17  C16 UNL     1      23.879   1.683  52.513  1.00  0.00     0.039 C 
HETATM   18  C17 UNL     1      24.750   0.501  52.727  1.00  0.00     0.146 C 
HETATM   19  O2  UNL     1      25.977   0.518  52.075  1.00  0.00    -0.382 OA
HETATM   20  C18 UNL     1      26.634   0.565  53.263  1.00  0.00     0.195 C 
HETATM   21  C19 UNL     1      25.362   0.334  54.065  1.00  0.00     0.129 C 
HETATM   22  N1  UNL     1      25.329  -0.996  54.539  1.00  0.00    -0.413 N 
HETATM   23  C20 UNL     1      24.310  -1.415  55.430  1.00  0.00     0.114 C 
HETATM   24  C21 UNL     1      22.961  -1.370  54.713  1.00  0.00     0.024 C 
HETATM   25  C22 UNL     1      22.431   0.021  54.588  1.00  0.00     0.041 C 
HETATM   26  H25 UNL     1      26.273  -1.392  54.752  1.00  0.00     0.153 HD
ENDROOT
TORSDOF 0
ENDMDL
MODEL 6
REMARK VINA RESULT:      -8.8      3.404      5.536
REMARK  0 active torsions:
REMARK  status: ('A' for Active; 'I' for Inactive)
ROOT
HETATM    1  C1  UNL     1      25.725   0.769  52.074  1.00  0.00     0.020 C 
HETATM    2  C2  UNL     1      24.601   1.668  52.483  1.00  0.00    -0.019 C 
HETATM    3  C3  UNL     1      24.986   2.796  53.424  1.00  0.00     0.020 C 
HETATM    4  C4  UNL     1      23.901   0.736  53.518  1.00  0.00     0.013 C 
HETATM    5  C5  UNL     1      23.713  -0.655  53.070  1.00  0.00     0.001 C 
HETATM    6  C6  UNL     1      22.410  -1.118  53.734  1.00  0.00     0.008 C 
HETATM    7  C7  UNL     1      21.332  -0.084  53.503  1.00  0.00     0.084 C 
HETATM    8  C8  UNL     1      21.401   0.462  52.121  1.00  0.00     0.160 C 
HETATM    9  O1  UNL     1      20.484  -0.060  51.400  1.00  0.00    -0.292 OA
HETATM   10  C9  UNL     1      22.227   1.431  51.347  1.00  0.00     0.017 A 
HETATM   11  C10 UNL     1      21.305   1.701  50.378  1.00  0.00     0.016 A 
HETATM   12  C11 UNL     1      21.690   2.597  49.405  1.00  0.00     0.009 A 
HETATM   13  C12 UNL     1      22.947   3.140  49.483  1.00  0.00    -0.051 A 
HETATM   14  C13 UNL     1      23.892   2.875  50.467  1.00  0.00    -0.044 A 
HETATM   15  C14 UNL     1      23.552   1.947  51.507  1.00  0.00    -0.029 A 
HETATM   16  C15 UNL     1      25.189   3.418  50.645  1.00  0.00     0.042 C 
HETATM   17  C16 UNL     1      25.852   4.392  49.706  1.00  0.00     0.039 C 
HETATM   18  C17 UNL     1      25.288   5.762  49.612  1.00  0.00     0.146 C 
HETATM   19  O2  UNL     1      26.121   6.797  50.018  1.00  0.00    -0.382 OA
HETATM   20  C18 UNL     1      26.163   7.290  48.753  1.00  0.00     0.195 C 
HETATM   21  C19 UNL     1      25.092   6.330  48.259  1.00  0.00     0.129 C 
HETATM   22  N1  UNL     1      23.867   7.016  48.107  1.00  0.00    -0.413 N 
HETATM   23  C20 UNL     1      22.749   6.368  47.525  1.00  0.00     0.114 C 
HETATM   24  C21 UNL     1      22.289   5.233  48.439  1.00  0.00     0.024 C 
HETATM   25  C22 UNL     1      23.174   4.033  48.342  1.00  0.00     0.041 C 
HETATM   26  H25 UNL     1      23.975   8.017  47.825  1.00  0.00     0.153 HD
ENDROOT
TORSDOF 0
ENDMDL
MODEL 7
REMARK VINA RESULT:      -8.7      2.712      6.381
REMARK  0 active torsions:
REMARK  status: ('A' for Active; 'I' for Inactive)
ROOT
HETATM    1  C1  UNL     1      24.862   5.240  50.592  1.00  0.00     0.020 C 
HETATM    2  C2  UNL     1      24.837   3.874  49.981  1.00  0.00    -0.019 C 
HETATM    3  C3  UNL     1      26.180   3.358  49.498  1.00  0.00     0.020 C 
HETATM    4  C4  UNL     1      24.218   4.233  48.596  1.00  0.00     0.013 C 
HETATM    5  C5  UNL     1      23.047   5.125  48.654  1.00  0.00     0.001 C 
HETATM    6  C6  UNL     1      22.163   4.703  47.473  1.00  0.00     0.008 C 
HETATM    7  C7  UNL     1      21.987   3.202  47.486  1.00  0.00     0.084 C 
HETATM    8  C8  UNL     1      21.802   2.697  48.872  1.00  0.00     0.160 C 
HETATM    9  O1  UNL     1      20.569   2.432  49.079  1.00  0.00    -0.292 OA
HETATM   10  C9  UNL     1      22.635   2.416  50.075  1.00  0.00     0.017 A 
HETATM   11  C10 UNL     1      21.787   1.523  50.662  1.00  0.00     0.016 A 
HETATM   12  C11 UNL     1      22.198   0.994  51.866  1.00  0.00     0.009 A 
HETATM   13  C12 UNL     1      23.406   1.398  52.374  1.00  0.00    -0.051 A 
HETATM   14  C13 UNL     1      24.279   2.303  51.783  1.00  0.00    -0.044 A 
HETATM   15  C14 UNL     1      23.906   2.892  50.528  1.00  0.00    -0.029 A 
HETATM   16  C15 UNL     1      25.556   2.743  52.215  1.00  0.00     0.042 C 
HETATM   17  C16 UNL     1      26.215   2.338  53.508  1.00  0.00     0.039 C 
HETATM   18  C17 UNL     1      26.647   0.925  53.655  1.00  0.00     0.146 C 
HETATM   19  O2  UNL     1      28.013   0.715  53.806  1.00  0.00    -0.382 OA
HETATM   20  C18 UNL     1      27.825   0.244  55.066  1.00  0.00     0.195 C 
HETATM   21  C19 UNL     1      26.311   0.235  54.921  1.00  0.00     0.129 C 
HETATM   22  N1  UNL     1      25.854  -1.089  54.738  1.00  0.00    -0.413 N 
HETATM   23  C20 UNL     1      24.466  -1.373  54.718  1.00  0.00     0.114 C 
HETATM   24  C21 UNL     1      23.833  -0.717  53.492  1.00  0.00     0.024 C 
HETATM   25  C22 UNL     1      23.641   0.754  53.671  1.00  0.00     0.041 C 
HETATM   26  H25 UNL     1      26.430  -1.807  55.233  1.00  0.00     0.153 HD
ENDROOT
TORSDOF 0
ENDMDL
MODEL 8
REMARK VINA RESULT:      -8.6      4.348      7.296
REMARK  0 active torsions:
REMARK  status: ('A' for Active; 'I' for Inactive)
ROOT
HETATM    1  C1  UNL     1      22.202   4.943  47.697  1.00  0.00     0.020 C 
HETATM    2  C2  UNL     1      22.956   5.616  48.801  1.00  0.00    -0.019 C 
HETATM    3  C3  UNL     1      22.142   5.924  50.045  1.00  0.00     0.020 C 
HETATM    4  C4  UNL     1      23.027   7.057  48.211  1.00  0.00     0.013 C 
HETATM    5  C5  UNL     1      23.419   7.126  46.792  1.00  0.00     0.001 C 
HETATM    6  C6  UNL     1      24.197   8.441  46.655  1.00  0.00     0.008 C 
HETATM    7  C7  UNL     1      25.240   8.526  47.746  1.00  0.00     0.084 C 
HETATM    8  C8  UNL     1      25.889   7.207  47.969  1.00  0.00     0.160 C 
HETATM    9  O1  UNL     1      27.047   7.194  47.428  1.00  0.00    -0.292 OA
HETATM   10  C9  UNL     1      25.577   5.911  48.635  1.00  0.00     0.017 A 
HETATM   11  C10 UNL     1      26.865   5.497  48.808  1.00  0.00     0.016 A 
HETATM   12  C11 UNL     1      27.034   4.272  49.417  1.00  0.00     0.009 A 
HETATM   13  C12 UNL     1      25.915   3.577  49.797  1.00  0.00    -0.051 A 
HETATM   14  C13 UNL     1      24.599   3.991  49.629  1.00  0.00    -0.044 A 
HETATM   15  C14 UNL     1      24.357   5.256  48.998  1.00  0.00    -0.029 A 
HETATM   16  C15 UNL     1      23.394   3.358  50.026  1.00  0.00     0.042 C 
HETATM   17  C16 UNL     1      23.306   2.005  50.682  1.00  0.00     0.039 C 
HETATM   18  C17 UNL     1      23.837   1.865  52.061  1.00  0.00     0.146 C 
HETATM   19  O2  UNL     1      22.913   1.529  53.042  1.00  0.00    -0.382 OA
HETATM   20  C18 UNL     1      23.526   0.333  53.243  1.00  0.00     0.195 C 
HETATM   21  C19 UNL     1      24.700   0.696  52.347  1.00  0.00     0.129 C 
HETATM   22  N1  UNL     1      25.828   1.006  53.136  1.00  0.00    -0.413 N 
HETATM   23  C20 UNL     1      27.087   1.240  52.529  1.00  0.00     0.114 C 
HETATM   24  C21 UNL     1      27.013   2.512  51.685  1.00  0.00     0.024 C 
HETATM   25  C22 UNL     1      26.305   2.292  50.388  1.00  0.00     0.041 C 
HETATM   26  H25 UNL     1      25.879   0.468  54.031  1.00  0.00     0.153 HD
ENDROOT
TORSDOF 0
ENDMDL
MODEL 9
REMARK VINA RESULT:      -8.5      2.141      4.075
REMARK  0 active torsions:
REMARK  status: ('A' for Active; 'I' for Inactive)
ROOT
HETATM    1  C1  UNL     1      20.961   0.246  54.049  1.00  0.00     0.020 C 
HETATM    2  C2  UNL     1      21.826   0.409  52.839  1.00  0.00    -0.019 C 
HETATM    3  C3  UNL     1      21.315  -0.276  51.584  1.00  0.00     0.020 C 
HETATM    4  C4  UNL     1      22.958  -0.599  53.204  1.00  0.00     0.013 C 
HETATM    5  C5  UNL     1      23.458  -0.493  54.587  1.00  0.00     0.001 C 
HETATM    6  C6  UNL     1      24.943  -0.871  54.506  1.00  0.00     0.008 C 
HETATM    7  C7  UNL     1      25.600  -0.093  53.389  1.00  0.00     0.084 C 
HETATM    8  C8  UNL     1      25.105   1.309  53.350  1.00  0.00     0.160 C 
HETATM    9  O1  UNL     1      25.977   2.093  53.858  1.00  0.00    -0.292 OA
HETATM   10  C9  UNL     1      23.896   2.050  52.894  1.00  0.00     0.017 A 
HETATM   11  C10 UNL     1      24.491   3.270  52.753  1.00  0.00     0.016 A 
HETATM   12  C11 UNL     1      23.676   4.298  52.330  1.00  0.00     0.009 A 
HETATM   13  C12 UNL     1      22.355   4.022  52.086  1.00  0.00    -0.051 A 
HETATM   14  C13 UNL     1      21.741   2.783  52.223  1.00  0.00    -0.044 A 
HETATM   15  C14 UNL     1      22.535   1.672  52.663  1.00  0.00    -0.029 A 
HETATM   16  C15 UNL     1      20.402   2.403  51.955  1.00  0.00     0.042 C 
HETATM   17  C16 UNL     1      19.311   3.343  51.512  1.00  0.00     0.039 C 
HETATM   18  C17 UNL     1      19.416   3.940  50.157  1.00  0.00     0.146 C 
HETATM   19  O2  UNL     1      18.409   3.604  49.260  1.00  0.00    -0.382 OA
HETATM   20  C18 UNL     1      17.978   4.891  49.225  1.00  0.00     0.195 C 
HETATM   21  C19 UNL     1      19.168   5.394  50.028  1.00  0.00     0.129 C 
HETATM   22  N1  UNL     1      20.081   6.048  49.172  1.00  0.00    -0.413 N 
HETATM   23  C20 UNL     1      21.205   6.726  49.707  1.00  0.00     0.114 C 
HETATM   24  C21 UNL     1      22.148   5.711  50.352  1.00  0.00     0.024 C 
HETATM   25  C22 UNL     1      21.657   5.248  51.685  1.00  0.00     0.041 C 
HETATM   26  H25 UNL     1      19.629   6.539  48.367  1.00  0.00     0.153 HD
ENDROOT
TORSDOF 0
ENDMDL
