MODEL 1
REMARK VINA RESULT:      -8.1      0.000      0.000
REMARK  6 active torsions:
REMARK  status: ('A' for Active; 'I' for Inactive)
REMARK    1  A    between atoms: O1_1  and  C1_2 
REMARK    2  A    between atoms: C3_7  and  C4_8 
REMARK    3  A    between atoms: C4_8  and  C5_9 
REMARK    4  A    between atoms: C5_9  and  C6_10 
REMARK    5  A    between atoms: C6_10  and  C7_11 
REMARK    6  A    between atoms: C7_11  and  C8_13 
ROOT
HETATM    1  C1  UNL     1      28.173   2.209  53.291  1.00  0.00     0.169 C 
HETATM    2  C2  UNL     1      28.353   1.271  54.201  1.00  0.00     0.127 C 
HETATM    3  S1  UNL     1      27.319   0.021  54.983  1.00  0.00    -0.000 SA
HETATM    4  N1  UNL     1      25.923  -0.178  53.945  1.00  0.00    -0.223 N 
HETATM    5  N2  UNL     1      25.368  -0.642  55.166  1.00  0.00    -0.167 NA
HETATM    6  C3  UNL     1      24.281  -0.827  54.505  1.00  0.00     0.085 A 
HETATM    7  C9  UNL     1      24.728  -0.384  53.196  1.00  0.00     0.205 A 
HETATM    8  C10 UNL     1      24.221   0.929  52.738  1.00  0.00    -0.015 A 
HETATM    9  C11 UNL     1      22.880   1.106  52.975  1.00  0.00     0.012 A 
HETATM   10  C12 UNL     1      22.182   2.241  52.638  1.00  0.00     0.020 A 
HETATM   11  C13 UNL     1      22.826   3.294  52.022  1.00  0.00     0.011 A 
HETATM   12 BR1  UNL     1      21.986   4.922  51.503  1.00  0.00    -0.051 Br
HETATM   13  C14 UNL     1      24.197   3.087  51.791  1.00  0.00     0.032 A 
HETATM   14  C15 UNL     1      24.912   1.930  52.134  1.00  0.00    -0.009 A 
HETATM   15  C16 UNL     1      26.320   2.038  51.760  1.00  0.00     0.131 C 
HETATM   16  N3  UNL     1      26.825   2.096  52.938  1.00  0.00    -0.236 NA
ENDROOT
BRANCH   6  17
HETATM   17  C4  UNL     1      23.118  -1.348  55.179  1.00  0.00     0.031 C 
BRANCH  17  18
HETATM   18  C5  UNL     1      21.990  -1.420  54.512  1.00  0.00     0.004 C 
BRANCH  18  19
HETATM   19  C6  UNL     1      20.606  -1.573  54.148  1.00  0.00     0.022 C 
BRANCH  19  20
HETATM   20  C7  UNL     1      19.446  -1.387  53.576  1.00  0.00     0.040 C 
HETATM   21 CL1  UNL     1      18.056  -2.407  53.648  1.00  0.00    -0.086 Cl
BRANCH  20  22
HETATM   22  C8  UNL     1      19.242  -0.170  52.758  1.00  0.00     0.273 C 
HETATM   23  F1  UNL     1      20.061  -0.180  51.637  1.00  0.00    -0.250 F 
ENDBRANCH  20  22
ENDBRANCH  19  20
ENDBRANCH  18  19
ENDBRANCH  17  18
ENDBRANCH   6  17
BRANCH   1  24
HETATM   24  O1  UNL     1      29.345   2.955  53.012  1.00  0.00    -0.344 OA
HETATM   25  H1  UNL     1      29.756   2.705  52.122  1.00  0.00     0.219 HD
ENDBRANCH   1  24
TORSDOF 6
ENDMDL
MODEL 2
REMARK VINA RESULT:      -7.4      8.951     11.023
REMARK  6 active torsions:
REMARK  status: ('A' for Active; 'I' for Inactive)
REMARK    1  A    between atoms: O1_1  and  C1_2 
REMARK    2  A    between atoms: C3_7  and  C4_8 
REMARK    3  A    between atoms: C4_8  and  C5_9 
REMARK    4  A    between atoms: C5_9  and  C6_10 
REMARK    5  A    between atoms: C6_10  and  C7_11 
REMARK    6  A    between atoms: C7_11  and  C8_13 
ROOT
HETATM    1  C1  UNL     1      27.055  10.532  48.663  1.00  0.00     0.169 C 
HETATM    2  C2  UNL     1      28.320  10.852  48.860  1.00  0.00     0.127 C 
HETATM    3  S1  UNL     1      29.877   9.951  48.951  1.00  0.00    -0.000 SA
HETATM    4  N1  UNL     1      29.589   8.401  48.189  1.00  0.00    -0.223 N 
HETATM    5  N2  UNL     1      30.694   8.051  49.009  1.00  0.00    -0.167 NA
HETATM    6  C3  UNL     1      30.577   6.868  48.518  1.00  0.00     0.085 A 
HETATM    7  C9  UNL     1      29.450   7.097  47.630  1.00  0.00     0.205 A 
HETATM    8  C10 UNL     1      28.151   6.532  48.058  1.00  0.00    -0.015 A 
HETATM    9  C11 UNL     1      28.248   5.250  48.541  1.00  0.00     0.012 A 
HETATM   10  C12 UNL     1      27.180   4.516  48.996  1.00  0.00     0.020 A 
HETATM   11  C13 UNL     1      25.911   5.058  48.986  1.00  0.00     0.011 A 
HETATM   12 BR1  UNL     1      24.345   4.157  49.588  1.00  0.00    -0.051 Br
HETATM   13  C14 UNL     1      25.839   6.369  48.488  1.00  0.00     0.032 A 
HETATM   14  C15 UNL     1      26.928   7.122  48.024  1.00  0.00    -0.009 A 
HETATM   15  C16 UNL     1      26.513   8.449  47.577  1.00  0.00     0.131 C 
HETATM   16  N3  UNL     1      27.070   9.143  48.503  1.00  0.00    -0.236 NA
ENDROOT
BRANCH   6  17
HETATM   17  C4  UNL     1      31.479   5.828  48.945  1.00  0.00     0.031 C 
BRANCH  17  18
HETATM   18  C5  UNL     1      31.946   4.998  48.042  1.00  0.00     0.004 C 
BRANCH  18  19
HETATM   19  C6  UNL     1      32.377   3.818  47.340  1.00  0.00     0.022 C 
BRANCH  19  20
HETATM   20  C7  UNL     1      33.129   2.854  46.879  1.00  0.00     0.040 C 
HETATM   21 CL1  UNL     1      34.711   2.978  46.201  1.00  0.00    -0.086 Cl
BRANCH  20  22
HETATM   22  C8  UNL     1      32.613   1.466  46.919  1.00  0.00     0.273 C 
HETATM   23  F1  UNL     1      31.363   1.381  46.321  1.00  0.00    -0.250 F 
ENDBRANCH  20  22
ENDBRANCH  19  20
ENDBRANCH  18  19
ENDBRANCH  17  18
ENDBRANCH   6  17
BRANCH   1  24
HETATM   24  O1  UNL     1      26.182  11.647  48.684  1.00  0.00    -0.344 OA
HETATM   25  H1  UNL     1      25.685  11.761  47.810  1.00  0.00     0.219 HD
ENDBRANCH   1  24
TORSDOF 6
ENDMDL
MODEL 3
REMARK VINA RESULT:      -7.0      0.994      1.101
REMARK  6 active torsions:
REMARK  status: ('A' for Active; 'I' for Inactive)
REMARK    1  A    between atoms: O1_1  and  C1_2 
REMARK    2  A    between atoms: C3_7  and  C4_8 
REMARK    3  A    between atoms: C4_8  and  C5_9 
REMARK    4  A    between atoms: C5_9  and  C6_10 
REMARK    5  A    between atoms: C6_10  and  C7_11 
REMARK    6  A    between atoms: C7_11  and  C8_13 
ROOT
HETATM    1  C1  UNL     1      27.783   1.598  53.028  1.00  0.00     0.169 C 
HETATM    2  C2  UNL     1      27.723   0.629  53.921  1.00  0.00     0.127 C 
HETATM    3  S1  UNL     1      26.416  -0.377  54.644  1.00  0.00    -0.000 SA
HETATM    4  N1  UNL     1      25.046  -0.250  53.561  1.00  0.00    -0.223 N 
HETATM    5  N2  UNL     1      24.362  -0.600  54.754  1.00  0.00    -0.167 NA
HETATM    6  C3  UNL     1      23.284  -0.534  54.056  1.00  0.00     0.085 A 
HETATM    7  C9  UNL     1      23.861  -0.179  52.772  1.00  0.00     0.205 A 
HETATM    8  C10 UNL     1      23.668   1.220  52.328  1.00  0.00    -0.015 A 
HETATM    9  C11 UNL     1      22.390   1.681  52.529  1.00  0.00     0.012 A 
HETATM   10  C12 UNL     1      21.968   2.946  52.197  1.00  0.00     0.020 A 
HETATM   11  C13 UNL     1      22.846   3.843  51.624  1.00  0.00     0.011 A 
HETATM   12 BR1  UNL     1      22.398   5.623  51.118  1.00  0.00    -0.051 Br
HETATM   13  C14 UNL     1      24.146   3.346  51.430  1.00  0.00     0.032 A 
HETATM   14  C15 UNL     1      24.581   2.056  51.768  1.00  0.00    -0.009 A 
HETATM   15  C16 UNL     1      25.989   1.859  51.438  1.00  0.00     0.131 C 
HETATM   16  N3  UNL     1      26.455   1.787  52.633  1.00  0.00    -0.236 NA
ENDROOT
BRANCH   6  17
HETATM   17  C4  UNL     1      22.013  -0.799  54.683  1.00  0.00     0.031 C 
BRANCH  17  18
HETATM   18  C5  UNL     1      20.992  -1.107  53.919  1.00  0.00     0.004 C 
BRANCH  18  19
HETATM   19  C6  UNL     1      19.718  -1.112  53.248  1.00  0.00     0.022 C 
BRANCH  19  20
HETATM   20  C7  UNL     1      18.554  -0.730  52.794  1.00  0.00     0.040 C 
HETATM   21 CL1  UNL     1      16.993  -1.227  53.336  1.00  0.00    -0.086 Cl
BRANCH  20  22
HETATM   22  C8  UNL     1      18.508   0.248  51.683  1.00  0.00     0.273 C 
HETATM   23  F1  UNL     1      17.974  -0.324  50.537  1.00  0.00    -0.250 F 
ENDBRANCH  20  22
ENDBRANCH  19  20
ENDBRANCH  18  19
ENDBRANCH  17  18
ENDBRANCH   6  17
BRANCH   1  24
HETATM   24  O1  UNL     1      29.097   2.075  52.801  1.00  0.00    -0.344 OA
HETATM   25  H1  UNL     1      29.348   2.824  53.433  1.00  0.00     0.219 HD
ENDBRANCH   1  24
TORSDOF 6
ENDMDL
MODEL 4
REMARK VINA RESULT:      -7.0      4.822      6.683
REMARK  6 active torsions:
REMARK  status: ('A' for Active; 'I' for Inactive)
REMARK    1  A    between atoms: O1_1  and  C1_2 
REMARK    2  A    between atoms: C3_7  and  C4_8 
REMARK    3  A    between atoms: C4_8  and  C5_9 
REMARK    4  A    between atoms: C5_9  and  C6_10 
REMARK    5  A    between atoms: C6_10  and  C7_11 
REMARK    6  A    between atoms: C7_11  and  C8_13 
ROOT
HETATM    1  C1  UNL     1      20.836   3.566  48.728  1.00  0.00     0.169 C 
HETATM    2  C2  UNL     1      21.790   4.459  48.909  1.00  0.00     0.127 C 
HETATM    3  S1  UNL     1      23.199   4.631  50.018  1.00  0.00    -0.000 SA
HETATM    4  N1  UNL     1      23.518   3.031  50.654  1.00  0.00    -0.223 N 
HETATM    5  N2  UNL     1      24.111   3.809  51.683  1.00  0.00    -0.167 NA
HETATM    6  C3  UNL     1      24.397   2.690  52.249  1.00  0.00     0.085 A 
HETATM    7  C9  UNL     1      23.834   1.782  51.264  1.00  0.00     0.205 A 
HETATM    8  C10 UNL     1      22.574   1.104  51.641  1.00  0.00    -0.015 A 
HETATM    9  C11 UNL     1      22.580   0.622  52.927  1.00  0.00     0.012 A 
HETATM   10  C12 UNL     1      21.526  -0.045  53.504  1.00  0.00     0.020 A 
HETATM   11  C13 UNL     1      20.369  -0.269  52.785  1.00  0.00     0.011 A 
HETATM   12 BR1  UNL     1      18.835  -1.174  53.457  1.00  0.00    -0.051 Br
HETATM   13  C14 UNL     1      20.390   0.234  51.473  1.00  0.00     0.032 A 
HETATM   14  C15 UNL     1      21.463   0.917  50.882  1.00  0.00    -0.009 A 
HETATM   15  C16 UNL     1      21.160   1.308  49.508  1.00  0.00     0.131 C 
HETATM   16  N3  UNL     1      21.100   2.579  49.683  1.00  0.00    -0.236 NA
ENDROOT
BRANCH   6  17
HETATM   17  C4  UNL     1      25.095   2.689  53.510  1.00  0.00     0.031 C 
BRANCH  17  18
HETATM   18  C5  UNL     1      26.197   1.983  53.613  1.00  0.00     0.004 C 
BRANCH  18  19
HETATM   19  C6  UNL     1      27.153   0.908  53.633  1.00  0.00     0.022 C 
BRANCH  19  20
HETATM   20  C7  UNL     1      27.693  -0.275  53.501  1.00  0.00     0.040 C 
HETATM   21 CL1  UNL     1      27.030  -1.657  52.708  1.00  0.00    -0.086 Cl
BRANCH  20  22
HETATM   22  C8  UNL     1      29.035  -0.515  54.079  1.00  0.00     0.273 C 
HETATM   23  F1  UNL     1      29.992  -0.643  53.082  1.00  0.00    -0.250 F 
ENDBRANCH  20  22
ENDBRANCH  19  20
ENDBRANCH  18  19
ENDBRANCH  17  18
ENDBRANCH   6  17
BRANCH   1  24
HETATM   24  O1  UNL     1      19.935   3.907  47.690  1.00  0.00    -0.344 OA
HETATM   25  H1  UNL     1      20.413   4.130  46.826  1.00  0.00     0.219 HD
ENDBRANCH   1  24
TORSDOF 6
ENDMDL
MODEL 5
REMARK VINA RESULT:      -6.5      6.241      8.489
REMARK  6 active torsions:
REMARK  status: ('A' for Active; 'I' for Inactive)
REMARK    1  A    between atoms: O1_1  and  C1_2 
REMARK    2  A    between atoms: C3_7  and  C4_8 
REMARK    3  A    between atoms: C4_8  and  C5_9 
REMARK    4  A    between atoms: C5_9  and  C6_10 
REMARK    5  A    between atoms: C6_10  and  C7_11 
REMARK    6  A    between atoms: C7_11  and  C8_13 
ROOT
HETATM    1  C1  UNL     1      19.025   3.250  49.897  1.00  0.00     0.169 C 
HETATM    2  C2  UNL     1      19.578   4.323  49.363  1.00  0.00     0.127 C 
HETATM    3  S1  UNL     1      21.257   4.941  49.160  1.00  0.00    -0.000 SA
HETATM    4  N1  UNL     1      22.314   3.561  49.371  1.00  0.00    -0.223 N 
HETATM    5  N2  UNL     1      23.227   4.599  49.692  1.00  0.00    -0.167 NA
HETATM    6  C3  UNL     1      24.092   3.666  49.880  1.00  0.00     0.085 A 
HETATM    7  C9  UNL     1      23.263   2.515  49.568  1.00  0.00     0.205 A 
HETATM    8  C10 UNL     1      22.827   1.688  50.715  1.00  0.00    -0.015 A 
HETATM    9  C11 UNL     1      23.832   1.442  51.619  1.00  0.00     0.012 A 
HETATM   10  C12 UNL     1      23.672   0.698  52.763  1.00  0.00     0.020 A 
HETATM   11  C13 UNL     1      22.444   0.143  53.065  1.00  0.00     0.011 A 
HETATM   12 BR1  UNL     1      22.081  -0.905  54.612  1.00  0.00    -0.051 Br
HETATM   13  C14 UNL     1      21.435   0.410  52.124  1.00  0.00     0.032 A 
HETATM   14  C15 UNL     1      21.595   1.170  50.956  1.00  0.00    -0.009 A 
HETATM   15  C16 UNL     1      20.350   1.259  50.198  1.00  0.00     0.131 C 
HETATM   16  N3  UNL     1      20.108   2.506  50.378  1.00  0.00    -0.236 NA
ENDROOT
BRANCH   6  17
HETATM   17  C4  UNL     1      25.432   4.009  50.285  1.00  0.00     0.031 C 
BRANCH  17  18
HETATM   18  C5  UNL     1      26.290   4.372  49.360  1.00  0.00     0.004 C 
BRANCH  18  19
HETATM   19  C6  UNL     1      27.410   4.946  48.661  1.00  0.00     0.022 C 
BRANCH  19  20
HETATM   20  C7  UNL     1      28.362   5.768  48.308  1.00  0.00     0.040 C 
HETATM   21 CL1  UNL     1      30.063   5.477  48.307  1.00  0.00    -0.086 Cl
BRANCH  20  22
HETATM   22  C8  UNL     1      27.996   7.125  47.841  1.00  0.00     0.273 C 
HETATM   23  F1  UNL     1      26.666   7.175  47.449  1.00  0.00    -0.250 F 
ENDBRANCH  20  22
ENDBRANCH  19  20
ENDBRANCH  18  19
ENDBRANCH  17  18
ENDBRANCH   6  17
BRANCH   1  24
HETATM   24  O1  UNL     1      17.613   3.235  49.798  1.00  0.00    -0.344 OA
HETATM   25  H1  UNL     1      17.297   3.152  48.840  1.00  0.00     0.219 HD
ENDBRANCH   1  24
TORSDOF 6
ENDMDL
MODEL 6
REMARK VINA RESULT:      -6.5      6.593      8.625
REMARK  6 active torsions:
REMARK  status: ('A' for Active; 'I' for Inactive)
REMARK    1  A    between atoms: O1_1  and  C1_2 
REMARK    2  A    between atoms: C3_7  and  C4_8 
REMARK    3  A    between atoms: C4_8  and  C5_9 
REMARK    4  A    between atoms: C5_9  and  C6_10 
REMARK    5  A    between atoms: C6_10  and  C7_11 
REMARK    6  A    between atoms: C7_11  and  C8_13 
ROOT
HETATM    1  C1  UNL     1      23.678   8.318  47.200  1.00  0.00     0.169 C 
HETATM    2  C2  UNL     1      22.918   7.305  47.570  1.00  0.00     0.127 C 
HETATM    3  S1  UNL     1      23.197   5.694  48.325  1.00  0.00    -0.000 SA
HETATM    4  N1  UNL     1      24.784   5.769  49.062  1.00  0.00    -0.223 N 
HETATM    5  N2  UNL     1      24.674   4.363  48.897  1.00  0.00    -0.167 NA
HETATM    6  C3  UNL     1      25.844   4.294  49.427  1.00  0.00     0.085 A 
HETATM    7  C9  UNL     1      26.078   5.709  49.656  1.00  0.00     0.205 A 
HETATM    8  C10 UNL     1      27.047   6.370  48.754  1.00  0.00    -0.015 A 
HETATM    9  C11 UNL     1      28.184   5.629  48.542  1.00  0.00     0.012 A 
HETATM   10  C12 UNL     1      29.227   6.032  47.744  1.00  0.00     0.020 A 
HETATM   11  C13 UNL     1      29.176   7.250  47.096  1.00  0.00     0.011 A 
HETATM   12 BR1  UNL     1      30.545   7.932  45.962  1.00  0.00    -0.051 Br
HETATM   13  C14 UNL     1      28.003   7.988  47.331  1.00  0.00     0.032 A 
HETATM   14  C15 UNL     1      26.935   7.578  48.144  1.00  0.00    -0.009 A 
HETATM   15  C16 UNL     1      25.868   8.575  48.172  1.00  0.00     0.131 C 
HETATM   16  N3  UNL     1      24.976   7.915  47.528  1.00  0.00    -0.236 NA
ENDROOT
BRANCH   6  17
HETATM   17  C4  UNL     1      26.470   3.008  49.603  1.00  0.00     0.031 C 
BRANCH  17  18
HETATM   18  C5  UNL     1      26.503   2.490  50.809  1.00  0.00     0.004 C 
BRANCH  18  19
HETATM   19  C6  UNL     1      26.789   1.662  51.951  1.00  0.00     0.022 C 
BRANCH  19  20
HETATM   20  C7  UNL     1      27.439   0.987  52.862  1.00  0.00     0.040 C 
HETATM   21 CL1  UNL     1      27.132  -0.623  53.404  1.00  0.00    -0.086 Cl
BRANCH  20  22
HETATM   22  C8  UNL     1      28.586   1.629  53.543  1.00  0.00     0.273 C 
HETATM   23  F1  UNL     1      28.643   2.985  53.251  1.00  0.00    -0.250 F 
ENDBRANCH  20  22
ENDBRANCH  19  20
ENDBRANCH  18  19
ENDBRANCH  17  18
ENDBRANCH   6  17
BRANCH   1  24
HETATM   24  O1  UNL     1      22.948   9.393  46.635  1.00  0.00    -0.344 OA
HETATM   25  H1  UNL     1      23.553  10.126  46.287  1.00  0.00     0.219 HD
ENDBRANCH   1  24
TORSDOF 6
ENDMDL
MODEL 7
REMARK VINA RESULT:      -6.4      4.639      6.563
REMARK  6 active torsions:
REMARK  status: ('A' for Active; 'I' for Inactive)
REMARK    1  A    between atoms: O1_1  and  C1_2 
REMARK    2  A    between atoms: C3_7  and  C4_8 
REMARK    3  A    between atoms: C4_8  and  C5_9 
REMARK    4  A    between atoms: C5_9  and  C6_10 
REMARK    5  A    between atoms: C6_10  and  C7_11 
REMARK    6  A    between atoms: C7_11  and  C8_13 
ROOT
HETATM    1  C1  UNL     1      19.706   0.026  52.517  1.00  0.00     0.169 C 
HETATM    2  C2  UNL     1      20.613  -0.582  53.258  1.00  0.00     0.127 C 
HETATM    3  S1  UNL     1      22.397  -0.461  53.465  1.00  0.00    -0.000 SA
HETATM    4  N1  UNL     1      22.860   1.096  52.814  1.00  0.00    -0.223 N 
HETATM    5  N2  UNL     1      24.102   0.420  52.692  1.00  0.00    -0.167 NA
HETATM    6  C3  UNL     1      24.555   1.516  52.194  1.00  0.00     0.085 A 
HETATM    7  C9  UNL     1      23.349   2.321  52.271  1.00  0.00     0.205 A 
HETATM    8  C10 UNL     1      22.653   2.586  50.993  1.00  0.00    -0.015 A 
HETATM    9  C11 UNL     1      23.505   2.927  49.971  1.00  0.00     0.012 A 
HETATM   10  C12 UNL     1      23.095   3.219  48.692  1.00  0.00     0.020 A 
HETATM   11  C13 UNL     1      21.755   3.181  48.367  1.00  0.00     0.011 A 
HETATM   12 BR1  UNL     1      21.049   3.560  46.640  1.00  0.00    -0.051 Br
HETATM   13  C14 UNL     1      20.905   2.830  49.430  1.00  0.00     0.032 A 
HETATM   14  C15 UNL     1      21.320   2.530  50.736  1.00  0.00    -0.009 A 
HETATM   15  C16 UNL     1      20.188   2.201  51.598  1.00  0.00     0.131 C 
HETATM   16  N3  UNL     1      20.436   0.953  51.767  1.00  0.00    -0.236 NA
ENDROOT
BRANCH   6  17
HETATM   17  C4  UNL     1      25.933   1.590  51.776  1.00  0.00     0.031 C 
BRANCH  17  18
HETATM   18  C5  UNL     1      26.711   0.558  52.003  1.00  0.00     0.004 C 
BRANCH  18  19
HETATM   19  C6  UNL     1      27.458  -0.498  52.634  1.00  0.00     0.022 C 
BRANCH  19  20
HETATM   20  C7  UNL     1      28.423  -1.155  53.221  1.00  0.00     0.040 C 
HETATM   21 CL1  UNL     1      28.765  -2.843  53.125  1.00  0.00    -0.086 Cl
BRANCH  20  22
HETATM   22  C8  UNL     1      29.369  -0.411  54.084  1.00  0.00     0.273 C 
HETATM   23  F1  UNL     1      28.746   0.025  55.246  1.00  0.00    -0.250 F 
ENDBRANCH  20  22
ENDBRANCH  19  20
ENDBRANCH  18  19
ENDBRANCH  17  18
ENDBRANCH   6  17
BRANCH   1  24
HETATM   24  O1  UNL     1      18.390  -0.452  52.733  1.00  0.00    -0.344 OA
HETATM   25  H1  UNL     1      17.878   0.120  53.393  1.00  0.00     0.219 HD
ENDBRANCH   1  24
TORSDOF 6
ENDMDL
MODEL 8
REMARK VINA RESULT:      -6.3      5.104      6.771
REMARK  6 active torsions:
REMARK  status: ('A' for Active; 'I' for Inactive)
REMARK    1  A    between atoms: O1_1  and  C1_2 
REMARK    2  A    between atoms: C3_7  and  C4_8 
REMARK    3  A    between atoms: C4_8  and  C5_9 
REMARK    4  A    between atoms: C5_9  and  C6_10 
REMARK    5  A    between atoms: C6_10  and  C7_11 
REMARK    6  A    between atoms: C7_11  and  C8_13 
ROOT
HETATM    1  C1  UNL     1      27.063   2.079  52.142  1.00  0.00     0.169 C 
HETATM    2  C2  UNL     1      26.035   2.107  52.970  1.00  0.00     0.127 C 
HETATM    3  S1  UNL     1      24.466   2.987  53.045  1.00  0.00    -0.000 SA
HETATM    4  N1  UNL     1      24.160   3.579  51.426  1.00  0.00    -0.223 N 
HETATM    5  N2  UNL     1      23.368   4.500  52.160  1.00  0.00    -0.167 NA
HETATM    6  C3  UNL     1      23.072   5.023  51.023  1.00  0.00     0.085 A 
HETATM    7  C9  UNL     1      23.837   4.142  50.157  1.00  0.00     0.205 A 
HETATM    8  C10 UNL     1      25.067   4.711  49.563  1.00  0.00    -0.015 A 
HETATM    9  C11 UNL     1      24.897   5.985  49.077  1.00  0.00     0.012 A 
HETATM   10  C12 UNL     1      25.893   6.720  48.479  1.00  0.00     0.020 A 
HETATM   11  C13 UNL     1      27.158   6.187  48.335  1.00  0.00     0.011 A 
HETATM   12 BR1  UNL     1      28.627   7.091  47.530  1.00  0.00    -0.051 Br
HETATM   13  C14 UNL     1      27.304   4.883  48.839  1.00  0.00     0.032 A 
HETATM   14  C15 UNL     1      26.290   4.131  49.451  1.00  0.00    -0.009 A 
HETATM   15  C16 UNL     1      26.773   2.817  49.866  1.00  0.00     0.131 C 
HETATM   16  N3  UNL     1      26.722   2.990  51.137  1.00  0.00    -0.236 NA
ENDROOT
BRANCH   6  17
HETATM   17  C4  UNL     1      22.193   6.164  50.972  1.00  0.00     0.031 C 
BRANCH  17  18
HETATM   18  C5  UNL     1      21.572   6.424  49.845  1.00  0.00     0.004 C 
BRANCH  18  19
HETATM   19  C6  UNL     1      21.166   6.450  48.464  1.00  0.00     0.022 C 
BRANCH  19  20
HETATM   20  C7  UNL     1      21.207   6.534  47.160  1.00  0.00     0.040 C 
HETATM   21 CL1  UNL     1      20.385   7.664  46.147  1.00  0.00    -0.086 Cl
BRANCH  20  22
HETATM   22  C8  UNL     1      22.044   5.571  46.410  1.00  0.00     0.273 C 
HETATM   23  F1  UNL     1      22.504   4.558  47.240  1.00  0.00    -0.250 F 
ENDBRANCH  20  22
ENDBRANCH  19  20
ENDBRANCH  18  19
ENDBRANCH  17  18
ENDBRANCH   6  17
BRANCH   1  24
HETATM   24  O1  UNL     1      28.087   1.188  52.545  1.00  0.00    -0.344 OA
HETATM   25  H1  UNL     1      28.848   1.664  53.012  1.00  0.00     0.219 HD
ENDBRANCH   1  24
TORSDOF 6
ENDMDL
MODEL 9
REMARK VINA RESULT:      -6.2      3.019      4.019
REMARK  6 active torsions:
REMARK  status: ('A' for Active; 'I' for Inactive)
REMARK    1  A    between atoms: O1_1  and  C1_2 
REMARK    2  A    between atoms: C3_7  and  C4_8 
REMARK    3  A    between atoms: C4_8  and  C5_9 
REMARK    4  A    between atoms: C5_9  and  C6_10 
REMARK    5  A    between atoms: C6_10  and  C7_11 
REMARK    6  A    between atoms: C7_11  and  C8_13 
ROOT
HETATM    1  C1  UNL     1      27.152   2.135  52.352  1.00  0.00     0.169 C 
HETATM    2  C2  UNL     1      26.238   1.559  53.110  1.00  0.00     0.127 C 
HETATM    3  S1  UNL     1      24.440   1.470  53.116  1.00  0.00    -0.000 SA
HETATM    4  N1  UNL     1      23.923   1.920  51.506  1.00  0.00    -0.223 N 
HETATM    5  N2  UNL     1      22.737   2.231  52.221  1.00  0.00    -0.167 NA
HETATM    6  C3  UNL     1      22.249   2.596  51.089  1.00  0.00     0.085 A 
HETATM    7  C9  UNL     1      23.394   2.314  50.242  1.00  0.00     0.205 A 
HETATM    8  C10 UNL     1      24.154   3.486  49.752  1.00  0.00    -0.015 A 
HETATM    9  C11 UNL     1      23.351   4.507  49.308  1.00  0.00     0.012 A 
HETATM   10  C12 UNL     1      23.824   5.696  48.806  1.00  0.00     0.020 A 
HETATM   11  C13 UNL     1      25.183   5.923  48.724  1.00  0.00     0.011 A 
HETATM   12 BR1  UNL     1      25.975   7.519  48.055  1.00  0.00    -0.051 Br
HETATM   13  C14 UNL     1      25.982   4.862  49.185  1.00  0.00     0.032 A 
HETATM   14  C15 UNL     1      25.502   3.648  49.699  1.00  0.00    -0.009 A 
HETATM   15  C16 UNL     1      26.594   2.762  50.092  1.00  0.00     0.131 C 
HETATM   16  N3  UNL     1      26.415   2.795  51.363  1.00  0.00    -0.236 NA
ENDROOT
BRANCH   6  17
HETATM   17  C4  UNL     1      20.900   3.100  51.025  1.00  0.00     0.031 C 
BRANCH  17  18
HETATM   18  C5  UNL     1      19.911   2.237  51.009  1.00  0.00     0.004 C 
BRANCH  18  19
HETATM   19  C6  UNL     1      18.983   1.192  51.349  1.00  0.00     0.022 C 
BRANCH  19  20
HETATM   20  C7  UNL     1      18.169   0.174  51.249  1.00  0.00     0.040 C 
HETATM   21 CL1  UNL     1      17.169  -0.253  49.909  1.00  0.00    -0.086 Cl
BRANCH  20  22
HETATM   22  C8  UNL     1      18.053  -0.761  52.392  1.00  0.00     0.273 C 
HETATM   23  F1  UNL     1      19.282  -0.947  53.011  1.00  0.00    -0.250 F 
ENDBRANCH  20  22
ENDBRANCH  19  20
ENDBRANCH  18  19
ENDBRANCH  17  18
ENDBRANCH   6  17
BRANCH   1  24
HETATM   24  O1  UNL     1      28.478   1.894  52.786  1.00  0.00    -0.344 OA
HETATM   25  H1  UNL     1      28.884   2.700  53.245  1.00  0.00     0.219 HD
ENDBRANCH   1  24
TORSDOF 6
ENDMDL
