MODEL 1
REMARK VINA RESULT:      -8.8      0.000      0.000
REMARK  5 active torsions:
REMARK  status: ('A' for Active; 'I' for Inactive)
REMARK       I    between atoms: C1_2  and  N1_3 
REMARK    1  A    between atoms: C1_2  and  C16_23 
REMARK    2  A    between atoms: N1_3  and  C2_4 
REMARK    3  A    between atoms: C6_8  and  N2_9 
REMARK    4  A    between atoms: N2_9  and  C7_10 
REMARK    5  A    between atoms: C9_14  and  C10_15 
ROOT
HETATM    1  C2  UNL     1      23.465   3.419  49.490  1.00  0.00     0.037 A 
HETATM    2  C3  UNL     1      22.928   2.749  48.412  1.00  0.00     0.029 A 
HETATM    3  C4  UNL     1      22.071   1.690  48.732  1.00  0.00     0.004 A 
HETATM    4  C5  UNL     1      21.815   1.380  50.040  1.00  0.00     0.029 A 
HETATM    5  C6  UNL     1      22.359   2.058  51.091  1.00  0.00     0.033 A 
HETATM    6  C15 UNL     1      23.193   3.091  50.827  1.00  0.00     0.058 A 
ENDROOT
BRANCH   5   7
HETATM    7  N2  UNL     1      22.191   1.882  52.482  1.00  0.00    -0.340 N 
HETATM    8  H5  UNL     1      21.659   2.385  53.195  1.00  0.00     0.164 HD
BRANCH   7   9
HETATM    9  C7  UNL     1      22.959   0.725  53.016  1.00  0.00     0.238 A 
HETATM   10  N3  UNL     1      21.985  -1.030  53.471  1.00  0.00    -0.222 NA
HETATM   11  C8  UNL     1      22.833  -0.815  53.537  1.00  0.00     0.145 A 
HETATM   12  S1  UNL     1      24.013  -0.484  53.616  1.00  0.00    -0.047 SA
HETATM   13  C9  UNL     1      25.428  -0.054  53.700  1.00  0.00     0.147 A 
HETATM   14  N5  UNL     1      24.437   0.753  53.252  1.00  0.00    -0.179 NA
BRANCH  13  15
HETATM   15  C10 UNL     1      26.636   0.702  53.633  1.00  0.00    -0.003 A 
HETATM   16  C11 UNL     1      27.569   0.178  54.512  1.00  0.00     0.013 A 
HETATM   17  C12 UNL     1      28.850   0.682  54.684  1.00  0.00     0.020 A 
HETATM   18  C13 UNL     1      29.108   1.769  53.885  1.00  0.00     0.116 A 
HETATM   19  N4  UNL     1      28.241   2.331  53.006  1.00  0.00    -0.272 NA
HETATM   20  C14 UNL     1      26.988   1.807  52.863  1.00  0.00     0.126 A 
ENDBRANCH  13  15
ENDBRANCH   7   9
ENDBRANCH   5   7
BRANCH   1  21
HETATM   21  N1  UNL     1      24.380   4.516  49.232  1.00  0.00    -0.322 N 
HETATM   22  C1  UNL     1      25.790   4.203  49.377  1.00  0.00     0.263 C 
HETATM   23  O1  UNL     1      25.687   2.994  49.697  1.00  0.00    -0.267 OA
HETATM   24  H1  UNL     1      23.827   5.390  48.967  1.00  0.00     0.169 HD
BRANCH  22  25
HETATM   25  C16 UNL     1      26.401   5.549  49.045  1.00  0.00     0.072 A 
HETATM   26  C17 UNL     1      27.701   4.894  48.635  1.00  0.00     0.025 A 
HETATM   27  C18 UNL     1      28.709   5.757  48.200  1.00  0.00     0.009 A 
HETATM   28  C19 UNL     1      28.503   7.087  48.160  1.00  0.00     0.050 A 
HETATM   29  S2  UNL     1      26.831   7.340  48.737  1.00  0.00    -0.097 SA
ENDBRANCH  22  25
ENDBRANCH   1  21
TORSDOF 5
ENDMDL
MODEL 2
REMARK VINA RESULT:      -8.7      1.751      2.174
REMARK  5 active torsions:
REMARK  status: ('A' for Active; 'I' for Inactive)
REMARK       I    between atoms: C1_2  and  N1_3 
REMARK    1  A    between atoms: C1_2  and  C16_23 
REMARK    2  A    between atoms: N1_3  and  C2_4 
REMARK    3  A    between atoms: C6_8  and  N2_9 
REMARK    4  A    between atoms: N2_9  and  C7_10 
REMARK    5  A    between atoms: C9_14  and  C10_15 
ROOT
HETATM    1  C2  UNL     1      24.507   4.932  50.889  1.00  0.00     0.037 A 
HETATM    2  C3  UNL     1      23.692   5.697  51.695  1.00  0.00     0.029 A 
HETATM    3  C4  UNL     1      22.589   5.029  52.237  1.00  0.00     0.004 A 
HETATM    4  C5  UNL     1      22.377   3.707  51.957  1.00  0.00     0.029 A 
HETATM    5  C6  UNL     1      23.198   2.969  51.155  1.00  0.00     0.033 A 
HETATM    6  C15 UNL     1      24.278   3.576  50.610  1.00  0.00     0.058 A 
ENDROOT
BRANCH   5   7
HETATM    7  N2  UNL     1      23.135   1.609  50.780  1.00  0.00    -0.340 N 
HETATM    8  H5  UNL     1      23.116   1.129  49.879  1.00  0.00     0.164 HD
BRANCH   7   9
HETATM    9  C7  UNL     1      23.073   0.689  51.949  1.00  0.00     0.238 A 
HETATM   10  N3  UNL     1      21.275  -0.146  52.502  1.00  0.00    -0.222 NA
HETATM   11  C8  UNL     1      22.075  -0.233  52.850  1.00  0.00     0.145 A 
HETATM   12  S1  UNL     1      23.208  -0.336  53.314  1.00  0.00    -0.047 SA
HETATM   13  C9  UNL     1      24.585  -0.439  53.849  1.00  0.00     0.147 A 
HETATM   14  N5  UNL     1      24.266   0.321  52.774  1.00  0.00    -0.179 NA
BRANCH  13  15
HETATM   15  C10 UNL     1      25.987  -0.286  54.059  1.00  0.00    -0.003 A 
HETATM   16  C11 UNL     1      26.688  -1.051  53.142  1.00  0.00     0.013 A 
HETATM   17  C12 UNL     1      28.072  -1.120  53.075  1.00  0.00     0.020 A 
HETATM   18  C13 UNL     1      28.691  -0.341  54.023  1.00  0.00     0.116 A 
HETATM   19  N4  UNL     1      28.067   0.430  54.947  1.00  0.00    -0.272 NA
HETATM   20  C14 UNL     1      26.702   0.472  54.983  1.00  0.00     0.126 A 
ENDBRANCH  13  15
ENDBRANCH   7   9
ENDBRANCH   5   7
BRANCH   1  21
HETATM   21  N1  UNL     1      25.659   5.567  50.275  1.00  0.00    -0.322 N 
HETATM   22  C1  UNL     1      25.445   6.098  48.941  1.00  0.00     0.263 C 
HETATM   23  O1  UNL     1      24.237   5.788  48.802  1.00  0.00    -0.267 OA
HETATM   24  H1  UNL     1      26.489   5.529  50.945  1.00  0.00     0.169 HD
BRANCH  22  25
HETATM   25  C16 UNL     1      26.824   6.654  48.648  1.00  0.00     0.072 A 
HETATM   26  C17 UNL     1      27.407   5.259  48.587  1.00  0.00     0.025 A 
HETATM   27  C18 UNL     1      28.776   5.182  48.319  1.00  0.00     0.009 A 
HETATM   28  C19 UNL     1      29.503   6.299  48.131  1.00  0.00     0.050 A 
HETATM   29  S2  UNL     1      28.358   7.660  48.304  1.00  0.00    -0.097 SA
ENDBRANCH  22  25
ENDBRANCH   1  21
TORSDOF 5
ENDMDL
MODEL 3
REMARK VINA RESULT:      -8.5      2.657      5.699
REMARK  5 active torsions:
REMARK  status: ('A' for Active; 'I' for Inactive)
REMARK       I    between atoms: C1_2  and  N1_3 
REMARK    1  A    between atoms: C1_2  and  C16_23 
REMARK    2  A    between atoms: N1_3  and  C2_4 
REMARK    3  A    between atoms: C6_8  and  N2_9 
REMARK    4  A    between atoms: N2_9  and  C7_10 
REMARK    5  A    between atoms: C9_14  and  C10_15 
ROOT
HETATM    1  C2  UNL     1      23.789  -0.170  53.811  1.00  0.00     0.037 A 
HETATM    2  C3  UNL     1      23.143  -1.030  54.673  1.00  0.00     0.029 A 
HETATM    3  C4  UNL     1      21.796  -1.268  54.382  1.00  0.00     0.004 A 
HETATM    4  C5  UNL     1      21.205  -0.665  53.305  1.00  0.00     0.029 A 
HETATM    5  C6  UNL     1      21.865   0.183  52.466  1.00  0.00     0.033 A 
HETATM    6  C15 UNL     1      23.171   0.441  52.709  1.00  0.00     0.058 A 
ENDROOT
BRANCH   5   7
HETATM    7  N2  UNL     1      21.417   0.869  51.314  1.00  0.00    -0.340 N 
HETATM    8  H5  UNL     1      21.077   0.562  50.402  1.00  0.00     0.164 HD
BRANCH   7   9
HETATM    9  C7  UNL     1      21.464   2.348  51.469  1.00  0.00     0.238 A 
HETATM   10  N3  UNL     1      19.910   3.331  52.393  1.00  0.00    -0.222 NA
HETATM   11  C8  UNL     1      20.652   3.640  52.044  1.00  0.00     0.145 A 
HETATM   12  S1  UNL     1      21.702   4.042  51.548  1.00  0.00    -0.047 SA
HETATM   13  C9  UNL     1      22.974   4.495  50.941  1.00  0.00     0.147 A 
HETATM   14  N5  UNL     1      22.598   3.195  50.980  1.00  0.00    -0.179 NA
BRANCH  13  15
HETATM   15  C10 UNL     1      24.243   4.535  50.289  1.00  0.00    -0.003 A 
HETATM   16  C11 UNL     1      24.968   3.397  50.597  1.00  0.00     0.013 A 
HETATM   17  C12 UNL     1      26.242   3.128  50.119  1.00  0.00     0.020 A 
HETATM   18  C13 UNL     1      26.723   4.116  49.294  1.00  0.00     0.116 A 
HETATM   19  N4  UNL     1      26.066   5.252  48.951  1.00  0.00    -0.272 NA
HETATM   20  C14 UNL     1      24.812   5.484  49.443  1.00  0.00     0.126 A 
ENDBRANCH  13  15
ENDBRANCH   7   9
ENDBRANCH   5   7
BRANCH   1  21
HETATM   21  N1  UNL     1      25.185   0.139  54.066  1.00  0.00    -0.322 N 
HETATM   22  C1  UNL     1      26.148  -0.640  53.310  1.00  0.00     0.263 C 
HETATM   23  O1  UNL     1      25.348  -1.352  52.655  1.00  0.00    -0.267 OA
HETATM   24  H1  UNL     1      25.252   0.918  54.792  1.00  0.00     0.169 HD
BRANCH  22  25
HETATM   25  C16 UNL     1      27.442  -0.054  53.836  1.00  0.00     0.072 A 
HETATM   26  C17 UNL     1      27.123   1.288  53.217  1.00  0.00     0.025 A 
HETATM   27  C18 UNL     1      28.073   2.293  53.416  1.00  0.00     0.009 A 
HETATM   28  C19 UNL     1      29.194   2.048  54.120  1.00  0.00     0.050 A 
HETATM   29  S2  UNL     1      29.089   0.337  54.624  1.00  0.00    -0.097 SA
ENDBRANCH  22  25
ENDBRANCH   1  21
TORSDOF 5
ENDMDL
MODEL 4
REMARK VINA RESULT:      -8.4      2.776      5.338
REMARK  5 active torsions:
REMARK  status: ('A' for Active; 'I' for Inactive)
REMARK       I    between atoms: C1_2  and  N1_3 
REMARK    1  A    between atoms: C1_2  and  C16_23 
REMARK    2  A    between atoms: N1_3  and  C2_4 
REMARK    3  A    between atoms: C6_8  and  N2_9 
REMARK    4  A    between atoms: N2_9  and  C7_10 
REMARK    5  A    between atoms: C9_14  and  C10_15 
ROOT
HETATM    1  C2  UNL     1      21.894  -0.204  52.652  1.00  0.00     0.037 A 
HETATM    2  C3  UNL     1      20.880  -0.892  53.283  1.00  0.00     0.029 A 
HETATM    3  C4  UNL     1      21.237  -1.516  54.483  1.00  0.00     0.004 A 
HETATM    4  C5  UNL     1      22.518  -1.421  54.956  1.00  0.00     0.029 A 
HETATM    5  C6  UNL     1      23.505  -0.734  54.313  1.00  0.00     0.033 A 
HETATM    6  C15 UNL     1      23.203  -0.114  53.149  1.00  0.00     0.058 A 
ENDROOT
BRANCH   5   7
HETATM    7  N2  UNL     1      24.857  -0.524  54.665  1.00  0.00    -0.340 N 
HETATM    8  H5  UNL     1      25.343  -0.421  55.558  1.00  0.00     0.164 HD
BRANCH   7   9
HETATM    9  C7  UNL     1      25.754  -0.426  53.482  1.00  0.00     0.238 A 
HETATM   10  N3  UNL     1      27.038  -1.972  53.038  1.00  0.00    -0.222 NA
HETATM   11  C8  UNL     1      26.907  -1.206  52.633  1.00  0.00     0.145 A 
HETATM   12  S1  UNL     1      26.701  -0.125  52.088  1.00  0.00    -0.047 SA
HETATM   13  C9  UNL     1      26.430   1.186  51.454  1.00  0.00     0.147 A 
HETATM   14  N5  UNL     1      25.787   0.757  52.566  1.00  0.00    -0.179 NA
BRANCH  13  15
HETATM   15  C10 UNL     1      25.903   2.476  51.147  1.00  0.00    -0.003 A 
HETATM   16  C11 UNL     1      26.513   2.975  50.008  1.00  0.00     0.013 A 
HETATM   17  C12 UNL     1      26.222   4.207  49.441  1.00  0.00     0.020 A 
HETATM   18  C13 UNL     1      25.253   4.897  50.130  1.00  0.00     0.116 A 
HETATM   19  N4  UNL     1      24.618   4.467  51.249  1.00  0.00    -0.272 NA
HETATM   20  C14 UNL     1      24.932   3.247  51.779  1.00  0.00     0.126 A 
ENDBRANCH  13  15
ENDBRANCH   7   9
ENDBRANCH   5   7
BRANCH   1  21
HETATM   21  N1  UNL     1      21.599   0.450  51.390  1.00  0.00    -0.322 N 
HETATM   22  C1  UNL     1      21.104   1.811  51.490  1.00  0.00     0.263 C 
HETATM   23  O1  UNL     1      21.119   1.930  52.739  1.00  0.00    -0.267 OA
HETATM   24  H1  UNL     1      21.811  -0.216  50.583  1.00  0.00     0.169 HD
BRANCH  22  25
HETATM   25  C16 UNL     1      20.913   2.137  50.022  1.00  0.00     0.072 A 
HETATM   26  C17 UNL     1      22.408   2.124  49.793  1.00  0.00     0.025 A 
HETATM   27  C18 UNL     1      22.827   2.389  48.487  1.00  0.00     0.009 A 
HETATM   28  C19 UNL     1      21.928   2.636  47.515  1.00  0.00     0.050 A 
HETATM   29  S2  UNL     1      20.325   2.535  48.296  1.00  0.00    -0.097 SA
ENDBRANCH  22  25
ENDBRANCH   1  21
TORSDOF 5
ENDMDL
MODEL 5
REMARK VINA RESULT:      -8.3      2.300      6.519
REMARK  5 active torsions:
REMARK  status: ('A' for Active; 'I' for Inactive)
REMARK       I    between atoms: C1_2  and  N1_3 
REMARK    1  A    between atoms: C1_2  and  C16_23 
REMARK    2  A    between atoms: N1_3  and  C2_4 
REMARK    3  A    between atoms: C6_8  and  N2_9 
REMARK    4  A    between atoms: N2_9  and  C7_10 
REMARK    5  A    between atoms: C9_14  and  C10_15 
ROOT
HETATM    1  C2  UNL     1      24.157   1.991  52.681  1.00  0.00     0.037 A 
HETATM    2  C3  UNL     1      22.945   1.422  52.356  1.00  0.00     0.029 A 
HETATM    3  C4  UNL     1      21.904   2.326  52.117  1.00  0.00     0.004 A 
HETATM    4  C5  UNL     1      22.125   3.673  52.212  1.00  0.00     0.029 A 
HETATM    5  C6  UNL     1      23.334   4.214  52.537  1.00  0.00     0.033 A 
HETATM    6  C15 UNL     1      24.369   3.375  52.775  1.00  0.00     0.058 A 
ENDROOT
BRANCH   5   7
HETATM    7  N2  UNL     1      23.733   5.563  52.662  1.00  0.00    -0.340 N 
HETATM    8  H5  UNL     1      24.015   6.142  53.454  1.00  0.00     0.164 HD
BRANCH   7   9
HETATM    9  C7  UNL     1      23.730   6.289  51.363  1.00  0.00     0.238 A 
HETATM   10  N3  UNL     1      22.107   7.438  50.834  1.00  0.00    -0.222 NA
HETATM   11  C8  UNL     1      22.856   7.280  50.407  1.00  0.00     0.145 A 
HETATM   12  S1  UNL     1      23.917   7.041  49.835  1.00  0.00    -0.047 SA
HETATM   13  C9  UNL     1      25.205   6.733  49.172  1.00  0.00     0.147 A 
HETATM   14  N5  UNL     1      24.863   6.237  50.385  1.00  0.00    -0.179 NA
BRANCH  13  15
HETATM   15  C10 UNL     1      26.501   6.221  48.869  1.00  0.00    -0.003 A 
HETATM   16  C11 UNL     1      27.323   7.246  48.434  1.00  0.00     0.013 A 
HETATM   17  C12 UNL     1      28.650   7.081  48.064  1.00  0.00     0.020 A 
HETATM   18  C13 UNL     1      29.078   5.781  48.175  1.00  0.00     0.116 A 
HETATM   19  N4  UNL     1      28.327   4.732  48.594  1.00  0.00    -0.272 NA
HETATM   20  C14 UNL     1      27.023   4.932  48.949  1.00  0.00     0.126 A 
ENDBRANCH  13  15
ENDBRANCH   7   9
ENDBRANCH   5   7
BRANCH   1  21
HETATM   21  N1  UNL     1      25.276   1.111  52.964  1.00  0.00    -0.322 N 
HETATM   22  C1  UNL     1      26.306   1.058  51.942  1.00  0.00     0.263 C 
HETATM   23  O1  UNL     1      25.806   1.867  51.123  1.00  0.00    -0.267 OA
HETATM   24  H1  UNL     1      25.135   0.644  53.913  1.00  0.00     0.169 HD
BRANCH  22  25
HETATM   25  C16 UNL     1      27.262   0.067  52.573  1.00  0.00     0.072 A 
HETATM   26  C17 UNL     1      27.984   1.179  53.302  1.00  0.00     0.025 A 
HETATM   27  C18 UNL     1      29.055   0.786  54.108  1.00  0.00     0.009 A 
HETATM   28  C19 UNL     1      29.398  -0.512  54.207  1.00  0.00     0.050 A 
HETATM   29  S2  UNL     1      28.250  -1.402  53.166  1.00  0.00    -0.097 SA
ENDBRANCH  22  25
ENDBRANCH   1  21
TORSDOF 5
ENDMDL
MODEL 6
REMARK VINA RESULT:      -8.0      2.122      6.250
REMARK  5 active torsions:
REMARK  status: ('A' for Active; 'I' for Inactive)
REMARK       I    between atoms: C1_2  and  N1_3 
REMARK    1  A    between atoms: C1_2  and  C16_23 
REMARK    2  A    between atoms: N1_3  and  C2_4 
REMARK    3  A    between atoms: C6_8  and  N2_9 
REMARK    4  A    between atoms: N2_9  and  C7_10 
REMARK    5  A    between atoms: C9_14  and  C10_15 
ROOT
HETATM    1  C2  UNL     1      23.806   1.480  51.491  1.00  0.00     0.037 A 
HETATM    2  C3  UNL     1      22.800   0.766  52.105  1.00  0.00     0.029 A 
HETATM    3  C4  UNL     1      21.547   0.845  51.489  1.00  0.00     0.004 A 
HETATM    4  C5  UNL     1      21.381   1.593  50.355  1.00  0.00     0.029 A 
HETATM    5  C6  UNL     1      22.392   2.293  49.764  1.00  0.00     0.033 A 
HETATM    6  C15 UNL     1      23.622   2.243  50.327  1.00  0.00     0.058 A 
ENDROOT
BRANCH   5   7
HETATM    7  N2  UNL     1      22.398   3.092  48.599  1.00  0.00    -0.340 N 
HETATM    8  H5  UNL     1      22.210   2.898  47.614  1.00  0.00     0.164 HD
BRANCH   7   9
HETATM    9  C7  UNL     1      22.763   4.508  48.871  1.00  0.00     0.238 A 
HETATM   10  N3  UNL     1      21.299   5.866  49.370  1.00  0.00    -0.222 NA
HETATM   11  C8  UNL     1      22.165   5.970  49.279  1.00  0.00     0.145 A 
HETATM   12  S1  UNL     1      23.381   6.082  49.145  1.00  0.00    -0.047 SA
HETATM   13  C9  UNL     1      24.848   6.185  48.975  1.00  0.00     0.147 A 
HETATM   14  N5  UNL     1      24.165   5.028  48.804  1.00  0.00    -0.179 NA
BRANCH  13  15
HETATM   15  C10 UNL     1      26.223   5.890  48.729  1.00  0.00    -0.003 A 
HETATM   16  C11 UNL     1      26.852   6.996  48.183  1.00  0.00     0.013 A 
HETATM   17  C12 UNL     1      28.193   7.040  47.833  1.00  0.00     0.020 A 
HETATM   18  C13 UNL     1      28.849   5.859  48.085  1.00  0.00     0.116 A 
HETATM   19  N4  UNL     1      28.295   4.741  48.616  1.00  0.00    -0.272 NA
HETATM   20  C14 UNL     1      26.969   4.736  48.949  1.00  0.00     0.126 A 
ENDBRANCH  13  15
ENDBRANCH   7   9
ENDBRANCH   5   7
BRANCH   1  21
HETATM   21  N1  UNL     1      25.128   1.461  52.090  1.00  0.00    -0.322 N 
HETATM   22  C1  UNL     1      25.350   2.426  53.151  1.00  0.00     0.263 C 
HETATM   23  O1  UNL     1      24.216   2.964  53.161  1.00  0.00    -0.267 OA
HETATM   24  H1  UNL     1      25.721   0.706  51.623  1.00  0.00     0.169 HD
BRANCH  22  25
HETATM   25  C16 UNL     1      26.789   2.112  53.504  1.00  0.00     0.072 A 
HETATM   26  C17 UNL     1      26.369   0.863  54.245  1.00  0.00     0.025 A 
HETATM   27  C18 UNL     1      27.401   0.120  54.822  1.00  0.00     0.009 A 
HETATM   28  C19 UNL     1      28.681   0.520  54.708  1.00  0.00     0.050 A 
HETATM   29  S2  UNL     1      28.637   2.030  53.755  1.00  0.00    -0.097 SA
ENDBRANCH  22  25
ENDBRANCH   1  21
TORSDOF 5
ENDMDL
MODEL 7
REMARK VINA RESULT:      -7.8      1.609      1.936
REMARK  5 active torsions:
REMARK  status: ('A' for Active; 'I' for Inactive)
REMARK       I    between atoms: C1_2  and  N1_3 
REMARK    1  A    between atoms: C1_2  and  C16_23 
REMARK    2  A    between atoms: N1_3  and  C2_4 
REMARK    3  A    between atoms: C6_8  and  N2_9 
REMARK    4  A    between atoms: N2_9  and  C7_10 
REMARK    5  A    between atoms: C9_14  and  C10_15 
ROOT
HETATM    1  C2  UNL     1      22.979   3.669  49.255  1.00  0.00     0.037 A 
HETATM    2  C3  UNL     1      22.662   2.772  48.258  1.00  0.00     0.029 A 
HETATM    3  C4  UNL     1      21.992   1.619  48.681  1.00  0.00     0.004 A 
HETATM    4  C5  UNL     1      21.695   1.440  50.005  1.00  0.00     0.029 A 
HETATM    5  C6  UNL     1      22.020   2.342  50.975  1.00  0.00     0.033 A 
HETATM    6  C15 UNL     1      22.668   3.473  50.609  1.00  0.00     0.058 A 
ENDROOT
BRANCH   5   7
HETATM    7  N2  UNL     1      21.778   2.321  52.366  1.00  0.00    -0.340 N 
HETATM    8  H5  UNL     1      21.514   3.038  53.044  1.00  0.00     0.164 HD
BRANCH   7   9
HETATM    9  C7  UNL     1      21.957   0.970  52.964  1.00  0.00     0.238 A 
HETATM   10  N3  UNL     1      20.322  -0.244  53.259  1.00  0.00    -0.222 NA
HETATM   11  C8  UNL     1      21.171  -0.380  53.432  1.00  0.00     0.145 A 
HETATM   12  S1  UNL     1      22.367  -0.539  53.662  1.00  0.00    -0.047 SA
HETATM   13  C9  UNL     1      23.815  -0.700  53.927  1.00  0.00     0.147 A 
HETATM   14  N5  UNL     1      23.286   0.420  53.379  1.00  0.00    -0.179 NA
BRANCH  13  15
HETATM   15  C10 UNL     1      25.222  -0.484  54.025  1.00  0.00    -0.003 A 
HETATM   16  C11 UNL     1      25.797  -0.551  52.767  1.00  0.00     0.013 A 
HETATM   17  C12 UNL     1      27.151  -0.380  52.517  1.00  0.00     0.020 A 
HETATM   18  C13 UNL     1      27.878  -0.132  53.656  1.00  0.00     0.116 A 
HETATM   19  N4  UNL     1      27.378  -0.053  54.914  1.00  0.00    -0.272 NA
HETATM   20  C14 UNL     1      26.039  -0.228  55.123  1.00  0.00     0.126 A 
ENDBRANCH  13  15
ENDBRANCH   7   9
ENDBRANCH   5   7
BRANCH   1  21
HETATM   21  N1  UNL     1      23.695   4.878  48.890  1.00  0.00    -0.322 N 
HETATM   22  C1  UNL     1      25.133   4.836  49.078  1.00  0.00     0.263 C 
HETATM   23  O1  UNL     1      25.235   3.667  49.523  1.00  0.00    -0.267 OA
HETATM   24  H1  UNL     1      23.004   5.608  48.531  1.00  0.00     0.169 HD
BRANCH  22  25
HETATM   25  C16 UNL     1      25.507   6.228  48.611  1.00  0.00     0.072 A 
HETATM   26  C17 UNL     1      25.673   6.698  50.039  1.00  0.00     0.025 A 
HETATM   27  C18 UNL     1      26.048   8.033  50.202  1.00  0.00     0.009 A 
HETATM   28  C19 UNL     1      26.243   8.827  49.132  1.00  0.00     0.050 A 
HETATM   29  S2  UNL     1      25.923   7.805  47.702  1.00  0.00    -0.097 SA
ENDBRANCH  22  25
ENDBRANCH   1  21
TORSDOF 5
ENDMDL
MODEL 8
REMARK VINA RESULT:      -7.8      4.847      9.098
REMARK  5 active torsions:
REMARK  status: ('A' for Active; 'I' for Inactive)
REMARK       I    between atoms: C1_2  and  N1_3 
REMARK    1  A    between atoms: C1_2  and  C16_23 
REMARK    2  A    between atoms: N1_3  and  C2_4 
REMARK    3  A    between atoms: C6_8  and  N2_9 
REMARK    4  A    between atoms: N2_9  and  C7_10 
REMARK    5  A    between atoms: C9_14  and  C10_15 
ROOT
HETATM    1  C2  UNL     1      31.291   8.604  47.928  1.00  0.00     0.037 A 
HETATM    2  C3  UNL     1      31.894   9.751  47.460  1.00  0.00     0.029 A 
HETATM    3  C4  UNL     1      31.413  10.946  48.006  1.00  0.00     0.004 A 
HETATM    4  C5  UNL     1      30.412  10.924  48.939  1.00  0.00     0.029 A 
HETATM    5  C6  UNL     1      29.830   9.775  49.388  1.00  0.00     0.033 A 
HETATM    6  C15 UNL     1      30.266   8.596  48.886  1.00  0.00     0.058 A 
ENDROOT
BRANCH   5   7
HETATM    7  N2  UNL     1      28.811   9.575  50.345  1.00  0.00    -0.340 N 
HETATM    8  H5  UNL     1      28.802   9.540  51.366  1.00  0.00     0.164 HD
BRANCH   7   9
HETATM    9  C7  UNL     1      27.473   9.363  49.729  1.00  0.00     0.238 A 
HETATM   10  N3  UNL     1      26.461  10.955  48.904  1.00  0.00    -0.222 NA
HETATM   11  C8  UNL     1      26.238  10.109  48.968  1.00  0.00     0.145 A 
HETATM   12  S1  UNL     1      25.955   8.918  49.072  1.00  0.00    -0.047 SA
HETATM   13  C9  UNL     1      25.643   7.478  49.214  1.00  0.00     0.147 A 
HETATM   14  N5  UNL     1      26.793   8.031  49.667  1.00  0.00    -0.179 NA
BRANCH  13  15
HETATM   15  C10 UNL     1      25.705   6.087  49.528  1.00  0.00    -0.003 A 
HETATM   16  C11 UNL     1      26.791   5.509  48.893  1.00  0.00     0.013 A 
HETATM   17  C12 UNL     1      27.134   4.169  48.997  1.00  0.00     0.020 A 
HETATM   18  C13 UNL     1      26.279   3.459  49.804  1.00  0.00     0.116 A 
HETATM   19  N4  UNL     1      25.200   3.963  50.454  1.00  0.00    -0.272 NA
HETATM   20  C14 UNL     1      24.892   5.288  50.328  1.00  0.00     0.126 A 
ENDBRANCH  13  15
ENDBRANCH   7   9
ENDBRANCH   5   7
BRANCH   1  21
HETATM   21  N1  UNL     1      31.727   7.329  47.388  1.00  0.00    -0.322 N 
HETATM   22  C1  UNL     1      32.870   6.725  48.047  1.00  0.00     0.263 C 
HETATM   23  O1  UNL     1      33.075   7.604  48.920  1.00  0.00    -0.267 OA
HETATM   24  H1  UNL     1      31.098   7.053  46.570  1.00  0.00     0.169 HD
BRANCH  22  25
HETATM   25  C16 UNL     1      33.020   5.461  47.226  1.00  0.00     0.072 A 
HETATM   26  C17 UNL     1      34.195   5.015  48.067  1.00  0.00     0.025 A 
HETATM   27  C18 UNL     1      34.771   3.794  47.711  1.00  0.00     0.009 A 
HETATM   28  C19 UNL     1      34.287   3.082  46.676  1.00  0.00     0.050 A 
HETATM   29  S2  UNL     1      32.920   4.033  46.028  1.00  0.00    -0.097 SA
ENDBRANCH  22  25
ENDBRANCH   1  21
TORSDOF 5
ENDMDL
MODEL 9
REMARK VINA RESULT:      -7.7      5.747     10.737
REMARK  5 active torsions:
REMARK  status: ('A' for Active; 'I' for Inactive)
REMARK       I    between atoms: C1_2  and  N1_3 
REMARK    1  A    between atoms: C1_2  and  C16_23 
REMARK    2  A    between atoms: N1_3  and  C2_4 
REMARK    3  A    between atoms: C6_8  and  N2_9 
REMARK    4  A    between atoms: N2_9  and  C7_10 
REMARK    5  A    between atoms: C9_14  and  C10_15 
ROOT
HETATM    1  C2  UNL     1      30.826   7.501  48.748  1.00  0.00     0.037 A 
HETATM    2  C3  UNL     1      31.085   8.778  48.300  1.00  0.00     0.029 A 
HETATM    3  C4  UNL     1      32.434   9.072  48.075  1.00  0.00     0.004 A 
HETATM    4  C5  UNL     1      33.394   8.122  48.299  1.00  0.00     0.029 A 
HETATM    5  C6  UNL     1      33.113   6.864  48.743  1.00  0.00     0.033 A 
HETATM    6  C15 UNL     1      31.820   6.537  48.973  1.00  0.00     0.058 A 
ENDROOT
BRANCH   5   7
HETATM    7  N2  UNL     1      33.969   5.771  49.008  1.00  0.00    -0.340 N 
HETATM    8  H5  UNL     1      34.457   5.447  49.845  1.00  0.00     0.164 HD
BRANCH   7   9
HETATM    9  C7  UNL     1      34.213   4.925  47.809  1.00  0.00     0.238 A 
HETATM   10  N3  UNL     1      34.981   3.028  48.032  1.00  0.00    -0.222 NA
HETATM   11  C8  UNL     1      34.753   3.469  47.309  1.00  0.00     0.145 A 
HETATM   12  S1  UNL     1      34.423   4.112  46.316  1.00  0.00    -0.047 SA
HETATM   13  C9  UNL     1      34.018   4.913  45.138  1.00  0.00     0.147 A 
HETATM   14  N5  UNL     1      33.931   5.374  46.409  1.00  0.00    -0.179 NA
BRANCH  13  15
HETATM   15  C10 UNL     1      33.539   5.956  44.290  1.00  0.00    -0.003 A 
HETATM   16  C11 UNL     1      32.497   6.626  44.908  1.00  0.00     0.013 A 
HETATM   17  C12 UNL     1      31.815   7.697  44.350  1.00  0.00     0.020 A 
HETATM   18  C13 UNL     1      32.282   8.035  43.103  1.00  0.00     0.116 A 
HETATM   19  N4  UNL     1      33.296   7.423  42.442  1.00  0.00    -0.272 NA
HETATM   20  C14 UNL     1      33.944   6.370  43.024  1.00  0.00     0.126 A 
ENDBRANCH  13  15
ENDBRANCH   7   9
ENDBRANCH   5   7
BRANCH   1  21
HETATM   21  N1  UNL     1      29.448   7.135  49.024  1.00  0.00    -0.322 N 
HETATM   22  C1  UNL     1      28.682   6.674  47.881  1.00  0.00     0.263 C 
HETATM   23  O1  UNL     1      29.573   6.766  47.002  1.00  0.00    -0.267 OA
HETATM   24  H1  UNL     1      29.241   7.275  50.061  1.00  0.00     0.169 HD
BRANCH  22  25
HETATM   25  C16 UNL     1      27.346   6.404  48.543  1.00  0.00     0.072 A 
HETATM   26  C17 UNL     1      27.672   4.933  48.674  1.00  0.00     0.025 A 
HETATM   27  C18 UNL     1      26.690   4.142  49.275  1.00  0.00     0.009 A 
HETATM   28  C19 UNL     1      25.535   4.687  49.700  1.00  0.00     0.050 A 
HETATM   29  S2  UNL     1      25.647   6.429  49.316  1.00  0.00    -0.097 SA
ENDBRANCH  22  25
ENDBRANCH   1  21
TORSDOF 5
ENDMDL
