MODEL 1
REMARK VINA RESULT:      -8.1      0.000      0.000
REMARK  6 active torsions:
REMARK  status: ('A' for Active; 'I' for Inactive)
REMARK    1  A    between atoms: N1_2  and  C2_3 
REMARK    2  A    between atoms: C2_3  and  C3_4 
REMARK    3  A    between atoms: C4_5  and  C5_6 
REMARK       I    between atoms: C5_6  and  N2_8 
REMARK    4  A    between atoms: N2_8  and  C6_9 
REMARK    5  A    between atoms: C9_12  and  N3_13 
REMARK    6  A    between atoms: N5_27  and  O2_28 
ROOT
HETATM    1  C6  UNL     1      24.357   1.319  52.292  1.00  0.00     0.166 C 
HETATM    2  C7  UNL     1      24.073   0.498  53.225  1.00  0.00     0.074 A 
HETATM    3  C8  UNL     1      22.599   0.513  53.378  1.00  0.00     0.006 A 
HETATM    4  C9  UNL     1      21.740   1.254  52.729  1.00  0.00     0.039 C 
HETATM    5  C15 UNL     1      20.281   1.092  53.008  1.00  0.00     0.205 C 
HETATM    6  N4  UNL     1      20.063  -0.365  52.995  1.00  0.00    -0.299 NA
HETATM    7  C16 UNL     1      20.862  -1.118  53.670  1.00  0.00     0.097 C 
HETATM    8  C17 UNL     1      21.904  -0.341  54.373  1.00  0.00     0.087 A 
HETATM    9  C18 UNL     1      22.825  -1.158  55.153  1.00  0.00     0.008 A 
HETATM   10  C19 UNL     1      24.127  -1.260  55.117  1.00  0.00     0.120 A 
HETATM   11  N5  UNL     1      24.677  -0.410  54.137  1.00  0.00    -0.236 N 
ENDROOT
BRANCH   1  12
HETATM   12  N2  UNL     1      25.185   2.023  51.424  1.00  0.00    -0.345 N 
HETATM   13  C5  UNL     1      26.441   2.493  50.951  1.00  0.00     0.241 C 
HETATM   14  O1  UNL     1      27.318   2.032  51.732  1.00  0.00    -0.269 OA
HETATM   15  H9  UNL     1      24.501   2.444  50.713  1.00  0.00     0.163 HD
BRANCH  13  16
HETATM   16  C4  UNL     1      26.662   3.333  49.800  1.00  0.00     0.072 C 
HETATM   17  C3  UNL     1      26.040   4.468  49.927  1.00  0.00     0.008 C 
BRANCH  17  18
HETATM   18  C2  UNL     1      26.191   5.422  48.804  1.00  0.00     0.296 C 
BRANCH  18  19
HETATM   19  N1  UNL     1      27.282   6.317  49.178  1.00  0.00     0.082 N 
HETATM   20  C1  UNL     1      28.334   6.301  48.191  1.00  0.00     0.307 C 
HETATM   21  H4  UNL     1      27.640   6.018  50.111  1.00  0.00     0.315 HD
ENDBRANCH  18  19
ENDBRANCH  17  18
ENDBRANCH  13  16
ENDBRANCH   1  12
BRANCH  11  22
HETATM   22  O2  UNL     1      26.028  -0.407  53.983  1.00  0.00    -0.279 OA
HETATM   23  C20 UNL     1      26.549   0.276  55.082  1.00  0.00     0.238 C 
ENDBRANCH  11  22
BRANCH   4  24
HETATM   24  N3  UNL     1      21.965   2.219  51.735  1.00  0.00    -0.348 N 
HETATM   25  C10 UNL     1      21.906   1.807  50.354  1.00  0.00     0.154 C 
HETATM   26  C11 UNL     1      21.710   2.963  49.439  1.00  0.00     0.012 C 
HETATM   27  C12 UNL     1      21.972   4.126  49.957  1.00  0.00     0.014 C 
HETATM   28 CL1  UNL     1      21.723   5.472  48.828  1.00  0.00    -0.089 Cl
HETATM   29  C13 UNL     1      22.436   4.601  51.269  1.00  0.00     0.110 C 
HETATM   30  C14 UNL     1      22.165   3.564  52.300  1.00  0.00     0.277 C 
HETATM   31  F1  UNL     1      20.888   3.886  52.824  1.00  0.00    -0.226 F 
ENDBRANCH   4  24
TORSDOF 6
ENDMDL
MODEL 2
REMARK VINA RESULT:      -7.8      1.559      1.918
REMARK  6 active torsions:
REMARK  status: ('A' for Active; 'I' for Inactive)
REMARK    1  A    between atoms: N1_2  and  C2_3 
REMARK    2  A    between atoms: C2_3  and  C3_4 
REMARK    3  A    between atoms: C4_5  and  C5_6 
REMARK       I    between atoms: C5_6  and  N2_8 
REMARK    4  A    between atoms: N2_8  and  C6_9 
REMARK    5  A    between atoms: C9_12  and  N3_13 
REMARK    6  A    between atoms: N5_27  and  O2_28 
ROOT
HETATM    1  C6  UNL     1      25.367   2.566  51.613  1.00  0.00     0.166 C 
HETATM    2  C7  UNL     1      25.435   1.627  52.473  1.00  0.00     0.074 A 
HETATM    3  C8  UNL     1      24.044   1.218  52.776  1.00  0.00     0.006 A 
HETATM    4  C9  UNL     1      22.942   1.739  52.305  1.00  0.00     0.039 C 
HETATM    5  C15 UNL     1      21.628   1.155  52.711  1.00  0.00     0.205 C 
HETATM    6  N4  UNL     1      21.809  -0.299  52.557  1.00  0.00    -0.299 NA
HETATM    7  C16 UNL     1      22.860  -0.850  53.059  1.00  0.00     0.097 C 
HETATM    8  C17 UNL     1      23.736   0.128  53.735  1.00  0.00     0.087 A 
HETATM    9  C18 UNL     1      24.935  -0.459  54.320  1.00  0.00     0.008 A 
HETATM   10  C19 UNL     1      26.202  -0.191  54.141  1.00  0.00     0.120 A 
HETATM   11  N5  UNL     1      26.373   0.855  53.211  1.00  0.00    -0.236 N 
ENDROOT
BRANCH   1  12
HETATM   12  N2  UNL     1      25.857   3.540  50.750  1.00  0.00    -0.345 N 
HETATM   13  C5  UNL     1      26.587   4.000  49.618  1.00  0.00     0.241 C 
HETATM   14  O1  UNL     1      27.077   2.978  49.065  1.00  0.00    -0.269 OA
HETATM   15  H9  UNL     1      25.469   4.453  51.157  1.00  0.00     0.163 HD
BRANCH  13  16
HETATM   16  C4  UNL     1      26.733   5.369  49.193  1.00  0.00     0.072 C 
HETATM   17  C3  UNL     1      25.903   6.144  49.829  1.00  0.00     0.008 C 
BRANCH  17  18
HETATM   18  C2  UNL     1      25.957   7.582  49.477  1.00  0.00     0.296 C 
BRANCH  18  19
HETATM   19  N1  UNL     1      26.611   8.247  50.600  1.00  0.00     0.082 N 
HETATM   20  C1  UNL     1      27.484   9.302  50.147  1.00  0.00     0.307 C 
HETATM   21  H4  UNL     1      27.142   7.529  51.138  1.00  0.00     0.315 HD
ENDBRANCH  18  19
ENDBRANCH  17  18
ENDBRANCH  13  16
ENDBRANCH   1  12
BRANCH  11  22
HETATM   22  O2  UNL     1      27.642   1.246  52.922  1.00  0.00    -0.279 OA
HETATM   23  C20 UNL     1      28.407   0.977  54.057  1.00  0.00     0.238 C 
ENDBRANCH  11  22
BRANCH   4  24
HETATM   24  N3  UNL     1      22.770   2.804  51.407  1.00  0.00    -0.348 N 
HETATM   25  C10 UNL     1      22.652   2.503  50.001  1.00  0.00     0.154 C 
HETATM   26  C11 UNL     1      22.036   3.626  49.245  1.00  0.00     0.012 C 
HETATM   27  C12 UNL     1      22.037   4.771  49.861  1.00  0.00     0.014 C 
HETATM   28 CL1  UNL     1      21.293   6.078  48.919  1.00  0.00    -0.089 Cl
HETATM   29  C13 UNL     1      22.516   5.252  51.165  1.00  0.00     0.110 C 
HETATM   30  C14 UNL     1      22.668   4.101  52.096  1.00  0.00     0.277 C 
HETATM   31  F1  UNL     1      21.429   4.008  52.777  1.00  0.00    -0.226 F 
ENDBRANCH   4  24
TORSDOF 6
ENDMDL
MODEL 3
REMARK VINA RESULT:      -7.7      3.031      4.717
REMARK  6 active torsions:
REMARK  status: ('A' for Active; 'I' for Inactive)
REMARK    1  A    between atoms: N1_2  and  C2_3 
REMARK    2  A    between atoms: C2_3  and  C3_4 
REMARK    3  A    between atoms: C4_5  and  C5_6 
REMARK       I    between atoms: C5_6  and  N2_8 
REMARK    4  A    between atoms: N2_8  and  C6_9 
REMARK    5  A    between atoms: C9_12  and  N3_13 
REMARK    6  A    between atoms: N5_27  and  O2_28 
ROOT
HETATM    1  C6  UNL     1      23.578   1.945  50.869  1.00  0.00     0.166 C 
HETATM    2  C7  UNL     1      22.381   1.508  50.909  1.00  0.00     0.074 A 
HETATM    3  C8  UNL     1      22.278   0.642  52.107  1.00  0.00     0.006 A 
HETATM    4  C9  UNL     1      23.231   0.330  52.946  1.00  0.00     0.039 C 
HETATM    5  C15 UNL     1      22.913  -0.538  54.120  1.00  0.00     0.205 C 
HETATM    6  N4  UNL     1      21.680   0.041  54.681  1.00  0.00    -0.299 NA
HETATM    7  C16 UNL     1      20.703   0.309  53.886  1.00  0.00     0.097 C 
HETATM    8  C17 UNL     1      21.012  -0.034  52.483  1.00  0.00     0.087 A 
HETATM    9  C18 UNL     1      19.927   0.251  51.552  1.00  0.00     0.008 A 
HETATM   10  C19 UNL     1      19.889   0.986  50.473  1.00  0.00     0.120 A 
HETATM   11  N5  UNL     1      21.142   1.578  50.216  1.00  0.00    -0.236 N 
ENDROOT
BRANCH   1  12
HETATM   12  N2  UNL     1      24.654   2.665  50.360  1.00  0.00    -0.345 N 
HETATM   13  C5  UNL     1      25.375   3.856  50.068  1.00  0.00     0.241 C 
HETATM   14  O1  UNL     1      24.677   4.816  50.495  1.00  0.00    -0.269 OA
HETATM   15  H9  UNL     1      25.306   1.904  49.980  1.00  0.00     0.163 HD
BRANCH  13  16
HETATM   16  C4  UNL     1      26.655   3.941  49.411  1.00  0.00     0.072 C 
HETATM   17  C3  UNL     1      26.912   5.165  49.052  1.00  0.00     0.008 C 
BRANCH  17  18
HETATM   18  C2  UNL     1      28.205   5.383  48.363  1.00  0.00     0.296 C 
BRANCH  18  19
HETATM   19  N1  UNL     1      28.650   6.718  48.754  1.00  0.00     0.082 N 
HETATM   20  C1  UNL     1      29.119   7.467  47.614  1.00  0.00     0.307 C 
HETATM   21  H4  UNL     1      29.404   6.612  49.467  1.00  0.00     0.315 HD
ENDBRANCH  18  19
ENDBRANCH  17  18
ENDBRANCH  13  16
ENDBRANCH   1  12
BRANCH  11  22
HETATM   22  O2  UNL     1      21.256   2.374  49.120  1.00  0.00    -0.279 OA
HETATM   23  C20 UNL     1      20.027   2.320  48.462  1.00  0.00     0.238 C 
ENDBRANCH  11  22
BRANCH   4  24
HETATM   24  N3  UNL     1      24.581   0.713  52.946  1.00  0.00    -0.348 N 
HETATM   25  C10 UNL     1      24.962   1.879  53.706  1.00  0.00     0.154 C 
HETATM   26  C11 UNL     1      26.423   1.903  53.988  1.00  0.00     0.012 C 
HETATM   27  C12 UNL     1      27.141   1.115  53.243  1.00  0.00     0.014 C 
HETATM   28 CL1  UNL     1      28.874   1.179  53.617  1.00  0.00    -0.089 Cl
HETATM   29  C13 UNL     1      26.860   0.175  52.149  1.00  0.00     0.110 C 
HETATM   30  C14 UNL     1      25.427  -0.225  52.190  1.00  0.00     0.277 C 
HETATM   31  F1  UNL     1      25.392  -1.400  52.981  1.00  0.00    -0.226 F 
ENDBRANCH   4  24
TORSDOF 6
ENDMDL
MODEL 4
REMARK VINA RESULT:      -7.5      2.986      6.942
REMARK  6 active torsions:
REMARK  status: ('A' for Active; 'I' for Inactive)
REMARK    1  A    between atoms: N1_2  and  C2_3 
REMARK    2  A    between atoms: C2_3  and  C3_4 
REMARK    3  A    between atoms: C4_5  and  C5_6 
REMARK       I    between atoms: C5_6  and  N2_8 
REMARK    4  A    between atoms: N2_8  and  C6_9 
REMARK    5  A    between atoms: C9_12  and  N3_13 
REMARK    6  A    between atoms: N5_27  and  O2_28 
ROOT
HETATM    1  C6  UNL     1      25.838   4.202  49.936  1.00  0.00     0.166 C 
HETATM    2  C7  UNL     1      26.235   5.180  49.223  1.00  0.00     0.074 A 
HETATM    3  C8  UNL     1      25.082   6.098  49.069  1.00  0.00     0.006 A 
HETATM    4  C9  UNL     1      23.868   5.932  49.525  1.00  0.00     0.039 C 
HETATM    5  C15 UNL     1      22.849   7.000  49.290  1.00  0.00     0.205 C 
HETATM    6  N4  UNL     1      23.540   8.251  49.646  1.00  0.00    -0.299 NA
HETATM    7  C16 UNL     1      24.717   8.468  49.168  1.00  0.00     0.097 C 
HETATM    8  C17 UNL     1      25.181   7.365  48.303  1.00  0.00     0.087 A 
HETATM    9  C18 UNL     1      26.509   7.575  47.738  1.00  0.00     0.008 A 
HETATM   10  C19 UNL     1      27.595   6.852  47.798  1.00  0.00     0.120 A 
HETATM   11  N5  UNL     1      27.384   5.679  48.550  1.00  0.00    -0.236 N 
ENDROOT
BRANCH   1  12
HETATM   12  N2  UNL     1      25.949   2.993  50.615  1.00  0.00    -0.345 N 
HETATM   13  C5  UNL     1      26.579   2.073  51.499  1.00  0.00     0.241 C 
HETATM   14  O1  UNL     1      27.622   2.638  51.926  1.00  0.00    -0.269 OA
HETATM   15  H9  UNL     1      25.078   2.451  50.305  1.00  0.00     0.163 HD
BRANCH  13  16
HETATM   16  C4  UNL     1      26.108   0.753  51.839  1.00  0.00     0.072 C 
HETATM   17  C3  UNL     1      27.089   0.002  52.246  1.00  0.00     0.008 C 
BRANCH  17  18
HETATM   18  C2  UNL     1      26.730  -1.385  52.626  1.00  0.00     0.296 C 
BRANCH  18  19
HETATM   19  N1  UNL     1      27.847  -1.886  53.422  1.00  0.00     0.082 N 
HETATM   20  C1  UNL     1      29.029  -1.082  53.231  1.00  0.00     0.307 C 
HETATM   21  H4  UNL     1      28.021  -2.877  53.147  1.00  0.00     0.315 HD
ENDBRANCH  18  19
ENDBRANCH  17  18
ENDBRANCH  13  16
ENDBRANCH   1  12
BRANCH  11  22
HETATM   22  O2  UNL     1      28.429   4.823  48.700  1.00  0.00    -0.279 OA
HETATM   23  C20 UNL     1      29.548   5.471  48.176  1.00  0.00     0.238 C 
ENDBRANCH  11  22
BRANCH   4  24
HETATM   24  N3  UNL     1      23.330   4.867  50.264  1.00  0.00    -0.348 N 
HETATM   25  C10 UNL     1      23.257   4.996  51.699  1.00  0.00     0.154 C 
HETATM   26  C11 UNL     1      22.285   4.040  52.293  1.00  0.00     0.012 C 
HETATM   27  C12 UNL     1      21.945   3.050  51.521  1.00  0.00     0.014 C 
HETATM   28 CL1  UNL     1      20.785   1.937  52.273  1.00  0.00    -0.089 Cl
HETATM   29  C13 UNL     1      22.298   2.622  50.160  1.00  0.00     0.110 C 
HETATM   30  C14 UNL     1      22.846   3.778  49.400  1.00  0.00     0.277 C 
HETATM   31  F1  UNL     1      21.729   4.356  48.746  1.00  0.00    -0.226 F 
ENDBRANCH   4  24
TORSDOF 6
ENDMDL
MODEL 5
REMARK VINA RESULT:      -7.0      3.116      5.083
REMARK  6 active torsions:
REMARK  status: ('A' for Active; 'I' for Inactive)
REMARK    1  A    between atoms: N1_2  and  C2_3 
REMARK    2  A    between atoms: C2_3  and  C3_4 
REMARK    3  A    between atoms: C4_5  and  C5_6 
REMARK       I    between atoms: C5_6  and  N2_8 
REMARK    4  A    between atoms: N2_8  and  C6_9 
REMARK    5  A    between atoms: C9_12  and  N3_13 
REMARK    6  A    between atoms: N5_27  and  O2_28 
ROOT
HETATM    1  C6  UNL     1      22.111   2.400  51.852  1.00  0.00     0.166 C 
HETATM    2  C7  UNL     1      22.621   1.402  52.458  1.00  0.00     0.074 A 
HETATM    3  C8  UNL     1      24.093   1.536  52.348  1.00  0.00     0.006 A 
HETATM    4  C9  UNL     1      24.760   2.464  51.713  1.00  0.00     0.039 C 
HETATM    5  C15 UNL     1      26.253   2.441  51.751  1.00  0.00     0.205 C 
HETATM    6  N4  UNL     1      26.582   2.223  53.170  1.00  0.00    -0.299 NA
HETATM    7  C16 UNL     1      25.979   1.281  53.809  1.00  0.00     0.097 C 
HETATM    8  C17 UNL     1      25.020   0.550  52.955  1.00  0.00     0.087 A 
HETATM    9  C18 UNL     1      24.321  -0.529  53.641  1.00  0.00     0.008 A 
HETATM   10  C19 UNL     1      23.046  -0.761  53.806  1.00  0.00     0.120 A 
HETATM   11  N5  UNL     1      22.264   0.238  53.192  1.00  0.00    -0.236 N 
ENDROOT
BRANCH   1  12
HETATM   12  N2  UNL     1      21.088   3.211  51.372  1.00  0.00    -0.345 N 
HETATM   13  C5  UNL     1      19.759   3.717  51.347  1.00  0.00     0.241 C 
HETATM   14  O1  UNL     1      19.125   3.116  52.257  1.00  0.00    -0.269 OA
HETATM   15  H9  UNL     1      21.559   3.768  50.587  1.00  0.00     0.163 HD
BRANCH  13  16
HETATM   16  C4  UNL     1      19.242   4.723  50.452  1.00  0.00     0.072 C 
HETATM   17  C3  UNL     1      20.184   5.540  50.080  1.00  0.00     0.008 C 
BRANCH  17  18
HETATM   18  C2  UNL     1      19.777   6.623  49.155  1.00  0.00     0.296 C 
BRANCH  18  19
HETATM   19  N1  UNL     1      20.466   7.826  49.613  1.00  0.00     0.082 N 
HETATM   20  C1  UNL     1      19.544   8.920  49.795  1.00  0.00     0.307 C 
HETATM   21  H4  UNL     1      21.198   8.067  48.911  1.00  0.00     0.315 HD
ENDBRANCH  18  19
ENDBRANCH  17  18
ENDBRANCH  13  16
ENDBRANCH   1  12
BRANCH  11  22
HETATM   22  O2  UNL     1      20.911   0.130  53.280  1.00  0.00    -0.279 OA
HETATM   23  C20 UNL     1      20.653  -1.069  53.946  1.00  0.00     0.238 C 
ENDBRANCH  11  22
BRANCH   4  24
HETATM   24  N3  UNL     1      24.285   3.559  50.975  1.00  0.00    -0.348 N 
HETATM   25  C10 UNL     1      24.105   4.818  51.657  1.00  0.00     0.154 C 
HETATM   26  C11 UNL     1      24.045   5.959  50.705  1.00  0.00     0.012 C 
HETATM   27  C12 UNL     1      23.811   5.634  49.468  1.00  0.00     0.014 C 
HETATM   28 CL1  UNL     1      23.749   7.028  48.373  1.00  0.00    -0.089 Cl
HETATM   29  C13 UNL     1      23.577   4.373  48.750  1.00  0.00     0.110 C 
HETATM   30  C14 UNL     1      24.109   3.237  49.550  1.00  0.00     0.277 C 
HETATM   31  F1  UNL     1      25.438   3.052  49.094  1.00  0.00    -0.226 F 
ENDBRANCH   4  24
TORSDOF 6
ENDMDL
MODEL 6
REMARK VINA RESULT:      -6.9      5.839      9.309
REMARK  6 active torsions:
REMARK  status: ('A' for Active; 'I' for Inactive)
REMARK    1  A    between atoms: N1_2  and  C2_3 
REMARK    2  A    between atoms: C2_3  and  C3_4 
REMARK    3  A    between atoms: C4_5  and  C5_6 
REMARK       I    between atoms: C5_6  and  N2_8 
REMARK    4  A    between atoms: N2_8  and  C6_9 
REMARK    5  A    between atoms: C9_12  and  N3_13 
REMARK    6  A    between atoms: N5_27  and  O2_28 
ROOT
HETATM    1  C6  UNL     1      28.798   5.847  48.227  1.00  0.00     0.166 C 
HETATM    2  C7  UNL     1      27.558   5.740  48.502  1.00  0.00     0.074 A 
HETATM    3  C8  UNL     1      26.936   7.053  48.210  1.00  0.00     0.006 A 
HETATM    4  C9  UNL     1      27.532   8.140  47.799  1.00  0.00     0.039 C 
HETATM    5  C15 UNL     1      26.715   9.361  47.527  1.00  0.00     0.205 C 
HETATM    6  N4  UNL     1      25.576   8.871  46.730  1.00  0.00    -0.299 NA
HETATM    7  C16 UNL     1      24.934   7.832  47.140  1.00  0.00     0.097 C 
HETATM    8  C17 UNL     1      25.484   7.295  48.401  1.00  0.00     0.087 A 
HETATM    9  C18 UNL     1      24.780   6.120  48.900  1.00  0.00     0.008 A 
HETATM   10  C19 UNL     1      25.208   4.921  49.195  1.00  0.00     0.120 A 
HETATM   11  N5  UNL     1      26.594   4.806  48.973  1.00  0.00    -0.236 N 
ENDROOT
BRANCH   1  12
HETATM   12  N2  UNL     1      30.116   5.422  48.104  1.00  0.00    -0.345 N 
HETATM   13  C5  UNL     1      31.452   5.241  48.559  1.00  0.00     0.241 C 
HETATM   14  O1  UNL     1      31.507   5.727  49.721  1.00  0.00    -0.269 OA
HETATM   15  H9  UNL     1      30.146   4.981  47.127  1.00  0.00     0.163 HD
BRANCH  13  16
HETATM   16  C4  UNL     1      32.528   4.620  47.828  1.00  0.00     0.072 C 
HETATM   17  C3  UNL     1      33.682   5.051  48.246  1.00  0.00     0.008 C 
BRANCH  17  18
HETATM   18  C2  UNL     1      34.872   4.485  47.569  1.00  0.00     0.296 C 
BRANCH  18  19
HETATM   19  N1  UNL     1      34.810   4.952  46.187  1.00  0.00     0.082 N 
HETATM   20  C1  UNL     1      35.118   3.890  45.261  1.00  0.00     0.307 C 
HETATM   21  H4  UNL     1      35.480   5.744  46.083  1.00  0.00     0.315 HD
ENDBRANCH  18  19
ENDBRANCH  17  18
ENDBRANCH  13  16
ENDBRANCH   1  12
BRANCH  11  22
HETATM   22  O2  UNL     1      27.184   3.610  49.238  1.00  0.00    -0.279 OA
HETATM   23  C20 UNL     1      26.495   3.061  50.320  1.00  0.00     0.238 C 
ENDBRANCH  11  22
BRANCH   4  24
HETATM   24  N3  UNL     1      28.891   8.366  47.528  1.00  0.00    -0.348 N 
HETATM   25  C10 UNL     1      29.346   8.253  46.164  1.00  0.00     0.154 C 
HETATM   26  C11 UNL     1      30.648   8.940  45.956  1.00  0.00     0.012 C 
HETATM   27  C12 UNL     1      31.312   9.204  47.042  1.00  0.00     0.014 C 
HETATM   28 CL1  UNL     1      32.857  10.024  46.743  1.00  0.00    -0.089 Cl
HETATM   29  C13 UNL     1      31.090   8.980  48.478  1.00  0.00     0.110 C 
HETATM   30  C14 UNL     1      29.640   8.764  48.731  1.00  0.00     0.277 C 
HETATM   31  F1  UNL     1      29.119  10.049  49.024  1.00  0.00    -0.226 F 
ENDBRANCH   4  24
TORSDOF 6
ENDMDL
MODEL 7
REMARK VINA RESULT:      -6.9      8.365     11.226
REMARK  6 active torsions:
REMARK  status: ('A' for Active; 'I' for Inactive)
REMARK    1  A    between atoms: N1_2  and  C2_3 
REMARK    2  A    between atoms: C2_3  and  C3_4 
REMARK    3  A    between atoms: C4_5  and  C5_6 
REMARK       I    between atoms: C5_6  and  N2_8 
REMARK    4  A    between atoms: N2_8  and  C6_9 
REMARK    5  A    between atoms: C9_12  and  N3_13 
REMARK    6  A    between atoms: N5_27  and  O2_28 
ROOT
HETATM    1  C6  UNL     1      30.990   5.679  47.656  1.00  0.00     0.166 C 
HETATM    2  C7  UNL     1      31.981   4.930  47.369  1.00  0.00     0.074 A 
HETATM    3  C8  UNL     1      33.205   5.747  47.545  1.00  0.00     0.006 A 
HETATM    4  C9  UNL     1      33.276   7.009  47.879  1.00  0.00     0.039 C 
HETATM    5  C15 UNL     1      34.619   7.645  48.039  1.00  0.00     0.205 C 
HETATM    6  N4  UNL     1      35.386   6.685  48.852  1.00  0.00    -0.299 NA
HETATM    7  C16 UNL     1      35.378   5.441  48.516  1.00  0.00     0.097 C 
HETATM    8  C17 UNL     1      34.561   5.192  47.311  1.00  0.00     0.087 A 
HETATM    9  C18 UNL     1      34.531   3.795  46.896  1.00  0.00     0.008 A 
HETATM   10  C19 UNL     1      33.533   2.975  46.704  1.00  0.00     0.120 A 
HETATM   11  N5  UNL     1      32.299   3.607  46.958  1.00  0.00    -0.236 N 
ENDROOT
BRANCH   1  12
HETATM   12  N2  UNL     1      29.650   6.005  47.834  1.00  0.00    -0.345 N 
HETATM   13  C5  UNL     1      28.304   5.733  48.205  1.00  0.00     0.241 C 
HETATM   14  O1  UNL     1      28.271   4.533  48.594  1.00  0.00    -0.269 OA
HETATM   15  H9  UNL     1      29.599   7.031  47.527  1.00  0.00     0.163 HD
BRANCH  13  16
HETATM   16  C4  UNL     1      27.197   6.654  48.145  1.00  0.00     0.072 C 
HETATM   17  C3  UNL     1      27.522   7.728  47.486  1.00  0.00     0.008 C 
BRANCH  17  18
HETATM   18  C2  UNL     1      26.464   8.756  47.355  1.00  0.00     0.296 C 
BRANCH  18  19
HETATM   19  N1  UNL     1      26.717   9.733  48.410  1.00  0.00     0.082 N 
HETATM   20  C1  UNL     1      25.842  10.873  48.289  1.00  0.00     0.307 C 
HETATM   21  H4  UNL     1      27.717  10.022  48.351  1.00  0.00     0.315 HD
ENDBRANCH  18  19
ENDBRANCH  17  18
ENDBRANCH  13  16
ENDBRANCH   1  12
BRANCH  11  22
HETATM   22  O2  UNL     1      31.165   2.875  46.800  1.00  0.00    -0.279 OA
HETATM   23  C20 UNL     1      31.573   1.574  46.499  1.00  0.00     0.238 C 
ENDBRANCH  11  22
BRANCH   4  24
HETATM   24  N3  UNL     1      32.245   7.920  48.153  1.00  0.00    -0.348 N 
HETATM   25  C10 UNL     1      31.829   8.091  49.524  1.00  0.00     0.154 C 
HETATM   26  C11 UNL     1      31.086   9.365  49.722  1.00  0.00     0.012 C 
HETATM   27  C12 UNL     1      30.635   9.915  48.633  1.00  0.00     0.014 C 
HETATM   28 CL1  UNL     1      29.758  11.429  48.921  1.00  0.00    -0.089 Cl
HETATM   29  C13 UNL     1      30.675   9.577  47.203  1.00  0.00     0.110 C 
HETATM   30  C14 UNL     1      31.790   8.627  46.945  1.00  0.00     0.277 C 
HETATM   31  F1  UNL     1      32.901   9.440  46.609  1.00  0.00    -0.226 F 
ENDBRANCH   4  24
TORSDOF 6
ENDMDL
MODEL 8
REMARK VINA RESULT:      -6.6      5.822     11.358
REMARK  6 active torsions:
REMARK  status: ('A' for Active; 'I' for Inactive)
REMARK    1  A    between atoms: N1_2  and  C2_3 
REMARK    2  A    between atoms: C2_3  and  C3_4 
REMARK    3  A    between atoms: C4_5  and  C5_6 
REMARK       I    between atoms: C5_6  and  N2_8 
REMARK    4  A    between atoms: N2_8  and  C6_9 
REMARK    5  A    between atoms: C9_12  and  N3_13 
REMARK    6  A    between atoms: N5_27  and  O2_28 
ROOT
HETATM    1  C6  UNL     1      31.007   6.006  47.758  1.00  0.00     0.166 C 
HETATM    2  C7  UNL     1      32.080   5.394  47.443  1.00  0.00     0.074 A 
HETATM    3  C8  UNL     1      33.179   6.385  47.515  1.00  0.00     0.006 A 
HETATM    4  C9  UNL     1      33.083   7.658  47.795  1.00  0.00     0.039 C 
HETATM    5  C15 UNL     1      34.325   8.487  47.851  1.00  0.00     0.205 C 
HETATM    6  N4  UNL     1      35.265   7.687  48.655  1.00  0.00    -0.299 NA
HETATM    7  C16 UNL     1      35.421   6.440  48.368  1.00  0.00     0.097 C 
HETATM    8  C17 UNL     1      34.587   6.020  47.224  1.00  0.00     0.087 A 
HETATM    9  C18 UNL     1      34.740   4.616  46.865  1.00  0.00     0.008 A 
HETATM   10  C19 UNL     1      33.863   3.652  46.764  1.00  0.00     0.120 A 
HETATM   11  N5  UNL     1      32.565   4.112  47.065  1.00  0.00    -0.236 N 
ENDROOT
BRANCH   1  12
HETATM   12  N2  UNL     1      29.645   6.144  48.002  1.00  0.00    -0.345 N 
HETATM   13  C5  UNL     1      28.336   6.629  47.726  1.00  0.00     0.241 C 
HETATM   14  O1  UNL     1      28.423   7.332  46.683  1.00  0.00    -0.269 OA
HETATM   15  H9  UNL     1      29.488   5.557  48.886  1.00  0.00     0.163 HD
BRANCH  13  16
HETATM   16  C4  UNL     1      27.145   6.364  48.495  1.00  0.00     0.072 C 
HETATM   17  C3  UNL     1      27.039   5.095  48.764  1.00  0.00     0.008 C 
BRANCH  17  18
HETATM   18  C2  UNL     1      25.851   4.696  49.553  1.00  0.00     0.296 C 
BRANCH  18  19
HETATM   19  N1  UNL     1      25.916   3.242  49.672  1.00  0.00     0.082 N 
HETATM   20  C1  UNL     1      26.416   2.844  50.964  1.00  0.00     0.307 C 
HETATM   21  H4  UNL     1      26.527   2.882  48.908  1.00  0.00     0.315 HD
ENDBRANCH  18  19
ENDBRANCH  17  18
ENDBRANCH  13  16
ENDBRANCH   1  12
BRANCH  11  22
HETATM   22  O2  UNL     1      31.543   3.218  47.002  1.00  0.00    -0.279 OA
HETATM   23  C20 UNL     1      32.107   2.000  46.621  1.00  0.00     0.238 C 
ENDBRANCH  11  22
BRANCH   4  24
HETATM   24  N3  UNL     1      31.945   8.424  48.094  1.00  0.00    -0.348 N 
HETATM   25  C10 UNL     1      31.533   8.529  49.473  1.00  0.00     0.154 C 
HETATM   26  C11 UNL     1      30.633   9.692  49.694  1.00  0.00     0.012 C 
HETATM   27  C12 UNL     1      30.096  10.186  48.618  1.00  0.00     0.014 C 
HETATM   28 CL1  UNL     1      29.032  11.570  48.933  1.00  0.00    -0.089 Cl
HETATM   29  C13 UNL     1      30.155   9.867  47.184  1.00  0.00     0.110 C 
HETATM   30  C14 UNL     1      31.381   9.073  46.900  1.00  0.00     0.277 C 
HETATM   31  F1  UNL     1      32.370  10.028  46.555  1.00  0.00    -0.226 F 
ENDBRANCH   4  24
TORSDOF 6
ENDMDL
MODEL 9
REMARK VINA RESULT:      -6.6      2.040      2.763
REMARK  6 active torsions:
REMARK  status: ('A' for Active; 'I' for Inactive)
REMARK    1  A    between atoms: N1_2  and  C2_3 
REMARK    2  A    between atoms: C2_3  and  C3_4 
REMARK    3  A    between atoms: C4_5  and  C5_6 
REMARK       I    between atoms: C5_6  and  N2_8 
REMARK    4  A    between atoms: N2_8  and  C6_9 
REMARK    5  A    between atoms: C9_12  and  N3_13 
REMARK    6  A    between atoms: N5_27  and  O2_28 
ROOT
HETATM    1  C6  UNL     1      24.648   2.938  50.496  1.00  0.00     0.166 C 
HETATM    2  C7  UNL     1      24.268   2.042  51.319  1.00  0.00     0.074 A 
HETATM    3  C8  UNL     1      22.792   1.959  51.216  1.00  0.00     0.006 A 
HETATM    4  C9  UNL     1      22.006   2.690  50.469  1.00  0.00     0.039 C 
HETATM    5  C15 UNL     1      20.536   2.425  50.482  1.00  0.00     0.205 C 
HETATM    6  N4  UNL     1      20.425   0.961  50.351  1.00  0.00    -0.299 NA
HETATM    7  C16 UNL     1      21.149   0.214  51.111  1.00  0.00     0.097 C 
HETATM    8  C17 UNL     1      21.999   1.002  52.026  1.00  0.00     0.087 A 
HETATM    9  C18 UNL     1      22.830   0.191  52.907  1.00  0.00     0.008 A 
HETATM   10  C19 UNL     1      24.123   0.168  53.092  1.00  0.00     0.120 A 
HETATM   11  N5  UNL     1      24.771   1.113  52.271  1.00  0.00    -0.236 N 
ENDROOT
BRANCH   1  12
HETATM   12  N2  UNL     1      25.560   3.746  49.826  1.00  0.00    -0.345 N 
HETATM   13  C5  UNL     1      26.193   4.982  49.518  1.00  0.00     0.241 C 
HETATM   14  O1  UNL     1      25.643   5.859  50.239  1.00  0.00    -0.269 OA
HETATM   15  H9  UNL     1      26.080   3.059  49.188  1.00  0.00     0.163 HD
BRANCH  13  16
HETATM   16  C4  UNL     1      27.255   5.187  48.565  1.00  0.00     0.072 C 
HETATM   17  C3  UNL     1      27.617   6.436  48.534  1.00  0.00     0.008 C 
BRANCH  17  18
HETATM   18  C2  UNL     1      28.707   6.774  47.589  1.00  0.00     0.296 C 
BRANCH  18  19
HETATM   19  N1  UNL     1      29.842   5.939  47.968  1.00  0.00     0.082 N 
HETATM   20  C1  UNL     1      31.057   6.387  47.333  1.00  0.00     0.307 C 
HETATM   21  H4  UNL     1      29.624   4.954  47.702  1.00  0.00     0.315 HD
ENDBRANCH  18  19
ENDBRANCH  17  18
ENDBRANCH  13  16
ENDBRANCH   1  12
BRANCH  11  22
HETATM   22  O2  UNL     1      26.125   1.205  52.353  1.00  0.00    -0.279 OA
HETATM   23  C20 UNL     1      26.623  -0.078  52.128  1.00  0.00     0.238 C 
ENDBRANCH  11  22
BRANCH   4  24
HETATM   24  N3  UNL     1      22.329   3.731  49.584  1.00  0.00    -0.348 N 
HETATM   25  C10 UNL     1      22.569   3.403  48.200  1.00  0.00     0.154 C 
HETATM   26  C11 UNL     1      22.447   4.596  47.320  1.00  0.00     0.012 C 
HETATM   27  C12 UNL     1      22.503   5.741  47.933  1.00  0.00     0.014 C 
HETATM   28 CL1  UNL     1      22.353   7.132  46.842  1.00  0.00    -0.089 Cl
HETATM   29  C13 UNL     1      22.666   6.167  49.330  1.00  0.00     0.110 C 
HETATM   30  C14 UNL     1      22.298   5.048  50.239  1.00  0.00     0.277 C 
HETATM   31  F1  UNL     1      20.922   5.237  50.521  1.00  0.00    -0.226 F 
ENDBRANCH   4  24
TORSDOF 6
ENDMDL
