MODEL 1
REMARK VINA RESULT:      -7.5      0.000      0.000
REMARK  7 active torsions:
REMARK  status: ('A' for Active; 'I' for Inactive)
REMARK    1  A    between atoms: O1_2  and  C2_3 
REMARK    2  A    between atoms: C2_3  and  C3_4 
REMARK    3  A    between atoms: C3_4  and  C4_5 
REMARK    4  A    between atoms: C3_4  and  O4_24 
REMARK    5  A    between atoms: C5_6  and  C6_7 
REMARK    6  A    between atoms: C12_14  and  O2_15 
REMARK    7  A    between atoms: C14_17  and  O3_18 
ROOT
HETATM    1  C6  UNL     1      25.907   3.976  49.762  1.00  0.00     0.260 A 
HETATM    2  C7  UNL     1      24.484   3.628  49.477  1.00  0.00     0.355 A 
HETATM    3  C8  UNL     1      23.925   2.571  50.349  1.00  0.00     0.317 A 
HETATM    4  N1  UNL     1      25.134   3.084  50.371  1.00  0.00     0.052 N 
HETATM    5  C9  UNL     1      25.926   2.579  51.301  1.00  0.00     0.225 A 
HETATM    6  C10 UNL     1      25.817   1.630  52.278  1.00  0.00     0.047 A 
HETATM    7  C11 UNL     1      26.986   1.517  52.960  1.00  0.00     0.057 A 
HETATM    8  C12 UNL     1      26.733   0.532  53.903  1.00  0.00     0.102 A 
HETATM    9  C14 UNL     1      25.492  -0.116  54.010  1.00  0.00     0.103 A 
HETATM   10  C16 UNL     1      24.410   0.187  53.164  1.00  0.00     0.071 A 
HETATM   11  C17 UNL     1      24.531   1.146  52.185  1.00  0.00     0.071 A 
HETATM   12  N2  UNL     1      23.677   1.619  51.262  1.00  0.00    -0.243 NA
HETATM   13  N3  UNL     1      26.861   3.476  50.771  1.00  0.00    -0.331 N 
HETATM   14  H18 UNL     1      27.735   3.413  51.264  1.00  0.00     0.164 HD
ENDROOT
BRANCH   1  15
HETATM   15  C5  UNL     1      26.621   4.871  49.091  1.00  0.00     0.039 C 
HETATM   16  C4  UNL     1      27.980   5.129  48.674  1.00  0.00     0.034 C 
BRANCH  16  17
HETATM   17  C3  UNL     1      28.754   5.962  48.029  1.00  0.00     0.069 C 
BRANCH  17  18
HETATM   18  C2  UNL     1      30.178   5.640  47.911  1.00  0.00     0.231 C 
BRANCH  18  19
HETATM   19  O1  UNL     1      30.794   5.398  49.114  1.00  0.00    -0.390 OA
HETATM   20  C1  UNL     1      31.656   6.462  49.414  1.00  0.00     0.201 C 
ENDBRANCH  18  19
ENDBRANCH  17  18
BRANCH  17  21
HETATM   21  O4  UNL     1      28.181   7.104  47.493  1.00  0.00    -0.358 OA
HETATM   22  C18 UNL     1      28.403   8.410  47.989  1.00  0.00     0.209 C 
ENDBRANCH  17  21
ENDBRANCH  16  17
ENDBRANCH   1  15
BRANCH   8  23
HETATM   23  O2  UNL     1      27.767   0.187  54.773  1.00  0.00    -0.353 OA
HETATM   24  C13 UNL     1      28.977  -0.310  54.260  1.00  0.00     0.210 C 
ENDBRANCH   8  23
BRANCH   9  25
HETATM   25  O3  UNL     1      25.330  -1.086  54.981  1.00  0.00    -0.353 OA
HETATM   26  C15 UNL     1      24.203  -1.283  55.765  1.00  0.00     0.210 C 
ENDBRANCH   9  25
TORSDOF 7
ENDMDL
MODEL 2
REMARK VINA RESULT:      -7.2      0.969      1.794
REMARK  7 active torsions:
REMARK  status: ('A' for Active; 'I' for Inactive)
REMARK    1  A    between atoms: O1_2  and  C2_3 
REMARK    2  A    between atoms: C2_3  and  C3_4 
REMARK    3  A    between atoms: C3_4  and  C4_5 
REMARK    4  A    between atoms: C3_4  and  O4_24 
REMARK    5  A    between atoms: C5_6  and  C6_7 
REMARK    6  A    between atoms: C12_14  and  O2_15 
REMARK    7  A    between atoms: C14_17  and  O3_18 
ROOT
HETATM    1  C6  UNL     1      25.741   4.035  49.729  1.00  0.00     0.260 A 
HETATM    2  C7  UNL     1      24.365   3.810  49.196  1.00  0.00     0.355 A 
HETATM    3  C8  UNL     1      23.583   2.789  49.929  1.00  0.00     0.317 A 
HETATM    4  N1  UNL     1      24.808   3.200  50.171  1.00  0.00     0.052 N 
HETATM    5  C9  UNL     1      25.386   2.616  51.206  1.00  0.00     0.225 A 
HETATM    6  C10 UNL     1      25.036   1.663  52.121  1.00  0.00     0.047 A 
HETATM    7  C11 UNL     1      26.058   1.443  52.989  1.00  0.00     0.057 A 
HETATM    8  C12 UNL     1      25.570   0.467  53.845  1.00  0.00     0.102 A 
HETATM    9  C14 UNL     1      24.282  -0.078  53.720  1.00  0.00     0.103 A 
HETATM   10  C16 UNL     1      23.388   0.328  52.712  1.00  0.00     0.071 A 
HETATM   11  C17 UNL     1      23.751   1.290  51.798  1.00  0.00     0.071 A 
HETATM   12  N2  UNL     1      23.109   1.846  50.758  1.00  0.00    -0.243 NA
HETATM   13  N3  UNL     1      26.466   3.441  50.870  1.00  0.00    -0.331 N 
HETATM   14  H18 UNL     1      27.235   3.297  51.502  1.00  0.00     0.164 HD
ENDROOT
BRANCH   1  15
HETATM   15  C5  UNL     1      26.628   4.878  49.216  1.00  0.00     0.039 C 
HETATM   16  C4  UNL     1      27.970   4.897  48.681  1.00  0.00     0.034 C 
BRANCH  16  17
HETATM   17  C3  UNL     1      28.898   5.661  48.167  1.00  0.00     0.069 C 
BRANCH  17  18
HETATM   18  C2  UNL     1      28.517   6.992  47.686  1.00  0.00     0.231 C 
BRANCH  18  19
HETATM   19  O1  UNL     1      28.648   7.982  48.629  1.00  0.00    -0.390 OA
HETATM   20  C1  UNL     1      27.390   8.544  48.888  1.00  0.00     0.201 C 
ENDBRANCH  18  19
ENDBRANCH  17  18
BRANCH  17  21
HETATM   21  O4  UNL     1      30.190   5.167  48.105  1.00  0.00    -0.358 OA
HETATM   22  C18 UNL     1      31.306   5.786  48.716  1.00  0.00     0.209 C 
ENDBRANCH  17  21
ENDBRANCH  16  17
ENDBRANCH   1  15
BRANCH   8  23
HETATM   23  O2  UNL     1      26.409   0.024  54.867  1.00  0.00    -0.353 OA
HETATM   24  C13 UNL     1      27.796   0.222  54.770  1.00  0.00     0.210 C 
ENDBRANCH   8  23
BRANCH   9  25
HETATM   25  O3  UNL     1      23.880  -1.046  54.621  1.00  0.00    -0.353 OA
HETATM   26  C15 UNL     1      22.596  -1.227  55.113  1.00  0.00     0.210 C 
ENDBRANCH   9  25
TORSDOF 7
ENDMDL
MODEL 3
REMARK VINA RESULT:      -7.0      4.472      7.054
REMARK  7 active torsions:
REMARK  status: ('A' for Active; 'I' for Inactive)
REMARK    1  A    between atoms: O1_2  and  C2_3 
REMARK    2  A    between atoms: C2_3  and  C3_4 
REMARK    3  A    between atoms: C3_4  and  C4_5 
REMARK    4  A    between atoms: C3_4  and  O4_24 
REMARK    5  A    between atoms: C5_6  and  C6_7 
REMARK    6  A    between atoms: C12_14  and  O2_15 
REMARK    7  A    between atoms: C14_17  and  O3_18 
ROOT
HETATM    1  C6  UNL     1      24.005  -0.042  53.191  1.00  0.00     0.260 A 
HETATM    2  C7  UNL     1      23.741  -0.800  54.450  1.00  0.00     0.355 A 
HETATM    3  C8  UNL     1      22.318  -1.142  54.672  1.00  0.00     0.317 A 
HETATM    4  N1  UNL     1      22.847  -0.493  53.659  1.00  0.00     0.052 N 
HETATM    5  C9  UNL     1      21.978  -0.116  52.737  1.00  0.00     0.225 A 
HETATM    6  C10 UNL     1      20.628  -0.225  52.554  1.00  0.00     0.047 A 
HETATM    7  C11 UNL     1      20.260   0.368  51.388  1.00  0.00     0.057 A 
HETATM    8  C12 UNL     1      18.886   0.186  51.336  1.00  0.00     0.102 A 
HETATM    9  C14 UNL     1      18.170  -0.485  52.340  1.00  0.00     0.103 A 
HETATM   10  C16 UNL     1      18.796  -1.024  53.479  1.00  0.00     0.071 A 
HETATM   11  C17 UNL     1      20.157  -0.910  53.651  1.00  0.00     0.071 A 
HETATM   12  N2  UNL     1      20.989  -1.321  54.622  1.00  0.00    -0.243 NA
HETATM   13  N3  UNL     1      23.110   0.415  52.109  1.00  0.00    -0.331 N 
HETATM   14  H18 UNL     1      22.863   0.857  51.241  1.00  0.00     0.164 HD
ENDROOT
BRANCH   1  15
HETATM   15  C5  UNL     1      25.195   0.394  52.800  1.00  0.00     0.039 C 
HETATM   16  C4  UNL     1      26.007   1.589  52.816  1.00  0.00     0.034 C 
BRANCH  16  17
HETATM   17  C3  UNL     1      27.160   2.096  52.464  1.00  0.00     0.069 C 
BRANCH  17  18
HETATM   18  C2  UNL     1      28.322   1.839  53.318  1.00  0.00     0.231 C 
BRANCH  18  19
HETATM   19  O1  UNL     1      27.999   1.394  54.577  1.00  0.00    -0.390 OA
HETATM   20  C1  UNL     1      28.699   0.209  54.842  1.00  0.00     0.201 C 
ENDBRANCH  18  19
ENDBRANCH  17  18
BRANCH  17  21
HETATM   21  O4  UNL     1      27.215   2.848  51.302  1.00  0.00    -0.358 OA
HETATM   22  C18 UNL     1      26.134   2.998  50.403  1.00  0.00     0.209 C 
ENDBRANCH  17  21
ENDBRANCH  16  17
ENDBRANCH   1  15
BRANCH   8  23
HETATM   23  O2  UNL     1      18.206   0.696  50.230  1.00  0.00    -0.353 OA
HETATM   24  C13 UNL     1      18.581   1.938  49.691  1.00  0.00     0.210 C 
ENDBRANCH   8  23
BRANCH   9  25
HETATM   25  O3  UNL     1      16.801  -0.621  52.202  1.00  0.00    -0.353 OA
HETATM   26  C15 UNL     1      16.077  -1.798  52.322  1.00  0.00     0.210 C 
ENDBRANCH   9  25
TORSDOF 7
ENDMDL
MODEL 4
REMARK VINA RESULT:      -6.9      4.174      8.422
REMARK  7 active torsions:
REMARK  status: ('A' for Active; 'I' for Inactive)
REMARK    1  A    between atoms: O1_2  and  C2_3 
REMARK    2  A    between atoms: C2_3  and  C3_4 
REMARK    3  A    between atoms: C3_4  and  C4_5 
REMARK    4  A    between atoms: C3_4  and  O4_24 
REMARK    5  A    between atoms: C5_6  and  C6_7 
REMARK    6  A    between atoms: C12_14  and  O2_15 
REMARK    7  A    between atoms: C14_17  and  O3_18 
ROOT
HETATM    1  C6  UNL     1      21.840  -0.522  53.619  1.00  0.00     0.260 A 
HETATM    2  C7  UNL     1      22.293  -1.320  54.797  1.00  0.00     0.355 A 
HETATM    3  C8  UNL     1      23.740  -1.213  55.090  1.00  0.00     0.317 A 
HETATM    4  N1  UNL     1      23.062  -0.624  54.131  1.00  0.00     0.052 N 
HETATM    5  C9  UNL     1      23.786   0.159  53.350  1.00  0.00     0.225 A 
HETATM    6  C10 UNL     1      25.099   0.529  53.272  1.00  0.00     0.047 A 
HETATM    7  C11 UNL     1      25.289   1.384  52.234  1.00  0.00     0.057 A 
HETATM    8  C12 UNL     1      26.645   1.669  52.275  1.00  0.00     0.102 A 
HETATM    9  C14 UNL     1      27.509   1.119  53.236  1.00  0.00     0.103 A 
HETATM   10  C16 UNL     1      27.058   0.235  54.234  1.00  0.00     0.071 A 
HETATM   11  C17 UNL     1      25.733  -0.128  54.303  1.00  0.00     0.071 A 
HETATM   12  N2  UNL     1      25.052  -0.937  55.132  1.00  0.00    -0.243 NA
HETATM   13  N3  UNL     1      22.566   0.375  52.699  1.00  0.00    -0.331 N 
HETATM   14  H18 UNL     1      22.681   1.010  51.927  1.00  0.00     0.164 HD
ENDROOT
BRANCH   1  15
HETATM   15  C5  UNL     1      20.598  -0.488  53.155  1.00  0.00     0.039 C 
HETATM   16  C4  UNL     1      19.788   0.214  52.186  1.00  0.00     0.034 C 
BRANCH  16  17
HETATM   17  C3  UNL     1      18.588   0.312  51.675  1.00  0.00     0.069 C 
BRANCH  17  18
HETATM   18  C2  UNL     1      17.659  -0.806  51.863  1.00  0.00     0.231 C 
BRANCH  18  19
HETATM   19  O1  UNL     1      17.323  -1.035  53.175  1.00  0.00    -0.390 OA
HETATM   20  C1  UNL     1      17.491  -2.396  53.464  1.00  0.00     0.201 C 
ENDBRANCH  18  19
ENDBRANCH  17  18
BRANCH  17  21
HETATM   21  O4  UNL     1      18.265   1.468  50.984  1.00  0.00    -0.358 OA
HETATM   22  C18 UNL     1      18.078   2.730  51.594  1.00  0.00     0.209 C 
ENDBRANCH  17  21
ENDBRANCH  16  17
ENDBRANCH   1  15
BRANCH   8  23
HETATM   23  O2  UNL     1      27.154   2.541  51.313  1.00  0.00    -0.353 OA
HETATM   24  C13 UNL     1      26.275   3.275  50.499  1.00  0.00     0.210 C 
ENDBRANCH   8  23
BRANCH   9  25
HETATM   25  O3  UNL     1      28.847   1.461  53.200  1.00  0.00    -0.353 OA
HETATM   26  C15 UNL     1      29.576   2.037  54.231  1.00  0.00     0.210 C 
ENDBRANCH   9  25
TORSDOF 7
ENDMDL
MODEL 5
REMARK VINA RESULT:      -6.7      4.713      7.738
REMARK  7 active torsions:
REMARK  status: ('A' for Active; 'I' for Inactive)
REMARK    1  A    between atoms: O1_2  and  C2_3 
REMARK    2  A    between atoms: C2_3  and  C3_4 
REMARK    3  A    between atoms: C3_4  and  C4_5 
REMARK    4  A    between atoms: C3_4  and  O4_24 
REMARK    5  A    between atoms: C5_6  and  C6_7 
REMARK    6  A    between atoms: C12_14  and  O2_15 
REMARK    7  A    between atoms: C14_17  and  O3_18 
ROOT
HETATM    1  C6  UNL     1      23.539  -0.451  53.651  1.00  0.00     0.260 A 
HETATM    2  C7  UNL     1      22.684  -1.125  54.673  1.00  0.00     0.355 A 
HETATM    3  C8  UNL     1      21.234  -1.093  54.377  1.00  0.00     0.317 A 
HETATM    4  N1  UNL     1      22.218  -0.594  53.663  1.00  0.00     0.052 N 
HETATM    5  C9  UNL     1      21.836  -0.002  52.545  1.00  0.00     0.225 A 
HETATM    6  C10 UNL     1      20.648   0.240  51.915  1.00  0.00     0.047 A 
HETATM    7  C11 UNL     1      20.857   0.916  50.755  1.00  0.00     0.057 A 
HETATM    8  C12 UNL     1      19.584   1.091  50.233  1.00  0.00     0.102 A 
HETATM    9  C14 UNL     1      18.428   0.619  50.875  1.00  0.00     0.103 A 
HETATM   10  C16 UNL     1      18.476  -0.071  52.101  1.00  0.00     0.071 A 
HETATM   11  C17 UNL     1      19.678  -0.310  52.724  1.00  0.00     0.071 A 
HETATM   12  N2  UNL     1      20.003  -0.926  53.873  1.00  0.00    -0.243 NA
HETATM   13  N3  UNL     1      23.208   0.227  52.382  1.00  0.00    -0.331 N 
HETATM   14  H18 UNL     1      23.387   0.723  51.526  1.00  0.00     0.164 HD
ENDROOT
BRANCH   1  15
HETATM   15  C5  UNL     1      24.858  -0.332  53.719  1.00  0.00     0.039 C 
HETATM   16  C4  UNL     1      26.060  -0.885  53.141  1.00  0.00     0.034 C 
BRANCH  16  17
HETATM   17  C3  UNL     1      27.367  -0.830  53.149  1.00  0.00     0.069 C 
BRANCH  17  18
HETATM   18  C2  UNL     1      28.009   0.473  52.949  1.00  0.00     0.231 C 
BRANCH  18  19
HETATM   19  O1  UNL     1      28.310   1.128  54.118  1.00  0.00    -0.390 OA
HETATM   20  C1  UNL     1      28.796   2.408  53.818  1.00  0.00     0.201 C 
ENDBRANCH  18  19
ENDBRANCH  17  18
BRANCH  17  21
HETATM   21  O4  UNL     1      28.069  -2.007  53.344  1.00  0.00    -0.358 OA
HETATM   22  C18 UNL     1      29.480  -2.102  53.322  1.00  0.00     0.209 C 
ENDBRANCH  17  21
ENDBRANCH  16  17
ENDBRANCH   1  15
BRANCH   8  23
HETATM   23  O2  UNL     1      19.469   1.766  49.018  1.00  0.00    -0.353 OA
HETATM   24  C13 UNL     1      20.614   2.296  48.401  1.00  0.00     0.210 C 
ENDBRANCH   8  23
BRANCH   9  25
HETATM   25  O3  UNL     1      17.200   0.839  50.279  1.00  0.00    -0.353 OA
HETATM   26  C15 UNL     1      15.966   0.827  50.913  1.00  0.00     0.210 C 
ENDBRANCH   9  25
TORSDOF 7
ENDMDL
MODEL 6
REMARK VINA RESULT:      -6.6      4.413      7.414
REMARK  7 active torsions:
REMARK  status: ('A' for Active; 'I' for Inactive)
REMARK    1  A    between atoms: O1_2  and  C2_3 
REMARK    2  A    between atoms: C2_3  and  C3_4 
REMARK    3  A    between atoms: C3_4  and  C4_5 
REMARK    4  A    between atoms: C3_4  and  O4_24 
REMARK    5  A    between atoms: C5_6  and  C6_7 
REMARK    6  A    between atoms: C12_14  and  O2_15 
REMARK    7  A    between atoms: C14_17  and  O3_18 
ROOT
HETATM    1  C6  UNL     1      23.796   0.863  52.309  1.00  0.00     0.260 A 
HETATM    2  C7  UNL     1      23.672   1.687  51.071  1.00  0.00     0.355 A 
HETATM    3  C8  UNL     1      22.296   1.780  50.531  1.00  0.00     0.317 A 
HETATM    4  N1  UNL     1      22.705   1.137  51.602  1.00  0.00     0.052 N 
HETATM    5  C9  UNL     1      21.748   0.509  52.262  1.00  0.00     0.225 A 
HETATM    6  C10 UNL     1      20.399   0.344  52.119  1.00  0.00     0.047 A 
HETATM    7  C11 UNL     1      19.908  -0.428  53.124  1.00  0.00     0.057 A 
HETATM    8  C12 UNL     1      18.550  -0.511  52.853  1.00  0.00     0.102 A 
HETATM    9  C14 UNL     1      17.956   0.117  51.747  1.00  0.00     0.103 A 
HETATM   10  C16 UNL     1      18.698   0.882  50.828  1.00  0.00     0.071 A 
HETATM   11  C17 UNL     1      20.056   1.043  50.983  1.00  0.00     0.071 A 
HETATM   12  N2  UNL     1      20.983   1.702  50.269  1.00  0.00    -0.243 NA
HETATM   13  N3  UNL     1      22.794   0.134  53.113  1.00  0.00    -0.331 N 
HETATM   14  H18 UNL     1      22.453  -0.435  53.868  1.00  0.00     0.164 HD
ENDROOT
BRANCH   1  15
HETATM   15  C5  UNL     1      24.931   0.618  52.950  1.00  0.00     0.039 C 
HETATM   16  C4  UNL     1      26.082  -0.254  52.888  1.00  0.00     0.034 C 
BRANCH  16  17
HETATM   17  C3  UNL     1      27.217  -0.558  53.462  1.00  0.00     0.069 C 
BRANCH  17  18
HETATM   18  C2  UNL     1      27.790   0.393  54.418  1.00  0.00     0.231 C 
BRANCH  18  19
HETATM   19  O1  UNL     1      28.874   1.083  53.932  1.00  0.00    -0.390 OA
HETATM   20  C1  UNL     1      28.470   2.368  53.546  1.00  0.00     0.201 C 
ENDBRANCH  18  19
ENDBRANCH  17  18
BRANCH  17  21
HETATM   21  O4  UNL     1      27.813  -1.764  53.131  1.00  0.00    -0.358 OA
HETATM   22  C18 UNL     1      29.186  -2.047  53.318  1.00  0.00     0.209 C 
ENDBRANCH  17  21
ENDBRANCH  16  17
ENDBRANCH   1  15
BRANCH   8  23
HETATM   23  O2  UNL     1      17.759  -1.254  53.729  1.00  0.00    -0.353 OA
HETATM   24  C13 UNL     1      17.771  -2.657  53.664  1.00  0.00     0.210 C 
ENDBRANCH   8  23
BRANCH   9  25
HETATM   25  O3  UNL     1      16.594  -0.020  51.557  1.00  0.00    -0.353 OA
HETATM   26  C15 UNL     1      15.970  -0.935  50.721  1.00  0.00     0.210 C 
ENDBRANCH   9  25
TORSDOF 7
ENDMDL
MODEL 7
REMARK VINA RESULT:      -6.6      1.607      7.769
REMARK  7 active torsions:
REMARK  status: ('A' for Active; 'I' for Inactive)
REMARK    1  A    between atoms: O1_2  and  C2_3 
REMARK    2  A    between atoms: C2_3  and  C3_4 
REMARK    3  A    between atoms: C3_4  and  C4_5 
REMARK    4  A    between atoms: C3_4  and  O4_24 
REMARK    5  A    between atoms: C5_6  and  C6_7 
REMARK    6  A    between atoms: C12_14  and  O2_15 
REMARK    7  A    between atoms: C14_17  and  O3_18 
ROOT
HETATM    1  C6  UNL     1      25.521   2.521  51.591  1.00  0.00     0.260 A 
HETATM    2  C7  UNL     1      24.037   2.649  51.490  1.00  0.00     0.355 A 
HETATM    3  C8  UNL     1      23.575   3.740  50.602  1.00  0.00     0.317 A 
HETATM    4  N1  UNL     1      24.811   3.387  50.876  1.00  0.00     0.052 N 
HETATM    5  C9  UNL     1      25.734   4.108  50.266  1.00  0.00     0.225 A 
HETATM    6  C10 UNL     1      25.745   5.162  49.396  1.00  0.00     0.047 A 
HETATM    7  C11 UNL     1      27.022   5.511  49.091  1.00  0.00     0.057 A 
HETATM    8  C12 UNL     1      26.880   6.578  48.216  1.00  0.00     0.102 A 
HETATM    9  C14 UNL     1      25.628   7.078  47.823  1.00  0.00     0.103 A 
HETATM   10  C16 UNL     1      24.419   6.530  48.291  1.00  0.00     0.071 A 
HETATM   11  C17 UNL     1      24.422   5.467  49.164  1.00  0.00     0.071 A 
HETATM   12  N2  UNL     1      23.436   4.771  49.754  1.00  0.00    -0.243 NA
HETATM   13  N3  UNL     1      26.621   3.269  50.950  1.00  0.00    -0.331 N 
HETATM   14  H18 UNL     1      27.574   3.506  50.736  1.00  0.00     0.164 HD
ENDROOT
BRANCH   1  15
HETATM   15  C5  UNL     1      26.159   1.637  52.346  1.00  0.00     0.039 C 
HETATM   16  C4  UNL     1      26.187   1.141  53.703  1.00  0.00     0.034 C 
BRANCH  16  17
HETATM   17  C3  UNL     1      26.766   0.295  54.514  1.00  0.00     0.069 C 
BRANCH  17  18
HETATM   18  C2  UNL     1      28.230   0.222  54.514  1.00  0.00     0.231 C 
BRANCH  18  19
HETATM   19  O1  UNL     1      28.724  -0.989  54.095  1.00  0.00    -0.390 OA
HETATM   20  C1  UNL     1      30.020  -0.810  53.593  1.00  0.00     0.201 C 
ENDBRANCH  18  19
ENDBRANCH  17  18
BRANCH  17  21
HETATM   21  O4  UNL     1      25.961  -0.484  55.328  1.00  0.00    -0.358 OA
HETATM   22  C18 UNL     1      24.684  -0.964  54.955  1.00  0.00     0.209 C 
ENDBRANCH  17  21
ENDBRANCH  16  17
ENDBRANCH   1  15
BRANCH   8  23
HETATM   23  O2  UNL     1      28.043   7.164  47.715  1.00  0.00    -0.353 OA
HETATM   24  C13 UNL     1      28.767   8.070  48.508  1.00  0.00     0.210 C 
ENDBRANCH   8  23
BRANCH   9  25
HETATM   25  O3  UNL     1      25.584   8.145  46.946  1.00  0.00    -0.353 OA
HETATM   26  C15 UNL     1      25.192   9.441  47.248  1.00  0.00     0.210 C 
ENDBRANCH   9  25
TORSDOF 7
ENDMDL
MODEL 8
REMARK VINA RESULT:      -6.5      1.861      7.797
REMARK  7 active torsions:
REMARK  status: ('A' for Active; 'I' for Inactive)
REMARK    1  A    between atoms: O1_2  and  C2_3 
REMARK    2  A    between atoms: C2_3  and  C3_4 
REMARK    3  A    between atoms: C3_4  and  C4_5 
REMARK    4  A    between atoms: C3_4  and  O4_24 
REMARK    5  A    between atoms: C5_6  and  C6_7 
REMARK    6  A    between atoms: C12_14  and  O2_15 
REMARK    7  A    between atoms: C14_17  and  O3_18 
ROOT
HETATM    1  C6  UNL     1      25.497   3.240  50.664  1.00  0.00     0.260 A 
HETATM    2  C7  UNL     1      24.189   3.945  50.519  1.00  0.00     0.355 A 
HETATM    3  C8  UNL     1      24.247   5.185  49.712  1.00  0.00     0.317 A 
HETATM    4  N1  UNL     1      25.228   4.360  50.001  1.00  0.00     0.052 N 
HETATM    5  C9  UNL     1      26.398   4.700  49.491  1.00  0.00     0.225 A 
HETATM    6  C10 UNL     1      26.875   5.721  48.717  1.00  0.00     0.047 A 
HETATM    7  C11 UNL     1      28.205   5.561  48.491  1.00  0.00     0.057 A 
HETATM    8  C12 UNL     1      28.548   6.653  47.707  1.00  0.00     0.102 A 
HETATM    9  C14 UNL     1      27.617   7.627  47.312  1.00  0.00     0.103 A 
HETATM   10  C16 UNL     1      26.262   7.566  47.684  1.00  0.00     0.071 A 
HETATM   11  C17 UNL     1      25.793   6.533  48.462  1.00  0.00     0.071 A 
HETATM   12  N2  UNL     1      24.576   6.240  48.952  1.00  0.00    -0.243 NA
HETATM   13  N3  UNL     1      26.842   3.539  50.133  1.00  0.00    -0.331 N 
HETATM   14  H18 UNL     1      27.825   3.398  49.977  1.00  0.00     0.164 HD
ENDROOT
BRANCH   1  15
HETATM   15  C5  UNL     1      25.690   2.130  51.364  1.00  0.00     0.039 C 
HETATM   16  C4  UNL     1      26.760   1.307  51.879  1.00  0.00     0.034 C 
BRANCH  16  17
HETATM   17  C3  UNL     1      27.036   0.226  52.560  1.00  0.00     0.069 C 
BRANCH  17  18
HETATM   18  C2  UNL     1      27.770   0.366  53.821  1.00  0.00     0.231 C 
BRANCH  18  19
HETATM   19  O1  UNL     1      29.048   0.845  53.668  1.00  0.00    -0.390 OA
HETATM   20  C1  UNL     1      29.936  -0.234  53.558  1.00  0.00     0.201 C 
ENDBRANCH  18  19
ENDBRANCH  17  18
BRANCH  17  21
HETATM   21  O4  UNL     1      26.617  -0.992  52.050  1.00  0.00    -0.358 OA
HETATM   22  C18 UNL     1      27.052  -2.247  52.536  1.00  0.00     0.209 C 
ENDBRANCH  17  21
ENDBRANCH  16  17
ENDBRANCH   1  15
BRANCH   8  23
HETATM   23  O2  UNL     1      29.878   6.769  47.304  1.00  0.00    -0.353 OA
HETATM   24  C13 UNL     1      30.839   5.868  47.793  1.00  0.00     0.210 C 
ENDBRANCH   8  23
BRANCH   9  25
HETATM   25  O3  UNL     1      28.049   8.680  46.529  1.00  0.00    -0.353 OA
HETATM   26  C15 UNL     1      27.660  10.006  46.649  1.00  0.00     0.210 C 
ENDBRANCH   9  25
TORSDOF 7
ENDMDL
MODEL 9
REMARK VINA RESULT:      -6.4      1.874      2.652
REMARK  7 active torsions:
REMARK  status: ('A' for Active; 'I' for Inactive)
REMARK    1  A    between atoms: O1_2  and  C2_3 
REMARK    2  A    between atoms: C2_3  and  C3_4 
REMARK    3  A    between atoms: C3_4  and  C4_5 
REMARK    4  A    between atoms: C3_4  and  O4_24 
REMARK    5  A    between atoms: C5_6  and  C6_7 
REMARK    6  A    between atoms: C12_14  and  O2_15 
REMARK    7  A    between atoms: C14_17  and  O3_18 
ROOT
HETATM    1  C6  UNL     1      26.949   5.646  48.734  1.00  0.00     0.260 A 
HETATM    2  C7  UNL     1      25.576   6.213  48.587  1.00  0.00     0.355 A 
HETATM    3  C8  UNL     1      24.512   5.416  49.238  1.00  0.00     0.317 A 
HETATM    4  N1  UNL     1      25.802   5.172  49.207  1.00  0.00     0.052 N 
HETATM    5  C9  UNL     1      26.167   4.075  49.849  1.00  0.00     0.225 A 
HETATM    6  C10 UNL     1      25.534   3.094  50.559  1.00  0.00     0.047 A 
HETATM    7  C11 UNL     1      26.434   2.180  51.007  1.00  0.00     0.057 A 
HETATM    8  C12 UNL     1      25.662   1.257  51.697  1.00  0.00     0.102 A 
HETATM    9  C14 UNL     1      24.268   1.374  51.821  1.00  0.00     0.103 A 
HETATM   10  C16 UNL     1      23.549   2.440  51.252  1.00  0.00     0.071 A 
HETATM   11  C17 UNL     1      24.197   3.424  50.541  1.00  0.00     0.071 A 
HETATM   12  N2  UNL     1      23.764   4.526  49.906  1.00  0.00    -0.243 NA
HETATM   13  N3  UNL     1      27.450   4.443  49.429  1.00  0.00    -0.331 N 
HETATM   14  H18 UNL     1      28.135   3.782  49.753  1.00  0.00     0.164 HD
ENDROOT
BRANCH   1  15
HETATM   15  C5  UNL     1      28.050   6.171  48.213  1.00  0.00     0.039 C 
HETATM   16  C4  UNL     1      29.488   6.059  48.295  1.00  0.00     0.034 C 
BRANCH  16  17
HETATM   17  C3  UNL     1      30.619   6.523  47.831  1.00  0.00     0.069 C 
BRANCH  17  18
HETATM   18  C2  UNL     1      31.571   5.576  47.244  1.00  0.00     0.231 C 
BRANCH  18  19
HETATM   19  O1  UNL     1      32.288   4.862  48.172  1.00  0.00    -0.390 OA
HETATM   20  C1  UNL     1      32.527   3.572  47.679  1.00  0.00     0.201 C 
ENDBRANCH  18  19
ENDBRANCH  17  18
BRANCH  17  21
HETATM   21  O4  UNL     1      30.852   7.885  47.923  1.00  0.00    -0.358 OA
HETATM   22  C18 UNL     1      31.935   8.459  48.628  1.00  0.00     0.209 C 
ENDBRANCH  17  21
ENDBRANCH  16  17
ENDBRANCH   1  15
BRANCH   8  23
HETATM   23  O2  UNL     1      26.317   0.176  52.286  1.00  0.00    -0.353 OA
HETATM   24  C13 UNL     1      27.169   0.387  53.384  1.00  0.00     0.210 C 
ENDBRANCH   8  23
BRANCH   9  25
HETATM   25  O3  UNL     1      23.581   0.406  52.529  1.00  0.00    -0.353 OA
HETATM   26  C15 UNL     1      22.540   0.623  53.420  1.00  0.00     0.210 C 
ENDBRANCH   9  25
TORSDOF 7
ENDMDL
