MODEL 1
REMARK VINA RESULT:      -8.2      0.000      0.000
REMARK  6 active torsions:
REMARK  status: ('A' for Active; 'I' for Inactive)
REMARK    1  A    between atoms: O1_2  and  C2_3 
REMARK    2  A    between atoms: C6_7  and  N1_8 
REMARK    3  A    between atoms: N1_8  and  C7_9 
REMARK    4  A    between atoms: C14_16  and  N2_17 
REMARK    5  A    between atoms: C17_21  and  O2_22 
REMARK    6  A    between atoms: O2_22  and  C18_23 
ROOT
HETATM    1  C2  UNL     1      25.005  -0.687  54.349  1.00  0.00     0.124 C 
HETATM    2  C3  UNL     1      26.094   0.007  54.023  1.00  0.00     0.046 C 
HETATM    3  C4  UNL     1      26.540  -0.198  52.514  1.00  0.00     0.100 C 
HETATM    4  C5  UNL     1      25.532   0.995  52.381  1.00  0.00    -0.026 C 
HETATM    5  C6  UNL     1      26.127   2.157  52.559  1.00  0.00     0.030 C 
HETATM    6  C15 UNL     1      27.301   2.124  53.557  1.00  0.00     0.176 C 
HETATM    7  N3  UNL     1      26.912   1.058  54.553  1.00  0.00    -0.385 N 
HETATM    8  C16 UNL     1      24.161   0.488  52.324  1.00  0.00     0.050 C 
HETATM    9  C17 UNL     1      23.886  -0.408  53.344  1.00  0.00     0.115 C 
HETATM   10  H19 UNL     1      26.963   0.716  55.580  1.00  0.00     0.159 HD
ENDROOT
BRANCH   5  11
HETATM   11  N1  UNL     1      25.299   2.987  51.694  1.00  0.00    -0.386 N 
HETATM   12  H6  UNL     1      24.281   2.925  51.776  1.00  0.00     0.160 HD
BRANCH  11  13
HETATM   13  C7  UNL     1      26.022   3.865  50.759  1.00  0.00     0.097 A 
HETATM   14  C8  UNL     1      26.383   3.249  49.434  1.00  0.00     0.044 A 
HETATM   15  C9  UNL     1      25.371   4.362  49.526  1.00  0.00     0.034 A 
HETATM   16  C10 UNL     1      23.984   4.032  49.189  1.00  0.00    -0.013 A 
HETATM   17  C14 UNL     1      25.803   5.712  49.002  1.00  0.00     0.255 A 
HETATM   18  C11 UNL     1      23.111   4.756  48.506  1.00  0.00    -0.003 A 
HETATM   19  C12 UNL     1      23.490   6.064  47.984  1.00  0.00    -0.002 A 
HETATM   20  C13 UNL     1      24.724   6.402  48.262  1.00  0.00     0.009 A 
BRANCH  17  21
HETATM   21  N2  UNL     1      26.257   6.532  50.112  1.00  0.00     0.087 N 
HETATM   22  H15 UNL     1      26.795   7.372  49.792  1.00  0.00     0.313 HD
HETATM   23  H16 UNL     1      25.409   6.897  50.608  1.00  0.00     0.313 HD
ENDBRANCH  17  21
ENDBRANCH  11  13
ENDBRANCH   5  11
BRANCH   9  24
HETATM   24  O2  UNL     1      22.733  -1.080  53.574  1.00  0.00    -0.276 OA
BRANCH  24  25
HETATM   25  C18 UNL     1      21.769  -0.833  54.513  1.00  0.00     0.260 C 
HETATM   26  C19 UNL     1      20.918   0.401  54.438  1.00  0.00     0.126 C 
HETATM   27  O3  UNL     1      21.902  -1.839  55.243  1.00  0.00    -0.265 OA
ENDBRANCH  24  25
ENDBRANCH   9  24
BRANCH   1  28
HETATM   28  O1  UNL     1      25.352  -1.355  55.464  1.00  0.00    -0.351 OA
HETATM   29  C1  UNL     1      25.000  -1.040  56.790  1.00  0.00     0.210 C 
ENDBRANCH   1  28
TORSDOF 6
ENDMDL
MODEL 2
REMARK VINA RESULT:      -8.1      3.225      6.244
REMARK  6 active torsions:
REMARK  status: ('A' for Active; 'I' for Inactive)
REMARK    1  A    between atoms: O1_2  and  C2_3 
REMARK    2  A    between atoms: C6_7  and  N1_8 
REMARK    3  A    between atoms: N1_8  and  C7_9 
REMARK    4  A    between atoms: C14_16  and  N2_17 
REMARK    5  A    between atoms: C17_21  and  O2_22 
REMARK    6  A    between atoms: O2_22  and  C18_23 
ROOT
HETATM    1  C2  UNL     1      26.915   1.215  53.638  1.00  0.00     0.124 C 
HETATM    2  C3  UNL     1      26.115   2.114  53.066  1.00  0.00     0.046 C 
HETATM    3  C4  UNL     1      25.934   1.889  51.506  1.00  0.00     0.100 C 
HETATM    4  C5  UNL     1      24.792   0.986  52.083  1.00  0.00    -0.026 C 
HETATM    5  C6  UNL     1      23.679   1.666  52.269  1.00  0.00     0.030 C 
HETATM    6  C15 UNL     1      23.895   3.142  52.658  1.00  0.00     0.176 C 
HETATM    7  N3  UNL     1      25.184   3.135  53.444  1.00  0.00    -0.385 N 
HETATM    8  C16 UNL     1      25.333  -0.315  52.478  1.00  0.00     0.050 C 
HETATM    9  C17 UNL     1      26.457  -0.199  53.279  1.00  0.00     0.115 C 
HETATM   10  H19 UNL     1      25.757   3.582  54.247  1.00  0.00     0.159 HD
ENDROOT
BRANCH   5  11
HETATM   11  N1  UNL     1      22.706   0.605  52.042  1.00  0.00    -0.386 N 
HETATM   12  H6  UNL     1      22.732   0.091  51.159  1.00  0.00     0.160 HD
BRANCH  11  13
HETATM   13  C7  UNL     1      21.753   0.362  53.137  1.00  0.00     0.097 A 
HETATM   14  C8  UNL     1      20.921   1.546  53.551  1.00  0.00     0.044 A 
HETATM   15  C9  UNL     1      20.294   0.348  52.885  1.00  0.00     0.034 A 
HETATM   16  C10 UNL     1      19.732   0.547  51.547  1.00  0.00    -0.013 A 
HETATM   17  C14 UNL     1      19.441  -0.542  53.759  1.00  0.00     0.255 A 
HETATM   18  C11 UNL     1      18.610   0.055  51.046  1.00  0.00    -0.003 A 
HETATM   19  C12 UNL     1      17.760  -0.807  51.858  1.00  0.00    -0.002 A 
HETATM   20  C13 UNL     1      18.223  -1.015  53.065  1.00  0.00     0.009 A 
BRANCH  17  21
HETATM   21  N2  UNL     1      20.235  -1.671  54.210  1.00  0.00     0.087 N 
HETATM   22  H15 UNL     1      20.419  -1.642  55.240  1.00  0.00     0.313 HD
HETATM   23  H16 UNL     1      19.680  -2.543  54.035  1.00  0.00     0.313 HD
ENDBRANCH  17  21
ENDBRANCH  11  13
ENDBRANCH   5  11
BRANCH   9  24
HETATM   24  O2  UNL     1      27.217  -1.193  53.797  1.00  0.00    -0.276 OA
BRANCH  24  25
HETATM   25  C18 UNL     1      28.334  -1.782  53.270  1.00  0.00     0.260 C 
HETATM   26  C19 UNL     1      29.692  -1.176  53.469  1.00  0.00     0.126 C 
HETATM   27  O3  UNL     1      27.822  -2.775  52.710  1.00  0.00    -0.265 OA
ENDBRANCH  24  25
ENDBRANCH   9  24
BRANCH   1  28
HETATM   28  O1  UNL     1      27.813   1.950  54.320  1.00  0.00    -0.351 OA
HETATM   29  C1  UNL     1      29.022   2.482  53.836  1.00  0.00     0.210 C 
ENDBRANCH   1  28
TORSDOF 6
ENDMDL
MODEL 3
REMARK VINA RESULT:      -7.9      3.387      6.549
REMARK  6 active torsions:
REMARK  status: ('A' for Active; 'I' for Inactive)
REMARK    1  A    between atoms: O1_2  and  C2_3 
REMARK    2  A    between atoms: C6_7  and  N1_8 
REMARK    3  A    between atoms: N1_8  and  C7_9 
REMARK    4  A    between atoms: C14_16  and  N2_17 
REMARK    5  A    between atoms: C17_21  and  O2_22 
REMARK    6  A    between atoms: O2_22  and  C18_23 
ROOT
HETATM    1  C2  UNL     1      21.137   2.618  52.140  1.00  0.00     0.124 C 
HETATM    2  C3  UNL     1      21.214   1.375  52.613  1.00  0.00     0.046 C 
HETATM    3  C4  UNL     1      21.557   0.301  51.497  1.00  0.00     0.100 C 
HETATM    4  C5  UNL     1      22.990   0.744  51.951  1.00  0.00    -0.026 C 
HETATM    5  C6  UNL     1      23.416   0.037  52.978  1.00  0.00     0.030 C 
HETATM    6  C15 UNL     1      22.302  -0.413  53.944  1.00  0.00     0.176 C 
HETATM    7  N3  UNL     1      21.276   0.693  53.871  1.00  0.00    -0.385 N 
HETATM    8  C16 UNL     1      23.375   1.976  51.261  1.00  0.00     0.050 C 
HETATM    9  C17 UNL     1      22.398   2.955  51.344  1.00  0.00     0.115 C 
HETATM   10  H19 UNL     1      20.518   1.261  54.396  1.00  0.00     0.159 HD
ENDROOT
BRANCH   5  11
HETATM   11  N1  UNL     1      24.847   0.060  52.710  1.00  0.00    -0.386 N 
HETATM   12  H6  UNL     1      25.195  -0.357  51.842  1.00  0.00     0.160 HD
BRANCH  11  13
HETATM   13  C7  UNL     1      25.685   0.702  53.736  1.00  0.00     0.097 A 
HETATM   14  C8  UNL     1      25.889  -0.092  54.999  1.00  0.00     0.044 A 
HETATM   15  C9  UNL     1      27.032   0.177  54.054  1.00  0.00     0.034 A 
HETATM   16  C10 UNL     1      27.605  -0.976  53.355  1.00  0.00    -0.013 A 
HETATM   17  C14 UNL     1      28.076   1.165  54.521  1.00  0.00     0.255 A 
HETATM   18  C11 UNL     1      28.878  -1.232  53.102  1.00  0.00    -0.003 A 
HETATM   19  C12 UNL     1      29.915  -0.304  53.536  1.00  0.00    -0.002 A 
HETATM   20  C13 UNL     1      29.450   0.745  54.167  1.00  0.00     0.009 A 
BRANCH  17  21
HETATM   21  N2  UNL     1      27.785   2.470  53.953  1.00  0.00     0.087 N 
HETATM   22  H15 UNL     1      28.361   2.671  53.101  1.00  0.00     0.313 HD
HETATM   23  H16 UNL     1      26.785   2.466  53.639  1.00  0.00     0.313 HD
ENDBRANCH  17  21
ENDBRANCH  11  13
ENDBRANCH   5  11
BRANCH   9  24
HETATM   24  O2  UNL     1      22.415   4.196  50.802  1.00  0.00    -0.276 OA
BRANCH  24  25
HETATM   25  C18 UNL     1      22.526   5.406  51.432  1.00  0.00     0.260 C 
HETATM   26  C19 UNL     1      21.706   6.582  50.991  1.00  0.00     0.126 C 
HETATM   27  O3  UNL     1      23.387   5.132  52.296  1.00  0.00    -0.265 OA
ENDBRANCH  24  25
ENDBRANCH   9  24
BRANCH   1  28
HETATM   28  O1  UNL     1      19.951   3.075  52.584  1.00  0.00    -0.351 OA
HETATM   29  C1  UNL     1      18.793   3.315  51.822  1.00  0.00     0.210 C 
ENDBRANCH   1  28
TORSDOF 6
ENDMDL
MODEL 4
REMARK VINA RESULT:      -7.9      3.291      6.787
REMARK  6 active torsions:
REMARK  status: ('A' for Active; 'I' for Inactive)
REMARK    1  A    between atoms: O1_2  and  C2_3 
REMARK    2  A    between atoms: C6_7  and  N1_8 
REMARK    3  A    between atoms: N1_8  and  C7_9 
REMARK    4  A    between atoms: C14_16  and  N2_17 
REMARK    5  A    between atoms: C17_21  and  O2_22 
REMARK    6  A    between atoms: O2_22  and  C18_23 
ROOT
HETATM    1  C2  UNL     1      21.049   2.426  52.525  1.00  0.00     0.124 C 
HETATM    2  C3  UNL     1      21.227   1.134  52.794  1.00  0.00     0.046 C 
HETATM    3  C4  UNL     1      22.016   0.360  51.655  1.00  0.00     0.100 C 
HETATM    4  C5  UNL     1      23.193   0.883  52.546  1.00  0.00    -0.026 C 
HETATM    5  C6  UNL     1      23.475   0.044  53.523  1.00  0.00     0.030 C 
HETATM    6  C15 UNL     1      22.258  -0.730  54.065  1.00  0.00     0.176 C 
HETATM    7  N3  UNL     1      21.102   0.226  53.896  1.00  0.00    -0.385 N 
HETATM    8  C16 UNL     1      23.510   2.267  52.195  1.00  0.00     0.050 C 
HETATM    9  C17 UNL     1      22.386   3.076  52.165  1.00  0.00     0.115 C 
HETATM   10  H19 UNL     1      20.151   0.574  54.280  1.00  0.00     0.159 HD
ENDROOT
BRANCH   5  11
HETATM   11  N1  UNL     1      24.902   0.305  53.660  1.00  0.00    -0.386 N 
HETATM   12  H6  UNL     1      25.211   1.044  54.296  1.00  0.00     0.160 HD
BRANCH  11  13
HETATM   13  C7  UNL     1      25.792  -0.546  52.854  1.00  0.00     0.097 A 
HETATM   14  C8  UNL     1      26.490   0.141  51.711  1.00  0.00     0.044 A 
HETATM   15  C9  UNL     1      27.261  -0.369  52.902  1.00  0.00     0.034 A 
HETATM   16  C10 UNL     1      27.898   0.631  53.762  1.00  0.00    -0.013 A 
HETATM   17  C14 UNL     1      28.121  -1.590  52.676  1.00  0.00     0.255 A 
HETATM   18  C11 UNL     1      29.090   0.580  54.335  1.00  0.00    -0.003 A 
HETATM   19  C12 UNL     1      29.950  -0.581  54.141  1.00  0.00    -0.002 A 
HETATM   20  C13 UNL     1      29.421  -1.504  53.377  1.00  0.00     0.009 A 
BRANCH  17  21
HETATM   21  N2  UNL     1      27.394  -2.772  53.106  1.00  0.00     0.087 N 
HETATM   22  H15 UNL     1      26.979  -3.299  52.301  1.00  0.00     0.313 HD
HETATM   23  H16 UNL     1      28.081  -3.422  53.560  1.00  0.00     0.313 HD
ENDBRANCH  17  21
ENDBRANCH  11  13
ENDBRANCH   5  11
BRANCH   9  24
HETATM   24  O2  UNL     1      22.314   4.392  51.856  1.00  0.00    -0.276 OA
BRANCH  24  25
HETATM   25  C18 UNL     1      22.916   5.066  50.828  1.00  0.00     0.260 C 
HETATM   26  C19 UNL     1      22.878   4.528  49.427  1.00  0.00     0.126 C 
HETATM   27  O3  UNL     1      23.376   6.052  51.443  1.00  0.00    -0.265 OA
ENDBRANCH  24  25
ENDBRANCH   9  24
BRANCH   1  28
HETATM   28  O1  UNL     1      19.729   2.628  52.697  1.00  0.00    -0.351 OA
HETATM   29  C1  UNL     1      18.775   2.913  51.703  1.00  0.00     0.210 C 
ENDBRANCH   1  28
TORSDOF 6
ENDMDL
MODEL 5
REMARK VINA RESULT:      -7.7      1.669      2.122
REMARK  6 active torsions:
REMARK  status: ('A' for Active; 'I' for Inactive)
REMARK    1  A    between atoms: O1_2  and  C2_3 
REMARK    2  A    between atoms: C6_7  and  N1_8 
REMARK    3  A    between atoms: N1_8  and  C7_9 
REMARK    4  A    between atoms: C14_16  and  N2_17 
REMARK    5  A    between atoms: C17_21  and  O2_22 
REMARK    6  A    between atoms: O2_22  and  C18_23 
ROOT
HETATM    1  C2  UNL     1      25.633  -0.376  54.487  1.00  0.00     0.124 C 
HETATM    2  C3  UNL     1      26.723   0.253  54.049  1.00  0.00     0.046 C 
HETATM    3  C4  UNL     1      27.270  -0.324  52.676  1.00  0.00     0.100 C 
HETATM    4  C5  UNL     1      26.242   0.746  52.174  1.00  0.00    -0.026 C 
HETATM    5  C6  UNL     1      26.793   1.939  52.068  1.00  0.00     0.030 C 
HETATM    6  C15 UNL     1      27.900   2.221  53.103  1.00  0.00     0.176 C 
HETATM    7  N3  UNL     1      27.476   1.441  54.324  1.00  0.00    -0.385 N 
HETATM    8  C16 UNL     1      24.892   0.184  52.178  1.00  0.00     0.050 C 
HETATM    9  C17 UNL     1      24.575  -0.421  53.384  1.00  0.00     0.115 C 
HETATM   10  H19 UNL     1      27.469   1.385  55.406  1.00  0.00     0.159 HD
ENDROOT
BRANCH   5  11
HETATM   11  N1  UNL     1      26.001   2.474  50.968  1.00  0.00    -0.386 N 
HETATM   12  H6  UNL     1      25.914   1.925  50.109  1.00  0.00     0.160 HD
BRANCH  11  13
HETATM   13  C7  UNL     1      25.380   3.788  51.202  1.00  0.00     0.097 A 
HETATM   14  C8  UNL     1      24.968   4.542  49.966  1.00  0.00     0.044 A 
HETATM   15  C9  UNL     1      23.942   4.007  50.931  1.00  0.00     0.034 A 
HETATM   16  C10 UNL     1      23.067   2.935  50.447  1.00  0.00    -0.013 A 
HETATM   17  C14 UNL     1      23.216   5.025  51.778  1.00  0.00     0.255 A 
HETATM   18  C11 UNL     1      21.772   2.772  50.663  1.00  0.00    -0.003 A 
HETATM   19  C12 UNL     1      21.036   3.734  51.476  1.00  0.00    -0.002 A 
HETATM   20  C13 UNL     1      21.778   4.712  51.932  1.00  0.00     0.009 A 
BRANCH  17  21
HETATM   21  N2  UNL     1      23.856   5.106  53.080  1.00  0.00     0.087 N 
HETATM   22  H15 UNL     1      24.107   6.089  53.340  1.00  0.00     0.313 HD
HETATM   23  H16 UNL     1      23.164   4.779  53.797  1.00  0.00     0.313 HD
ENDBRANCH  17  21
ENDBRANCH  11  13
ENDBRANCH   5  11
BRANCH   9  24
HETATM   24  O2  UNL     1      23.428  -1.057  53.720  1.00  0.00    -0.276 OA
BRANCH  24  25
HETATM   25  C18 UNL     1      22.279  -0.533  54.248  1.00  0.00     0.260 C 
HETATM   26  C19 UNL     1      21.632   0.676  53.639  1.00  0.00     0.126 C 
HETATM   27  O3  UNL     1      22.090  -1.320  55.201  1.00  0.00    -0.265 OA
ENDBRANCH  24  25
ENDBRANCH   9  24
BRANCH   1  28
HETATM   28  O1  UNL     1      25.924  -0.710  55.758  1.00  0.00    -0.351 OA
HETATM   29  C1  UNL     1      25.018  -0.898  56.817  1.00  0.00     0.210 C 
ENDBRANCH   1  28
TORSDOF 6
ENDMDL
MODEL 6
REMARK VINA RESULT:      -7.6      4.182      7.948
REMARK  6 active torsions:
REMARK  status: ('A' for Active; 'I' for Inactive)
REMARK    1  A    between atoms: O1_2  and  C2_3 
REMARK    2  A    between atoms: C6_7  and  N1_8 
REMARK    3  A    between atoms: N1_8  and  C7_9 
REMARK    4  A    between atoms: C14_16  and  N2_17 
REMARK    5  A    between atoms: C17_21  and  O2_22 
REMARK    6  A    between atoms: O2_22  and  C18_23 
ROOT
HETATM    1  C2  UNL     1      24.788   5.987  49.604  1.00  0.00     0.124 C 
HETATM    2  C3  UNL     1      24.079   5.133  50.342  1.00  0.00     0.046 C 
HETATM    3  C4  UNL     1      23.754   3.775  49.590  1.00  0.00     0.100 C 
HETATM    4  C5  UNL     1      25.143   3.446  50.236  1.00  0.00    -0.026 C 
HETATM    5  C6  UNL     1      25.012   2.977  51.460  1.00  0.00     0.030 C 
HETATM    6  C15 UNL     1      23.812   3.554  52.236  1.00  0.00     0.176 C 
HETATM    7  N3  UNL     1      23.664   4.959  51.702  1.00  0.00    -0.385 N 
HETATM    8  C16 UNL     1      26.222   3.964  49.394  1.00  0.00     0.050 C 
HETATM    9  C17 UNL     1      26.030   5.291  49.046  1.00  0.00     0.115 C 
HETATM   10  H19 UNL     1      23.379   5.982  51.913  1.00  0.00     0.159 HD
ENDROOT
BRANCH   5  11
HETATM   11  N1  UNL     1      26.178   2.105  51.511  1.00  0.00    -0.386 N 
HETATM   12  H6  UNL     1      26.422   1.557  50.682  1.00  0.00     0.160 HD
BRANCH  11  13
HETATM   13  C7  UNL     1      26.922   2.097  52.781  1.00  0.00     0.097 A 
HETATM   14  C8  UNL     1      26.207   1.474  53.950  1.00  0.00     0.044 A 
HETATM   15  C9  UNL     1      27.433   0.832  53.354  1.00  0.00     0.034 A 
HETATM   16  C10 UNL     1      27.251  -0.458  52.682  1.00  0.00    -0.013 A 
HETATM   17  C14 UNL     1      28.698   0.897  54.178  1.00  0.00     0.255 A 
HETATM   18  C11 UNL     1      28.039  -1.520  52.720  1.00  0.00    -0.003 A 
HETATM   19  C12 UNL     1      29.268  -1.497  53.504  1.00  0.00    -0.002 A 
HETATM   20  C13 UNL     1      29.474  -0.362  54.124  1.00  0.00     0.009 A 
BRANCH  17  21
HETATM   21  N2  UNL     1      29.510   2.010  53.719  1.00  0.00     0.087 N 
HETATM   22  H15 UNL     1      29.972   1.813  52.800  1.00  0.00     0.313 HD
HETATM   23  H16 UNL     1      28.872   2.827  53.559  1.00  0.00     0.313 HD
ENDBRANCH  17  21
ENDBRANCH  11  13
ENDBRANCH   5  11
BRANCH   9  24
HETATM   24  O2  UNL     1      26.815   6.069  48.263  1.00  0.00    -0.276 OA
BRANCH  24  25
HETATM   25  C18 UNL     1      28.118   6.441  48.454  1.00  0.00     0.260 C 
HETATM   26  C19 UNL     1      29.241   5.488  48.170  1.00  0.00     0.126 C 
HETATM   27  O3  UNL     1      27.960   7.613  48.861  1.00  0.00    -0.265 OA
ENDBRANCH  24  25
ENDBRANCH   9  24
BRANCH   1  28
HETATM   28  O1  UNL     1      24.098   7.141  49.668  1.00  0.00    -0.351 OA
HETATM   29  C1  UNL     1      24.613   8.447  49.566  1.00  0.00     0.210 C 
ENDBRANCH   1  28
TORSDOF 6
ENDMDL
MODEL 7
REMARK VINA RESULT:      -7.6      2.006      3.547
REMARK  6 active torsions:
REMARK  status: ('A' for Active; 'I' for Inactive)
REMARK    1  A    between atoms: O1_2  and  C2_3 
REMARK    2  A    between atoms: C6_7  and  N1_8 
REMARK    3  A    between atoms: N1_8  and  C7_9 
REMARK    4  A    between atoms: C14_16  and  N2_17 
REMARK    5  A    between atoms: C17_21  and  O2_22 
REMARK    6  A    between atoms: O2_22  and  C18_23 
ROOT
HETATM    1  C2  UNL     1      25.327   0.091  52.812  1.00  0.00     0.124 C 
HETATM    2  C3  UNL     1      24.375   0.992  52.569  1.00  0.00     0.046 C 
HETATM    3  C4  UNL     1      24.759   2.454  53.052  1.00  0.00     0.100 C 
HETATM    4  C5  UNL     1      25.353   2.440  51.603  1.00  0.00    -0.026 C 
HETATM    5  C6  UNL     1      24.460   2.806  50.706  1.00  0.00     0.030 C 
HETATM    6  C15 UNL     1      23.013   2.402  51.051  1.00  0.00     0.176 C 
HETATM    7  N3  UNL     1      23.159   1.112  51.822  1.00  0.00    -0.385 N 
HETATM    8  C16 UNL     1      26.671   1.805  51.608  1.00  0.00     0.050 C 
HETATM    9  C17 UNL     1      26.665   0.581  52.257  1.00  0.00     0.115 C 
HETATM   10  H19 UNL     1      22.728   0.149  52.065  1.00  0.00     0.159 HD
ENDROOT
BRANCH   5  11
HETATM   11  N1  UNL     1      25.341   3.423  49.724  1.00  0.00    -0.386 N 
HETATM   12  H6  UNL     1      25.644   2.874  48.916  1.00  0.00     0.160 HD
BRANCH  11  13
HETATM   13  C7  UNL     1      25.722   4.820  49.989  1.00  0.00     0.097 A 
HETATM   14  C8  UNL     1      26.420   5.530  48.860  1.00  0.00     0.044 A 
HETATM   15  C9  UNL     1      25.038   5.938  49.301  1.00  0.00     0.034 A 
HETATM   16  C10 UNL     1      23.943   5.716  48.352  1.00  0.00    -0.013 A 
HETATM   17  C14 UNL     1      24.924   7.251  50.039  1.00  0.00     0.255 A 
HETATM   18  C11 UNL     1      22.916   6.506  48.086  1.00  0.00    -0.003 A 
HETATM   19  C12 UNL     1      22.771   7.782  48.778  1.00  0.00    -0.002 A 
HETATM   20  C13 UNL     1      23.728   8.024  49.638  1.00  0.00     0.009 A 
BRANCH  17  21
HETATM   21  N2  UNL     1      24.903   6.994  51.469  1.00  0.00     0.087 N 
HETATM   22  H15 UNL     1      24.411   7.750  52.001  1.00  0.00     0.313 HD
HETATM   23  H16 UNL     1      24.352   6.116  51.627  1.00  0.00     0.313 HD
ENDBRANCH  17  21
ENDBRANCH  11  13
ENDBRANCH   5  11
BRANCH   9  24
HETATM   24  O2  UNL     1      27.709  -0.256  52.467  1.00  0.00    -0.276 OA
BRANCH  24  25
HETATM   25  C18 UNL     1      28.271  -0.647  53.651  1.00  0.00     0.260 C 
HETATM   26  C19 UNL     1      28.524   0.346  54.748  1.00  0.00     0.126 C 
HETATM   27  O3  UNL     1      28.424  -1.868  53.436  1.00  0.00    -0.265 OA
ENDBRANCH  24  25
ENDBRANCH   9  24
BRANCH   1  28
HETATM   28  O1  UNL     1      24.691  -0.906  53.454  1.00  0.00    -0.351 OA
HETATM   29  C1  UNL     1      24.367  -0.968  54.822  1.00  0.00     0.210 C 
ENDBRANCH   1  28
TORSDOF 6
ENDMDL
MODEL 8
REMARK VINA RESULT:      -7.6      5.226      9.054
REMARK  6 active torsions:
REMARK  status: ('A' for Active; 'I' for Inactive)
REMARK    1  A    between atoms: O1_2  and  C2_3 
REMARK    2  A    between atoms: C6_7  and  N1_8 
REMARK    3  A    between atoms: N1_8  and  C7_9 
REMARK    4  A    between atoms: C14_16  and  N2_17 
REMARK    5  A    between atoms: C17_21  and  O2_22 
REMARK    6  A    between atoms: O2_22  and  C18_23 
ROOT
HETATM    1  C2  UNL     1      29.446   8.043  48.682  1.00  0.00     0.124 C 
HETATM    2  C3  UNL     1      28.140   8.224  48.873  1.00  0.00     0.046 C 
HETATM    3  C4  UNL     1      27.254   7.719  47.657  1.00  0.00     0.100 C 
HETATM    4  C5  UNL     1      27.373   6.415  48.516  1.00  0.00    -0.026 C 
HETATM    5  C6  UNL     1      26.427   6.347  49.431  1.00  0.00     0.030 C 
HETATM    6  C15 UNL     1      25.985   7.714  49.990  1.00  0.00     0.176 C 
HETATM    7  N3  UNL     1      27.233   8.562  49.929  1.00  0.00    -0.385 N 
HETATM    8  C16 UNL     1      28.635   5.735  48.224  1.00  0.00     0.050 C 
HETATM    9  C17 UNL     1      29.723   6.590  48.293  1.00  0.00     0.115 C 
HETATM   10  H19 UNL     1      27.804   9.366  50.376  1.00  0.00     0.159 HD
ENDROOT
BRANCH   5  11
HETATM   11  N1  UNL     1      26.273   4.900  49.513  1.00  0.00    -0.386 N 
HETATM   12  H6  UNL     1      26.958   4.303  49.043  1.00  0.00     0.160 HD
BRANCH  11  13
HETATM   13  C7  UNL     1      25.118   4.418  50.288  1.00  0.00     0.097 A 
HETATM   14  C8  UNL     1      24.404   3.223  49.716  1.00  0.00     0.044 A 
HETATM   15  C9  UNL     1      25.173   3.126  51.008  1.00  0.00     0.034 A 
HETATM   16  C10 UNL     1      26.372   2.284  51.009  1.00  0.00    -0.013 A 
HETATM   17  C14 UNL     1      24.356   2.994  52.272  1.00  0.00     0.255 A 
HETATM   18  C11 UNL     1      26.794   1.459  51.954  1.00  0.00    -0.003 A 
HETATM   19  C12 UNL     1      26.033   1.304  53.188  1.00  0.00    -0.002 A 
HETATM   20  C13 UNL     1      24.951   2.039  53.233  1.00  0.00     0.009 A 
BRANCH  17  21
HETATM   21  N2  UNL     1      24.211   4.303  52.886  1.00  0.00     0.087 N 
HETATM   22  H15 UNL     1      24.955   4.972  52.576  1.00  0.00     0.313 HD
HETATM   23  H16 UNL     1      23.299   4.707  52.564  1.00  0.00     0.313 HD
ENDBRANCH  17  21
ENDBRANCH  11  13
ENDBRANCH   5  11
BRANCH   9  24
HETATM   24  O2  UNL     1      31.026   6.301  48.059  1.00  0.00    -0.276 OA
BRANCH  24  25
HETATM   25  C18 UNL     1      32.077   6.310  48.934  1.00  0.00     0.260 C 
HETATM   26  C19 UNL     1      33.274   7.183  48.691  1.00  0.00     0.126 C 
HETATM   27  O3  UNL     1      31.673   5.484  49.781  1.00  0.00    -0.265 OA
ENDBRANCH  24  25
ENDBRANCH   9  24
BRANCH   1  28
HETATM   28  O1  UNL     1      29.993   9.248  48.929  1.00  0.00    -0.351 OA
HETATM   29  C1  UNL     1      30.854   9.980  48.091  1.00  0.00     0.210 C 
ENDBRANCH   1  28
TORSDOF 6
ENDMDL
MODEL 9
REMARK VINA RESULT:      -7.4      2.882      6.477
REMARK  6 active torsions:
REMARK  status: ('A' for Active; 'I' for Inactive)
REMARK    1  A    between atoms: O1_2  and  C2_3 
REMARK    2  A    between atoms: C6_7  and  N1_8 
REMARK    3  A    between atoms: N1_8  and  C7_9 
REMARK    4  A    between atoms: C14_16  and  N2_17 
REMARK    5  A    between atoms: C17_21  and  O2_22 
REMARK    6  A    between atoms: O2_22  and  C18_23 
ROOT
HETATM    1  C2  UNL     1      22.440   3.463  50.148  1.00  0.00     0.124 C 
HETATM    2  C3  UNL     1      23.728   3.783  50.260  1.00  0.00     0.046 C 
HETATM    3  C4  UNL     1      24.152   4.161  51.741  1.00  0.00     0.100 C 
HETATM    4  C5  UNL     1      24.362   2.608  51.745  1.00  0.00    -0.026 C 
HETATM    5  C6  UNL     1      25.566   2.278  51.322  1.00  0.00     0.030 C 
HETATM    6  C15 UNL     1      26.145   3.226  50.254  1.00  0.00     0.176 C 
HETATM    7  N3  UNL     1      24.936   3.713  49.492  1.00  0.00    -0.385 N 
HETATM    8  C16 UNL     1      23.090   1.932  51.998  1.00  0.00     0.050 C 
HETATM    9  C17 UNL     1      22.075   2.390  51.174  1.00  0.00     0.115 C 
HETATM   10  H19 UNL     1      24.537   4.041  48.540  1.00  0.00     0.159 HD
ENDROOT
BRANCH   5  11
HETATM   11  N1  UNL     1      25.767   1.058  52.093  1.00  0.00    -0.386 N 
HETATM   12  H6  UNL     1      25.216   0.228  51.858  1.00  0.00     0.160 HD
BRANCH  11  13
HETATM   13  C7  UNL     1      26.773   1.132  53.164  1.00  0.00     0.097 A 
HETATM   14  C8  UNL     1      26.399   0.457  54.456  1.00  0.00     0.044 A 
HETATM   15  C9  UNL     1      27.515  -0.074  53.594  1.00  0.00     0.034 A 
HETATM   16  C10 UNL     1      27.308  -1.382  52.967  1.00  0.00    -0.013 A 
HETATM   17  C14 UNL     1      28.920   0.116  54.116  1.00  0.00     0.255 A 
HETATM   18  C11 UNL     1      28.179  -2.366  52.816  1.00  0.00    -0.003 A 
HETATM   19  C12 UNL     1      29.545  -2.221  53.305  1.00  0.00    -0.002 A 
HETATM   20  C13 UNL     1      29.777  -1.065  53.875  1.00  0.00     0.009 A 
BRANCH  17  21
HETATM   21  N2  UNL     1      29.502   1.296  53.498  1.00  0.00     0.087 N 
HETATM   22  H15 UNL     1      29.555   2.106  54.160  1.00  0.00     0.313 HD
HETATM   23  H16 UNL     1      30.491   1.064  53.236  1.00  0.00     0.313 HD
ENDBRANCH  17  21
ENDBRANCH  11  13
ENDBRANCH   5  11
BRANCH   9  24
HETATM   24  O2  UNL     1      20.777   2.003  51.157  1.00  0.00    -0.276 OA
BRANCH  24  25
HETATM   25  C18 UNL     1      19.954   1.715  52.211  1.00  0.00     0.260 C 
HETATM   26  C19 UNL     1      19.485   0.311  52.462  1.00  0.00     0.126 C 
HETATM   27  O3  UNL     1      19.824   2.852  52.713  1.00  0.00    -0.265 OA
ENDBRANCH  24  25
ENDBRANCH   9  24
BRANCH   1  28
HETATM   28  O1  UNL     1      21.987   4.234  49.141  1.00  0.00    -0.351 OA
HETATM   29  C1  UNL     1      21.473   5.541  49.234  1.00  0.00     0.210 C 
ENDBRANCH   1  28
TORSDOF 6
ENDMDL
