MODEL 1
REMARK VINA RESULT:      -7.0      0.000      0.000
REMARK  3 active torsions:
REMARK  status: ('A' for Active; 'I' for Inactive)
REMARK    1  A    between atoms: C5_5  and  O1_6 
REMARK    2  A    between atoms: N1_9  and  C8_10 
REMARK    3  A    between atoms: C12_15  and  O3_16 
ROOT
HETATM    1  C1  UNL     1      22.693   2.086  47.739  1.00  0.00     0.048 C 
HETATM    2  C2  UNL     1      23.121   3.053  48.772  1.00  0.00    -0.059 A 
HETATM    3  C3  UNL     1      24.116   4.042  48.712  1.00  0.00     0.016 A 
HETATM    4  C4  UNL     1      24.430   4.902  49.759  1.00  0.00    -0.022 A 
HETATM    5  C5  UNL     1      23.738   4.798  50.920  1.00  0.00     0.099 A 
HETATM    6  C6  UNL     1      22.743   3.811  51.001  1.00  0.00     0.071 A 
HETATM    7  C7  UNL     1      22.428   2.963  49.979  1.00  0.00     0.039 A 
HETATM    8  N1  UNL     1      22.146   3.675  52.323  1.00  0.00    -0.319 N 
HETATM    9  C9  UNL     1      23.359   3.335  52.926  1.00  0.00     0.159 C 
HETATM   10  C10 UNL     1      23.823   1.979  53.123  1.00  0.00    -0.004 C 
HETATM   11  C11 UNL     1      24.889   1.513  52.446  1.00  0.00     0.034 C 
HETATM   12  C12 UNL     1      26.016   1.539  51.487  1.00  0.00     0.062 C 
HETATM   13  C13 UNL     1      26.574   2.335  50.554  1.00  0.00     0.015 C 
HETATM   14  C14 UNL     1      26.168   3.688  50.060  1.00  0.00     0.046 C 
HETATM   15  C15 UNL     1      26.673   4.588  49.158  1.00  0.00    -0.015 C 
HETATM   16  C16 UNL     1      25.608   5.685  49.259  1.00  0.00     0.042 C 
ENDROOT
BRANCH   5  17
HETATM   17  O1  UNL     1      24.342   5.812  51.640  1.00  0.00    -0.358 OA
HETATM   18  H5  UNL     1      25.203   6.254  51.351  1.00  0.00     0.217 HD
ENDBRANCH   5  17
BRANCH   8  19
HETATM   19  C8  UNL     1      20.808   3.998  52.008  1.00  0.00     0.356 C 
HETATM   20  O2  UNL     1      19.905   3.330  52.577  1.00  0.00    -0.283 OA
ENDBRANCH   8  19
BRANCH  12  21
HETATM   21  O3  UNL     1      26.734   0.308  51.604  1.00  0.00    -0.361 OA
HETATM   22  H12 UNL     1      27.339   0.109  52.365  1.00  0.00     0.217 HD
ENDBRANCH  12  21
TORSDOF 3
ENDMDL
MODEL 2
REMARK VINA RESULT:      -6.8      5.048      7.625
REMARK  3 active torsions:
REMARK  status: ('A' for Active; 'I' for Inactive)
REMARK    1  A    between atoms: C5_5  and  O1_6 
REMARK    2  A    between atoms: N1_9  and  C8_10 
REMARK    3  A    between atoms: C12_15  and  O3_16 
ROOT
HETATM    1  C1  UNL     1      27.688   8.457  44.778  1.00  0.00     0.048 C 
HETATM    2  C2  UNL     1      28.379   8.454  46.084  1.00  0.00    -0.059 A 
HETATM    3  C3  UNL     1      29.427   7.638  46.540  1.00  0.00     0.016 A 
HETATM    4  C4  UNL     1      30.003   7.733  47.802  1.00  0.00    -0.022 A 
HETATM    5  C5  UNL     1      29.540   8.672  48.663  1.00  0.00     0.099 A 
HETATM    6  C6  UNL     1      28.488   9.494  48.228  1.00  0.00     0.071 A 
HETATM    7  C7  UNL     1      27.917   9.408  46.991  1.00  0.00     0.039 A 
HETATM    8  N1  UNL     1      27.959  10.378  49.258  1.00  0.00    -0.319 N 
HETATM    9  C9  UNL     1      27.572   9.320  50.083  1.00  0.00     0.159 C 
HETATM   10  C10 UNL     1      26.255   8.721  50.084  1.00  0.00    -0.004 C 
HETATM   11  C11 UNL     1      26.074   7.461  49.647  1.00  0.00     0.034 C 
HETATM   12  C12 UNL     1      26.445   6.145  49.079  1.00  0.00     0.062 C 
HETATM   13  C13 UNL     1      27.503   5.497  48.553  1.00  0.00     0.015 C 
HETATM   14  C14 UNL     1      28.900   5.965  48.292  1.00  0.00     0.046 C 
HETATM   15  C15 UNL     1      30.045   5.390  47.804  1.00  0.00    -0.015 C 
HETATM   16  C16 UNL     1      30.984   6.599  47.851  1.00  0.00     0.042 C 
ENDROOT
BRANCH   5  17
HETATM   17  O1  UNL     1      30.374   8.430  49.739  1.00  0.00    -0.358 OA
HETATM   18  H5  UNL     1      30.238   7.659  50.377  1.00  0.00     0.217 HD
ENDBRANCH   5  17
BRANCH   8  19
HETATM   19  C8  UNL     1      28.242  11.626  48.661  1.00  0.00     0.356 C 
HETATM   20  O2  UNL     1      28.155  12.647  49.391  1.00  0.00    -0.283 OA
ENDBRANCH   8  19
BRANCH  12  21
HETATM   21  O3  UNL     1      25.291   5.303  49.107  1.00  0.00    -0.361 OA
HETATM   22  H12 UNL     1      24.632   5.316  49.849  1.00  0.00     0.217 HD
ENDBRANCH  12  21
TORSDOF 3
ENDMDL
MODEL 3
REMARK VINA RESULT:      -6.5      1.847      2.962
REMARK  3 active torsions:
REMARK  status: ('A' for Active; 'I' for Inactive)
REMARK    1  A    between atoms: C5_5  and  O1_6 
REMARK    2  A    between atoms: N1_9  and  C8_10 
REMARK    3  A    between atoms: C12_15  and  O3_16 
ROOT
HETATM    1  C1  UNL     1      22.118   1.864  48.254  1.00  0.00     0.048 C 
HETATM    2  C2  UNL     1      22.431   2.595  49.499  1.00  0.00    -0.059 A 
HETATM    3  C3  UNL     1      22.222   3.947  49.819  1.00  0.00     0.016 A 
HETATM    4  C4  UNL     1      22.561   4.525  51.038  1.00  0.00    -0.022 A 
HETATM    5  C5  UNL     1      23.127   3.750  51.995  1.00  0.00     0.099 A 
HETATM    6  C6  UNL     1      23.350   2.397  51.691  1.00  0.00     0.071 A 
HETATM    7  C7  UNL     1      23.021   1.821  50.498  1.00  0.00     0.039 A 
HETATM    8  N1  UNL     1      24.085   1.670  52.717  1.00  0.00    -0.319 N 
HETATM    9  C9  UNL     1      25.211   2.488  52.606  1.00  0.00     0.159 C 
HETATM   10  C10 UNL     1      26.348   2.207  51.756  1.00  0.00    -0.004 C 
HETATM   11  C11 UNL     1      26.609   2.976  50.682  1.00  0.00     0.034 C 
HETATM   12  C12 UNL     1      26.411   4.068  49.704  1.00  0.00     0.062 C 
HETATM   13  C13 UNL     1      25.533   5.042  49.390  1.00  0.00     0.015 C 
HETATM   14  C14 UNL     1      24.220   5.404  50.009  1.00  0.00     0.046 C 
HETATM   15  C15 UNL     1      23.279   6.378  49.797  1.00  0.00    -0.015 C 
HETATM   16  C16 UNL     1      22.249   5.982  50.859  1.00  0.00     0.042 C 
ENDROOT
BRANCH   5  17
HETATM   17  O1  UNL     1      23.272   4.690  52.997  1.00  0.00    -0.358 OA
HETATM   18  H5  UNL     1      23.570   5.639  52.822  1.00  0.00     0.217 HD
ENDBRANCH   5  17
BRANCH   8  19
HETATM   19  C8  UNL     1      23.114   0.703  53.059  1.00  0.00     0.356 C 
HETATM   20  O2  UNL     1      23.530  -0.405  53.485  1.00  0.00    -0.283 OA
ENDBRANCH   8  19
BRANCH  12  21
HETATM   21  O3  UNL     1      27.525   4.076  48.808  1.00  0.00    -0.361 OA
HETATM   22  H12 UNL     1      27.943   4.912  48.476  1.00  0.00     0.217 HD
ENDBRANCH  12  21
TORSDOF 3
ENDMDL
MODEL 4
REMARK VINA RESULT:      -6.4      1.952      2.879
REMARK  3 active torsions:
REMARK  status: ('A' for Active; 'I' for Inactive)
REMARK    1  A    between atoms: C5_5  and  O1_6 
REMARK    2  A    between atoms: N1_9  and  C8_10 
REMARK    3  A    between atoms: C12_15  and  O3_16 
ROOT
HETATM    1  C1  UNL     1      22.333   4.681  47.127  1.00  0.00     0.048 C 
HETATM    2  C2  UNL     1      22.742   4.943  48.522  1.00  0.00    -0.059 A 
HETATM    3  C3  UNL     1      22.979   6.167  49.169  1.00  0.00     0.016 A 
HETATM    4  C4  UNL     1      23.361   6.289  50.501  1.00  0.00    -0.022 A 
HETATM    5  C5  UNL     1      23.515   5.165  51.242  1.00  0.00     0.099 A 
HETATM    6  C6  UNL     1      23.288   3.931  50.611  1.00  0.00     0.071 A 
HETATM    7  C7  UNL     1      22.913   3.802  49.305  1.00  0.00     0.039 A 
HETATM    8  N1  UNL     1      23.609   2.774  51.436  1.00  0.00    -0.319 N 
HETATM    9  C9  UNL     1      24.954   3.130  51.557  1.00  0.00     0.159 C 
HETATM   10  C10 UNL     1      26.009   2.658  50.687  1.00  0.00    -0.004 C 
HETATM   11  C11 UNL     1      26.636   3.503  49.847  1.00  0.00     0.034 C 
HETATM   12  C12 UNL     1      26.936   4.785  49.172  1.00  0.00     0.062 C 
HETATM   13  C13 UNL     1      26.490   6.055  49.097  1.00  0.00     0.015 C 
HETATM   14  C14 UNL     1      25.324   6.717  49.760  1.00  0.00     0.046 C 
HETATM   15  C15 UNL     1      24.808   7.986  49.783  1.00  0.00    -0.015 C 
HETATM   16  C16 UNL     1      23.594   7.759  50.689  1.00  0.00     0.042 C 
ENDROOT
BRANCH   5  17
HETATM   17  O1  UNL     1      23.866   5.733  52.452  1.00  0.00    -0.358 OA
HETATM   18  H5  UNL     1      23.392   5.520  53.318  1.00  0.00     0.217 HD
ENDBRANCH   5  17
BRANCH   8  19
HETATM   19  C8  UNL     1      22.333   2.174  51.503  1.00  0.00     0.356 C 
HETATM   20  O2  UNL     1      21.601   2.481  52.479  1.00  0.00    -0.283 OA
ENDBRANCH   8  19
BRANCH  12  21
HETATM   21  O3  UNL     1      28.076   4.593  48.330  1.00  0.00    -0.361 OA
HETATM   22  H12 UNL     1      29.005   4.581  48.677  1.00  0.00     0.217 HD
ENDBRANCH  12  21
TORSDOF 3
ENDMDL
MODEL 5
REMARK VINA RESULT:      -6.2      1.863      2.574
REMARK  3 active torsions:
REMARK  status: ('A' for Active; 'I' for Inactive)
REMARK    1  A    between atoms: C5_5  and  O1_6 
REMARK    2  A    between atoms: N1_9  and  C8_10 
REMARK    3  A    between atoms: C12_15  and  O3_16 
ROOT
HETATM    1  C1  UNL     1      22.600   2.098  47.476  1.00  0.00     0.048 C 
HETATM    2  C2  UNL     1      22.998   2.935  48.627  1.00  0.00    -0.059 A 
HETATM    3  C3  UNL     1      24.271   3.144  49.182  1.00  0.00     0.016 A 
HETATM    4  C4  UNL     1      24.524   3.966  50.275  1.00  0.00    -0.022 A 
HETATM    5  C5  UNL     1      23.489   4.621  50.854  1.00  0.00     0.099 A 
HETATM    6  C6  UNL     1      22.207   4.420  50.317  1.00  0.00     0.071 A 
HETATM    7  C7  UNL     1      21.950   3.616  49.244  1.00  0.00     0.039 A 
HETATM    8  N1  UNL     1      21.137   5.049  51.080  1.00  0.00    -0.319 N 
HETATM    9  C9  UNL     1      21.412   4.307  52.231  1.00  0.00     0.159 C 
HETATM   10  C10 UNL     1      20.767   3.058  52.575  1.00  0.00    -0.004 C 
HETATM   11  C11 UNL     1      21.460   1.904  52.572  1.00  0.00     0.034 C 
HETATM   12  C12 UNL     1      22.629   1.013  52.397  1.00  0.00     0.062 C 
HETATM   13  C13 UNL     1      23.908   1.041  51.973  1.00  0.00     0.015 C 
HETATM   14  C14 UNL     1      24.724   2.164  51.415  1.00  0.00     0.046 C 
HETATM   15  C15 UNL     1      26.020   2.311  50.993  1.00  0.00    -0.015 C 
HETATM   16  C16 UNL     1      25.987   3.778  50.552  1.00  0.00     0.042 C 
ENDROOT
BRANCH   5  17
HETATM   17  O1  UNL     1      24.172   5.303  51.844  1.00  0.00    -0.358 OA
HETATM   18  H5  UNL     1      23.849   6.176  52.234  1.00  0.00     0.217 HD
ENDBRANCH   5  17
BRANCH   8  19
HETATM   19  C8  UNL     1      20.639   5.933  50.099  1.00  0.00     0.356 C 
HETATM   20  O2  UNL     1      21.047   7.123  50.135  1.00  0.00    -0.283 OA
ENDBRANCH   8  19
BRANCH  12  21
HETATM   21  O3  UNL     1      22.259  -0.301  52.821  1.00  0.00    -0.361 OA
HETATM   22  H12 UNL     1      22.148  -0.547  53.776  1.00  0.00     0.217 HD
ENDBRANCH  12  21
TORSDOF 3
ENDMDL
MODEL 6
REMARK VINA RESULT:      -6.1      2.210      5.162
REMARK  3 active torsions:
REMARK  status: ('A' for Active; 'I' for Inactive)
REMARK    1  A    between atoms: C5_5  and  O1_6 
REMARK    2  A    between atoms: N1_9  and  C8_10 
REMARK    3  A    between atoms: C12_15  and  O3_16 
ROOT
HETATM    1  C1  UNL     1      22.316   1.955  47.752  1.00  0.00     0.048 C 
HETATM    2  C2  UNL     1      22.899   2.401  49.034  1.00  0.00    -0.059 A 
HETATM    3  C3  UNL     1      22.509   2.095  50.348  1.00  0.00     0.016 A 
HETATM    4  C4  UNL     1      23.144   2.579  51.488  1.00  0.00    -0.022 A 
HETATM    5  C5  UNL     1      24.215   3.396  51.342  1.00  0.00     0.099 A 
HETATM    6  C6  UNL     1      24.617   3.718  50.035  1.00  0.00     0.071 A 
HETATM    7  C7  UNL     1      24.000   3.248  48.912  1.00  0.00     0.039 A 
HETATM    8  N1  UNL     1      25.684   4.708  49.969  1.00  0.00    -0.319 N 
HETATM    9  C9  UNL     1      24.924   5.691  50.606  1.00  0.00     0.159 C 
HETATM   10  C10 UNL     1      24.121   6.679  49.920  1.00  0.00    -0.004 C 
HETATM   11  C11 UNL     1      22.778   6.649  50.001  1.00  0.00     0.034 C 
HETATM   12  C12 UNL     1      21.444   6.149  50.405  1.00  0.00     0.062 C 
HETATM   13  C13 UNL     1      20.870   5.121  51.059  1.00  0.00     0.015 C 
HETATM   14  C14 UNL     1      21.478   3.908  51.691  1.00  0.00     0.046 C 
HETATM   15  C15 UNL     1      21.001   2.837  52.400  1.00  0.00    -0.015 C 
HETATM   16  C16 UNL     1      22.308   2.070  52.625  1.00  0.00     0.042 C 
ENDROOT
BRANCH   5  17
HETATM   17  O1  UNL     1      24.525   3.609  52.672  1.00  0.00    -0.358 OA
HETATM   18  H5  UNL     1      24.389   2.910  53.387  1.00  0.00     0.217 HD
ENDBRANCH   5  17
BRANCH   8  19
HETATM   19  C8  UNL     1      26.678   3.936  49.328  1.00  0.00     0.356 C 
HETATM   20  O2  UNL     1      27.704   4.540  48.922  1.00  0.00    -0.283 OA
ENDBRANCH   8  19
BRANCH  12  21
HETATM   21  O3  UNL     1      20.458   7.074  49.939  1.00  0.00    -0.361 OA
HETATM   22  H12 UNL     1      20.311   7.961  50.358  1.00  0.00     0.217 HD
ENDBRANCH  12  21
TORSDOF 3
ENDMDL
MODEL 7
REMARK VINA RESULT:      -6.1     22.723     24.918
REMARK  3 active torsions:
REMARK  status: ('A' for Active; 'I' for Inactive)
REMARK    1  A    between atoms: C5_5  and  O1_6 
REMARK    2  A    between atoms: N1_9  and  C8_10 
REMARK    3  A    between atoms: C12_15  and  O3_16 
ROOT
HETATM    1  C1  UNL     1      38.262  -1.454  71.643  1.00  0.00     0.048 C 
HETATM    2  C2  UNL     1      38.731  -1.001  70.317  1.00  0.00    -0.059 A 
HETATM    3  C3  UNL     1      38.185  -1.241  69.046  1.00  0.00     0.016 A 
HETATM    4  C4  UNL     1      38.720  -0.753  67.858  1.00  0.00    -0.022 A 
HETATM    5  C5  UNL     1      39.840   0.009  67.910  1.00  0.00     0.099 A 
HETATM    6  C6  UNL     1      40.404   0.254  69.172  1.00  0.00     0.071 A 
HETATM    7  C7  UNL     1      39.886  -0.219  70.342  1.00  0.00     0.039 A 
HETATM    8  N1  UNL     1      41.677   0.962  69.126  1.00  0.00    -0.319 N 
HETATM    9  C9  UNL     1      42.304  -0.046  68.390  1.00  0.00     0.159 C 
HETATM   10  C10 UNL     1      43.061  -1.134  68.970  1.00  0.00    -0.004 C 
HETATM   11  C11 UNL     1      42.608  -2.400  68.900  1.00  0.00     0.034 C 
HETATM   12  C12 UNL     1      41.681  -3.501  68.559  1.00  0.00     0.062 C 
HETATM   13  C13 UNL     1      40.463  -3.712  68.022  1.00  0.00     0.015 C 
HETATM   14  C14 UNL     1      39.439  -2.742  67.522  1.00  0.00     0.046 C 
HETATM   15  C15 UNL     1      38.205  -2.844  66.934  1.00  0.00    -0.015 C 
HETATM   16  C16 UNL     1      37.862  -1.359  66.786  1.00  0.00     0.042 C 
ENDROOT
BRANCH   5  17
HETATM   17  O1  UNL     1      39.999   0.276  66.563  1.00  0.00    -0.358 OA
HETATM   18  H5  UNL     1      40.536  -0.314  65.945  1.00  0.00     0.217 HD
ENDBRANCH   5  17
BRANCH   8  19
HETATM   19  C8  UNL     1      41.322   2.126  69.841  1.00  0.00     0.356 C 
HETATM   20  O2  UNL     1      41.720   3.228  69.382  1.00  0.00    -0.283 OA
ENDBRANCH   8  19
BRANCH  12  21
HETATM   21  O3  UNL     1      42.297  -4.737  68.928  1.00  0.00    -0.361 OA
HETATM   22  H12 UNL     1      41.783  -5.517  69.262  1.00  0.00     0.217 HD
ENDBRANCH  12  21
TORSDOF 3
ENDMDL
MODEL 8
REMARK VINA RESULT:      -6.0      6.117      9.147
REMARK  3 active torsions:
REMARK  status: ('A' for Active; 'I' for Inactive)
REMARK    1  A    between atoms: C5_5  and  O1_6 
REMARK    2  A    between atoms: N1_9  and  C8_10 
REMARK    3  A    between atoms: C12_15  and  O3_16 
ROOT
HETATM    1  C1  UNL     1      27.561   8.890  44.672  1.00  0.00     0.048 C 
HETATM    2  C2  UNL     1      28.140   8.185  45.834  1.00  0.00    -0.059 A 
HETATM    3  C3  UNL     1      27.498   7.455  46.848  1.00  0.00     0.016 A 
HETATM    4  C4  UNL     1      28.158   6.827  47.900  1.00  0.00    -0.022 A 
HETATM    5  C5  UNL     1      29.509   6.909  47.966  1.00  0.00     0.099 A 
HETATM    6  C6  UNL     1      30.169   7.640  46.964  1.00  0.00     0.071 A 
HETATM    7  C7  UNL     1      29.530   8.259  45.929  1.00  0.00     0.039 A 
HETATM    8  N1  UNL     1      31.600   7.794  47.186  1.00  0.00    -0.319 N 
HETATM    9  C9  UNL     1      31.423   8.479  48.390  1.00  0.00     0.159 C 
HETATM   10  C10 UNL     1      31.366   9.920  48.512  1.00  0.00    -0.004 C 
HETATM   11  C11 UNL     1      30.220  10.534  48.859  1.00  0.00     0.034 C 
HETATM   12  C12 UNL     1      28.791  10.653  49.229  1.00  0.00     0.062 C 
HETATM   13  C13 UNL     1      27.682   9.900  49.364  1.00  0.00     0.015 C 
HETATM   14  C14 UNL     1      27.462   8.440  49.124  1.00  0.00     0.046 C 
HETATM   15  C15 UNL     1      26.405   7.578  49.260  1.00  0.00    -0.015 C 
HETATM   16  C16 UNL     1      27.055   6.285  48.760  1.00  0.00     0.042 C 
ENDROOT
BRANCH   5  17
HETATM   17  O1  UNL     1      29.730   6.160  49.107  1.00  0.00    -0.358 OA
HETATM   18  H5  UNL     1      30.102   5.222  49.085  1.00  0.00     0.217 HD
ENDBRANCH   5  17
BRANCH   8  19
HETATM   19  C8  UNL     1      32.087   7.133  46.037  1.00  0.00     0.356 C 
HETATM   20  O2  UNL     1      32.425   5.927  46.165  1.00  0.00    -0.283 OA
ENDBRANCH   8  19
BRANCH  12  21
HETATM   21  O3  UNL     1      28.521  12.022  49.541  1.00  0.00    -0.361 OA
HETATM   22  H12 UNL     1      28.036  12.629  48.923  1.00  0.00     0.217 HD
ENDBRANCH  12  21
TORSDOF 3
ENDMDL
MODEL 9
REMARK VINA RESULT:      -5.9     18.516     20.859
REMARK  3 active torsions:
REMARK  status: ('A' for Active; 'I' for Inactive)
REMARK    1  A    between atoms: C5_5  and  O1_6 
REMARK    2  A    between atoms: N1_9  and  C8_10 
REMARK    3  A    between atoms: C12_15  and  O3_16 
ROOT
HETATM    1  C1  UNL     1      44.087   9.906  56.932  1.00  0.00     0.048 C 
HETATM    2  C2  UNL     1      44.386   8.758  56.051  1.00  0.00    -0.059 A 
HETATM    3  C3  UNL     1      44.772   8.743  54.701  1.00  0.00     0.016 A 
HETATM    4  C4  UNL     1      45.030   7.587  53.972  1.00  0.00    -0.022 A 
HETATM    5  C5  UNL     1      44.911   6.386  54.588  1.00  0.00     0.099 A 
HETATM    6  C6  UNL     1      44.519   6.379  55.936  1.00  0.00     0.071 A 
HETATM    7  C7  UNL     1      44.264   7.509  56.660  1.00  0.00     0.039 A 
HETATM    8  N1  UNL     1      44.281   5.049  56.480  1.00  0.00    -0.319 N 
HETATM    9  C9  UNL     1      43.257   4.772  55.572  1.00  0.00     0.159 C 
HETATM   10  C10 UNL     1      41.851   5.002  55.826  1.00  0.00    -0.004 C 
HETATM   11  C11 UNL     1      41.177   5.950  55.149  1.00  0.00     0.034 C 
HETATM   12  C12 UNL     1      40.971   7.055  54.185  1.00  0.00     0.062 C 
HETATM   13  C13 UNL     1      41.662   7.843  53.339  1.00  0.00     0.015 C 
HETATM   14  C14 UNL     1      43.127   7.907  53.045  1.00  0.00     0.046 C 
HETATM   15  C15 UNL     1      43.920   8.631  52.193  1.00  0.00    -0.015 C 
HETATM   16  C16 UNL     1      45.294   8.076  52.579  1.00  0.00     0.042 C 
ENDROOT
BRANCH   5  17
HETATM   17  O1  UNL     1      45.262   5.554  53.541  1.00  0.00    -0.358 OA
HETATM   18  H5  UNL     1      44.584   5.086  52.959  1.00  0.00     0.217 HD
ENDBRANCH   5  17
BRANCH   8  19
HETATM   19  C8  UNL     1      45.259   5.034  57.498  1.00  0.00     0.356 C 
HETATM   20  O2  UNL     1      46.011   4.027  57.560  1.00  0.00    -0.283 OA
ENDBRANCH   8  19
BRANCH  12  21
HETATM   21  O3  UNL     1      39.578   7.374  54.160  1.00  0.00    -0.361 OA
HETATM   22  H12 UNL     1      38.922   6.879  53.604  1.00  0.00     0.217 HD
ENDBRANCH  12  21
TORSDOF 3
ENDMDL
