MODEL 1
REMARK VINA RESULT:      -7.6      0.000      0.000
REMARK  6 active torsions:
REMARK  status: ('A' for Active; 'I' for Inactive)
REMARK    1  A    between atoms: C2_2  and  C3_3 
REMARK    2  A    between atoms: C3_3  and  N1_4 
REMARK    3  A    between atoms: C3_3  and  C13_17 
REMARK    4  A    between atoms: N1_4  and  C4_5 
REMARK    5  A    between atoms: C7_9  and  C8_10 
REMARK       I    between atoms: C13_17  and  N5_19 
REMARK    6  A    between atoms: N5_19  and  C14_20 
ROOT
HETATM    1  C4  UNL     1      24.641   2.193  52.768  1.00  0.00     0.723 A 
HETATM    2  N2  UNL     1      23.477   1.570  53.002  1.00  0.00    -0.075 NA
HETATM    3  C5  UNL     1      23.306   0.292  53.287  1.00  0.00     0.139 A 
HETATM    4  C6  UNL     1      24.419  -0.517  53.358  1.00  0.00     0.053 A 
HETATM    5  C7  UNL     1      25.646   0.063  53.128  1.00  0.00     0.089 A 
HETATM    6  N4  UNL     1      25.682   1.356  52.852  1.00  0.00    -0.062 NA
ENDROOT
BRANCH   1   7
HETATM    7  N1  UNL     1      24.854   3.562  52.458  1.00  0.00    -0.209 N 
HETATM    8  H7  UNL     1      25.550   4.078  53.038  1.00  0.00     0.178 HD
BRANCH   7   9
HETATM    9  C3  UNL     1      24.074   4.123  51.347  1.00  0.00     0.191 C 
BRANCH   9  10
HETATM   10  C2  UNL     1      23.169   5.210  51.833  1.00  0.00     0.031 C 
HETATM   11  C1  UNL     1      21.749   4.706  51.885  1.00  0.00     0.007 C 
ENDBRANCH   9  10
BRANCH   9  12
HETATM   12  C13 UNL     1      24.977   4.634  50.303  1.00  0.00     0.241 C 
HETATM   13  O1  UNL     1      24.437   4.102  49.286  1.00  0.00    -0.271 OA
HETATM   14  N5  UNL     1      26.105   5.423  50.066  1.00  0.00    -0.355 N 
HETATM   15  H14 UNL     1      26.381   5.776  51.007  1.00  0.00     0.162 HD
BRANCH  14  16
HETATM   16  C14 UNL     1      26.636   5.619  48.762  1.00  0.00     0.076 C 
HETATM   17  C15 UNL     1      26.861   7.115  48.586  1.00  0.00     0.032 C 
HETATM   18  C16 UNL     1      27.979   4.971  48.540  1.00  0.00     0.032 C 
ENDBRANCH  14  16
ENDBRANCH   9  12
ENDBRANCH   7   9
ENDBRANCH   1   7
BRANCH   5  19
HETATM   19  C8  UNL     1      26.891  -0.690  53.175  1.00  0.00     0.011 A 
HETATM   20  C9  UNL     1      28.087  -0.175  53.621  1.00  0.00     0.017 A 
HETATM   21  C10 UNL     1      29.250  -0.916  53.653  1.00  0.00     0.020 A 
HETATM   22  C11 UNL     1      29.208  -2.231  53.220  1.00  0.00     0.116 A 
HETATM   23  N3  UNL     1      28.043  -2.773  52.773  1.00  0.00    -0.272 NA
HETATM   24  C12 UNL     1      26.938  -2.004  52.763  1.00  0.00     0.130 A 
ENDBRANCH   5  19
TORSDOF 6
ENDMDL
MODEL 2
REMARK VINA RESULT:      -7.5      2.508      5.371
REMARK  6 active torsions:
REMARK  status: ('A' for Active; 'I' for Inactive)
REMARK    1  A    between atoms: C2_2  and  C3_3 
REMARK    2  A    between atoms: C3_3  and  N1_4 
REMARK    3  A    between atoms: C3_3  and  C13_17 
REMARK    4  A    between atoms: N1_4  and  C4_5 
REMARK    5  A    between atoms: C7_9  and  C8_10 
REMARK       I    between atoms: C13_17  and  N5_19 
REMARK    6  A    between atoms: N5_19  and  C14_20 
ROOT
HETATM    1  C4  UNL     1      25.455  -0.355  53.908  1.00  0.00     0.723 A 
HETATM    2  N2  UNL     1      25.383  -0.947  55.109  1.00  0.00    -0.075 NA
HETATM    3  C5  UNL     1      24.288  -1.348  55.729  1.00  0.00     0.139 A 
HETATM    4  C6  UNL     1      23.074  -1.153  55.108  1.00  0.00     0.053 A 
HETATM    5  C7  UNL     1      23.081  -0.550  53.870  1.00  0.00     0.089 A 
HETATM    6  N4  UNL     1      24.246  -0.194  53.356  1.00  0.00    -0.062 NA
ENDROOT
BRANCH   1   7
HETATM    7  N1  UNL     1      26.614   0.088  53.218  1.00  0.00    -0.209 N 
HETATM    8  H7  UNL     1      27.192  -0.638  52.745  1.00  0.00     0.178 HD
BRANCH   7   9
HETATM    9  C3  UNL     1      26.888   1.531  53.236  1.00  0.00     0.191 C 
BRANCH   9  10
HETATM   10  C2  UNL     1      28.279   1.799  53.715  1.00  0.00     0.031 C 
HETATM   11  C1  UNL     1      28.773   0.630  54.528  1.00  0.00     0.007 C 
ENDBRANCH   9  10
BRANCH   9  12
HETATM   12  C13 UNL     1      26.689   2.099  51.892  1.00  0.00     0.241 C 
HETATM   13  O1  UNL     1      26.743   1.032  51.208  1.00  0.00    -0.271 OA
HETATM   14  N5  UNL     1      26.479   3.282  51.181  1.00  0.00    -0.355 N 
HETATM   15  H14 UNL     1      26.448   4.025  51.912  1.00  0.00     0.162 HD
BRANCH  14  16
HETATM   16  C14 UNL     1      26.342   3.306  49.767  1.00  0.00     0.076 C 
HETATM   17  C15 UNL     1      24.867   3.529  49.459  1.00  0.00     0.032 C 
HETATM   18  C16 UNL     1      27.079   4.436  49.095  1.00  0.00     0.032 C 
ENDBRANCH  14  16
ENDBRANCH   9  12
ENDBRANCH   7   9
ENDBRANCH   1   7
BRANCH   5  19
HETATM   19  C8  UNL     1      21.861  -0.290  53.119  1.00  0.00     0.011 A 
HETATM   20  C9  UNL     1      21.836   0.259  51.856  1.00  0.00     0.017 A 
HETATM   21  C10 UNL     1      20.663   0.492  51.169  1.00  0.00     0.020 A 
HETATM   22  C11 UNL     1      19.464   0.157  51.777  1.00  0.00     0.116 A 
HETATM   23  N3  UNL     1      19.451  -0.388  53.024  1.00  0.00    -0.272 NA
HETATM   24  C12 UNL     1      20.626  -0.593  53.648  1.00  0.00     0.130 A 
ENDBRANCH   5  19
TORSDOF 6
ENDMDL
MODEL 3
REMARK VINA RESULT:      -7.3      2.066      5.520
REMARK  6 active torsions:
REMARK  status: ('A' for Active; 'I' for Inactive)
REMARK    1  A    between atoms: C2_2  and  C3_3 
REMARK    2  A    between atoms: C3_3  and  N1_4 
REMARK    3  A    between atoms: C3_3  and  C13_17 
REMARK    4  A    between atoms: N1_4  and  C4_5 
REMARK    5  A    between atoms: C7_9  and  C8_10 
REMARK       I    between atoms: C13_17  and  N5_19 
REMARK    6  A    between atoms: N5_19  and  C14_20 
ROOT
HETATM    1  C4  UNL     1      23.542   3.865  51.578  1.00  0.00     0.723 A 
HETATM    2  N2  UNL     1      22.499   4.675  51.348  1.00  0.00    -0.075 NA
HETATM    3  C5  UNL     1      21.230   4.425  51.613  1.00  0.00     0.139 A 
HETATM    4  C6  UNL     1      20.906   3.214  52.185  1.00  0.00     0.053 A 
HETATM    5  C7  UNL     1      21.934   2.337  52.446  1.00  0.00     0.089 A 
HETATM    6  N4  UNL     1      23.164   2.708  52.133  1.00  0.00    -0.062 NA
ENDROOT
BRANCH   1   7
HETATM    7  N1  UNL     1      24.914   4.105  51.302  1.00  0.00    -0.209 N 
HETATM    8  H7  UNL     1      25.330   4.980  51.687  1.00  0.00     0.178 HD
BRANCH   7   9
HETATM    9  C3  UNL     1      25.619   3.096  50.501  1.00  0.00     0.191 C 
BRANCH   9  10
HETATM   10  C2  UNL     1      26.706   3.728  49.692  1.00  0.00     0.031 C 
HETATM   11  C1  UNL     1      26.231   5.048  49.141  1.00  0.00     0.007 C 
ENDBRANCH   9  10
BRANCH   9  12
HETATM   12  C13 UNL     1      26.171   2.051  51.378  1.00  0.00     0.241 C 
HETATM   13  O1  UNL     1      27.329   2.534  51.569  1.00  0.00    -0.271 OA
HETATM   14  N5  UNL     1      25.892   0.838  52.011  1.00  0.00    -0.355 N 
HETATM   15  H14 UNL     1      24.906   0.625  51.748  1.00  0.00     0.162 HD
BRANCH  14  16
HETATM   16  C14 UNL     1      26.848   0.165  52.820  1.00  0.00     0.076 C 
HETATM   17  C15 UNL     1      26.463   0.410  54.273  1.00  0.00     0.032 C 
HETATM   18  C16 UNL     1      26.859  -1.333  52.644  1.00  0.00     0.032 C 
ENDBRANCH  14  16
ENDBRANCH   9  12
ENDBRANCH   7   9
ENDBRANCH   1   7
BRANCH   5  19
HETATM   19  C8  UNL     1      21.715   1.029  53.046  1.00  0.00     0.011 A 
HETATM   20  C9  UNL     1      22.725   0.206  53.492  1.00  0.00     0.017 A 
HETATM   21  C10 UNL     1      22.484  -1.029  54.058  1.00  0.00     0.020 A 
HETATM   22  C11 UNL     1      21.172  -1.454  54.180  1.00  0.00     0.116 A 
HETATM   23  N3  UNL     1      20.148  -0.668  53.750  1.00  0.00    -0.272 NA
HETATM   24  C12 UNL     1      20.441   0.528  53.206  1.00  0.00     0.130 A 
ENDBRANCH   5  19
TORSDOF 6
ENDMDL
MODEL 4
REMARK VINA RESULT:      -7.2      3.135      5.066
REMARK  6 active torsions:
REMARK  status: ('A' for Active; 'I' for Inactive)
REMARK    1  A    between atoms: C2_2  and  C3_3 
REMARK    2  A    between atoms: C3_3  and  N1_4 
REMARK    3  A    between atoms: C3_3  and  C13_17 
REMARK    4  A    between atoms: N1_4  and  C4_5 
REMARK    5  A    between atoms: C7_9  and  C8_10 
REMARK       I    between atoms: C13_17  and  N5_19 
REMARK    6  A    between atoms: N5_19  and  C14_20 
ROOT
HETATM    1  C4  UNL     1      24.400   1.728  51.831  1.00  0.00     0.723 A 
HETATM    2  N2  UNL     1      24.476   2.710  52.740  1.00  0.00    -0.075 NA
HETATM    3  C5  UNL     1      25.342   2.806  53.732  1.00  0.00     0.139 A 
HETATM    4  C6  UNL     1      26.280   1.807  53.880  1.00  0.00     0.053 A 
HETATM    5  C7  UNL     1      26.255   0.769  52.977  1.00  0.00     0.089 A 
HETATM    6  N4  UNL     1      25.335   0.791  52.027  1.00  0.00    -0.062 NA
ENDROOT
BRANCH   1   7
HETATM    7  N1  UNL     1      23.480   1.598  50.757  1.00  0.00    -0.209 N 
HETATM    8  H7  UNL     1      23.868   1.642  49.791  1.00  0.00     0.178 HD
BRANCH   7   9
HETATM    9  C3  UNL     1      22.066   1.412  51.109  1.00  0.00     0.191 C 
BRANCH   9  10
HETATM   10  C2  UNL     1      21.344   0.675  50.027  1.00  0.00     0.031 C 
HETATM   11  C1  UNL     1      21.611   1.332  48.697  1.00  0.00     0.007 C 
ENDBRANCH   9  10
BRANCH   9  12
HETATM   12  C13 UNL     1      21.956   0.689  52.387  1.00  0.00     0.241 C 
HETATM   13  O1  UNL     1      21.129   1.446  52.980  1.00  0.00    -0.271 OA
HETATM   14  N5  UNL     1      22.397  -0.428  53.099  1.00  0.00    -0.355 N 
HETATM   15  H14 UNL     1      23.042  -0.920  52.444  1.00  0.00     0.162 HD
BRANCH  14  16
HETATM   16  C14 UNL     1      21.959  -0.709  54.422  1.00  0.00     0.076 C 
HETATM   17  C15 UNL     1      20.850  -1.748  54.320  1.00  0.00     0.032 C 
HETATM   18  C16 UNL     1      23.017  -1.320  55.305  1.00  0.00     0.032 C 
ENDBRANCH  14  16
ENDBRANCH   9  12
ENDBRANCH   7   9
ENDBRANCH   1   7
BRANCH   5  19
HETATM   19  C8  UNL     1      27.194  -0.342  53.034  1.00  0.00     0.011 A 
HETATM   20  C9  UNL     1      28.500  -0.227  53.453  1.00  0.00     0.017 A 
HETATM   21  C10 UNL     1      29.365  -1.301  53.496  1.00  0.00     0.020 A 
HETATM   22  C11 UNL     1      28.896  -2.543  53.101  1.00  0.00     0.116 A 
HETATM   23  N3  UNL     1      27.611  -2.694  52.681  1.00  0.00    -0.272 NA
HETATM   24  C12 UNL     1      26.811  -1.611  52.659  1.00  0.00     0.130 A 
ENDBRANCH   5  19
TORSDOF 6
ENDMDL
MODEL 5
REMARK VINA RESULT:      -7.0      2.115      2.895
REMARK  6 active torsions:
REMARK  status: ('A' for Active; 'I' for Inactive)
REMARK    1  A    between atoms: C2_2  and  C3_3 
REMARK    2  A    between atoms: C3_3  and  N1_4 
REMARK    3  A    between atoms: C3_3  and  C13_17 
REMARK    4  A    between atoms: N1_4  and  C4_5 
REMARK    5  A    between atoms: C7_9  and  C8_10 
REMARK       I    between atoms: C13_17  and  N5_19 
REMARK    6  A    between atoms: N5_19  and  C14_20 
ROOT
HETATM    1  C4  UNL     1      22.397   0.199  52.476  1.00  0.00     0.723 A 
HETATM    2  N2  UNL     1      21.682  -0.334  53.477  1.00  0.00    -0.075 NA
HETATM    3  C5  UNL     1      22.153  -0.874  54.586  1.00  0.00     0.139 A 
HETATM    4  C6  UNL     1      23.519  -0.912  54.767  1.00  0.00     0.053 A 
HETATM    5  C7  UNL     1      24.309  -0.380  53.774  1.00  0.00     0.089 A 
HETATM    6  N4  UNL     1      23.713   0.132  52.710  1.00  0.00    -0.062 NA
ENDROOT
BRANCH   1   7
HETATM    7  N1  UNL     1      21.919   0.783  51.273  1.00  0.00    -0.209 N 
HETATM    8  H7  UNL     1      21.563   0.136  50.539  1.00  0.00     0.178 HD
BRANCH   7   9
HETATM    9  C3  UNL     1      21.972   2.248  51.178  1.00  0.00     0.191 C 
BRANCH   9  10
HETATM   10  C2  UNL     1      21.284   2.879  52.345  1.00  0.00     0.031 C 
HETATM   11  C1  UNL     1      19.794   2.896  52.111  1.00  0.00     0.007 C 
ENDBRANCH   9  10
BRANCH   9  12
HETATM   12  C13 UNL     1      23.371   2.699  51.100  1.00  0.00     0.241 C 
HETATM   13  O1  UNL     1      23.304   3.710  51.863  1.00  0.00    -0.271 OA
HETATM   14  N5  UNL     1      24.621   2.427  50.539  1.00  0.00    -0.355 N 
HETATM   15  H14 UNL     1      24.472   1.565  49.972  1.00  0.00     0.162 HD
BRANCH  14  16
HETATM   16  C14 UNL     1      25.761   3.237  50.792  1.00  0.00     0.076 C 
HETATM   17  C15 UNL     1      26.761   2.382  51.560  1.00  0.00     0.032 C 
HETATM   18  C16 UNL     1      26.480   3.694  49.549  1.00  0.00     0.032 C 
ENDBRANCH  14  16
ENDBRANCH   9  12
ENDBRANCH   7   9
ENDBRANCH   1   7
BRANCH   5  19
HETATM   19  C8  UNL     1      25.763  -0.365  53.852  1.00  0.00     0.011 A 
HETATM   20  C9  UNL     1      26.587  -1.081  53.013  1.00  0.00     0.017 A 
HETATM   21  C10 UNL     1      27.963  -1.044  53.113  1.00  0.00     0.020 A 
HETATM   22  C11 UNL     1      28.533  -0.253  54.097  1.00  0.00     0.116 A 
HETATM   23  N3  UNL     1      27.749   0.468  54.943  1.00  0.00    -0.272 NA
HETATM   24  C12 UNL     1      26.412   0.394  54.801  1.00  0.00     0.130 A 
ENDBRANCH   5  19
TORSDOF 6
ENDMDL
MODEL 6
REMARK VINA RESULT:      -7.0      2.352      4.718
REMARK  6 active torsions:
REMARK  status: ('A' for Active; 'I' for Inactive)
REMARK    1  A    between atoms: C2_2  and  C3_3 
REMARK    2  A    between atoms: C3_3  and  N1_4 
REMARK    3  A    between atoms: C3_3  and  C13_17 
REMARK    4  A    between atoms: N1_4  and  C4_5 
REMARK    5  A    between atoms: C7_9  and  C8_10 
REMARK       I    between atoms: C13_17  and  N5_19 
REMARK    6  A    between atoms: N5_19  and  C14_20 
ROOT
HETATM    1  C4  UNL     1      26.597   2.486  51.271  1.00  0.00     0.723 A 
HETATM    2  N2  UNL     1      27.557   2.378  52.200  1.00  0.00    -0.075 NA
HETATM    3  C5  UNL     1      27.478   1.733  53.349  1.00  0.00     0.139 A 
HETATM    4  C6  UNL     1      26.298   1.092  53.661  1.00  0.00     0.053 A 
HETATM    5  C7  UNL     1      25.272   1.166  52.746  1.00  0.00     0.089 A 
HETATM    6  N4  UNL     1      25.479   1.844  51.630  1.00  0.00    -0.062 NA
ENDROOT
BRANCH   1   7
HETATM    7  N1  UNL     1      26.653   3.173  50.029  1.00  0.00    -0.209 N 
HETATM    8  H7  UNL     1      27.303   2.796  49.306  1.00  0.00     0.178 HD
BRANCH   7   9
HETATM    9  C3  UNL     1      25.788   4.350  49.881  1.00  0.00     0.191 C 
BRANCH   9  10
HETATM   10  C2  UNL     1      26.393   5.335  48.931  1.00  0.00     0.031 C 
HETATM   11  C1  UNL     1      27.802   4.919  48.595  1.00  0.00     0.007 C 
ENDBRANCH   9  10
BRANCH   9  12
HETATM   12  C13 UNL     1      24.453   3.940  49.416  1.00  0.00     0.241 C 
HETATM   13  O1  UNL     1      24.142   4.973  48.748  1.00  0.00    -0.271 OA
HETATM   14  N5  UNL     1      23.507   2.914  49.448  1.00  0.00    -0.355 N 
HETATM   15  H14 UNL     1      23.952   2.164  50.020  1.00  0.00     0.162 HD
BRANCH  14  16
HETATM   16  C14 UNL     1      22.255   3.011  48.781  1.00  0.00     0.076 C 
HETATM   17  C15 UNL     1      21.913   1.623  48.257  1.00  0.00     0.032 C 
HETATM   18  C16 UNL     1      21.109   3.408  49.677  1.00  0.00     0.032 C 
ENDBRANCH  14  16
ENDBRANCH   9  12
ENDBRANCH   7   9
ENDBRANCH   1   7
BRANCH   5  19
HETATM   19  C8  UNL     1      23.980   0.531  52.965  1.00  0.00     0.011 A 
HETATM   20  C9  UNL     1      22.816   0.916  52.338  1.00  0.00     0.017 A 
HETATM   21  C10 UNL     1      21.607   0.293  52.567  1.00  0.00     0.020 A 
HETATM   22  C11 UNL     1      21.567  -0.763  53.463  1.00  0.00     0.116 A 
HETATM   23  N3  UNL     1      22.698  -1.170  54.101  1.00  0.00    -0.272 NA
HETATM   24  C12 UNL     1      23.851  -0.526  53.840  1.00  0.00     0.130 A 
ENDBRANCH   5  19
TORSDOF 6
ENDMDL
MODEL 7
REMARK VINA RESULT:      -6.9      1.972      3.724
REMARK  6 active torsions:
REMARK  status: ('A' for Active; 'I' for Inactive)
REMARK    1  A    between atoms: C2_2  and  C3_3 
REMARK    2  A    between atoms: C3_3  and  N1_4 
REMARK    3  A    between atoms: C3_3  and  C13_17 
REMARK    4  A    between atoms: N1_4  and  C4_5 
REMARK    5  A    between atoms: C7_9  and  C8_10 
REMARK       I    between atoms: C13_17  and  N5_19 
REMARK    6  A    between atoms: N5_19  and  C14_20 
ROOT
HETATM    1  C4  UNL     1      25.563   2.327  51.978  1.00  0.00     0.723 A 
HETATM    2  N2  UNL     1      26.697   1.618  51.888  1.00  0.00    -0.075 NA
HETATM    3  C5  UNL     1      26.879   0.363  52.256  1.00  0.00     0.139 A 
HETATM    4  C6  UNL     1      25.811  -0.322  52.795  1.00  0.00     0.053 A 
HETATM    5  C7  UNL     1      24.616   0.351  52.914  1.00  0.00     0.089 A 
HETATM    6  N4  UNL     1      24.566   1.608  52.507  1.00  0.00    -0.062 NA
ENDROOT
BRANCH   1   7
HETATM    7  N1  UNL     1      25.339   3.675  51.593  1.00  0.00    -0.209 N 
HETATM    8  H7  UNL     1      25.485   4.407  52.320  1.00  0.00     0.178 HD
BRANCH   7   9
HETATM    9  C3  UNL     1      24.924   3.911  50.204  1.00  0.00     0.191 C 
BRANCH   9  10
HETATM   10  C2  UNL     1      23.434   3.895  50.087  1.00  0.00     0.031 C 
HETATM   11  C1  UNL     1      22.986   2.604  49.451  1.00  0.00     0.007 C 
ENDBRANCH   9  10
BRANCH   9  12
HETATM   12  C13 UNL     1      25.464   5.195  49.727  1.00  0.00     0.241 C 
HETATM   13  O1  UNL     1      24.770   5.330  48.673  1.00  0.00    -0.271 OA
HETATM   14  N5  UNL     1      26.379   6.213  50.003  1.00  0.00    -0.355 N 
HETATM   15  H14 UNL     1      26.826   5.928  50.901  1.00  0.00     0.162 HD
BRANCH  14  16
HETATM   16  C14 UNL     1      26.541   7.341  49.154  1.00  0.00     0.076 C 
HETATM   17  C15 UNL     1      26.783   8.550  50.049  1.00  0.00     0.032 C 
HETATM   18  C16 UNL     1      27.737   7.259  48.241  1.00  0.00     0.032 C 
ENDBRANCH  14  16
ENDBRANCH   9  12
ENDBRANCH   7   9
ENDBRANCH   1   7
BRANCH   5  19
HETATM   19  C8  UNL     1      23.421  -0.266  53.470  1.00  0.00     0.011 A 
HETATM   20  C9  UNL     1      22.176  -0.201  52.885  1.00  0.00     0.017 A 
HETATM   21  C10 UNL     1      21.062  -0.799  53.437  1.00  0.00     0.020 A 
HETATM   22  C11 UNL     1      21.207  -1.493  54.627  1.00  0.00     0.116 A 
HETATM   23  N3  UNL     1      22.421  -1.578  55.233  1.00  0.00    -0.272 NA
HETATM   24  C12 UNL     1      23.475  -0.975  54.650  1.00  0.00     0.130 A 
ENDBRANCH   5  19
TORSDOF 6
ENDMDL
MODEL 8
REMARK VINA RESULT:      -6.8      1.951      6.701
REMARK  6 active torsions:
REMARK  status: ('A' for Active; 'I' for Inactive)
REMARK    1  A    between atoms: C2_2  and  C3_3 
REMARK    2  A    between atoms: C3_3  and  N1_4 
REMARK    3  A    between atoms: C3_3  and  C13_17 
REMARK    4  A    between atoms: N1_4  and  C4_5 
REMARK    5  A    between atoms: C7_9  and  C8_10 
REMARK       I    between atoms: C13_17  and  N5_19 
REMARK    6  A    between atoms: N5_19  and  C14_20 
ROOT
HETATM    1  C4  UNL     1      24.372   2.507  51.673  1.00  0.00     0.723 A 
HETATM    2  N2  UNL     1      23.370   3.213  52.215  1.00  0.00    -0.075 NA
HETATM    3  C5  UNL     1      23.131   4.501  52.052  1.00  0.00     0.139 A 
HETATM    4  C6  UNL     1      23.981   5.229  51.248  1.00  0.00     0.053 A 
HETATM    5  C7  UNL     1      25.031   4.560  50.661  1.00  0.00     0.089 A 
HETATM    6  N4  UNL     1      25.161   3.267  50.904  1.00  0.00    -0.062 NA
ENDROOT
BRANCH   1   7
HETATM    7  N1  UNL     1      24.654   1.124  51.832  1.00  0.00    -0.209 N 
HETATM    8  H7  UNL     1      24.790   0.564  50.963  1.00  0.00     0.178 HD
BRANCH   7   9
HETATM    9  C3  UNL     1      24.731   0.613  53.207  1.00  0.00     0.191 C 
BRANCH   9  10
HETATM   10  C2  UNL     1      23.816  -0.555  53.389  1.00  0.00     0.031 C 
HETATM   11  C1  UNL     1      22.516  -0.094  53.997  1.00  0.00     0.007 C 
ENDBRANCH   9  10
BRANCH   9  12
HETATM   12  C13 UNL     1      26.117   0.236  53.528  1.00  0.00     0.241 C 
HETATM   13  O1  UNL     1      26.123   0.512  54.767  1.00  0.00    -0.271 OA
HETATM   14  N5  UNL     1      27.306  -0.271  53.000  1.00  0.00    -0.355 N 
HETATM   15  H14 UNL     1      27.093  -0.446  51.995  1.00  0.00     0.162 HD
BRANCH  14  16
HETATM   16  C14 UNL     1      28.470  -0.463  53.792  1.00  0.00     0.076 C 
HETATM   17  C15 UNL     1      29.158  -1.724  53.287  1.00  0.00     0.032 C 
HETATM   18  C16 UNL     1      29.490   0.640  53.668  1.00  0.00     0.032 C 
ENDBRANCH  14  16
ENDBRANCH   9  12
ENDBRANCH   7   9
ENDBRANCH   1   7
BRANCH   5  19
HETATM   19  C8  UNL     1      25.995   5.222  49.794  1.00  0.00     0.011 A 
HETATM   20  C9  UNL     1      27.064   4.586  49.203  1.00  0.00     0.017 A 
HETATM   21  C10 UNL     1      27.960   5.242  48.384  1.00  0.00     0.020 A 
HETATM   22  C11 UNL     1      27.772   6.594  48.149  1.00  0.00     0.116 A 
HETATM   23  N3  UNL     1      26.727   7.255  48.716  1.00  0.00    -0.272 NA
HETATM   24  C12 UNL     1      25.883   6.565  49.507  1.00  0.00     0.130 A 
ENDBRANCH   5  19
TORSDOF 6
ENDMDL
MODEL 9
REMARK VINA RESULT:      -6.8      2.072      3.052
REMARK  6 active torsions:
REMARK  status: ('A' for Active; 'I' for Inactive)
REMARK    1  A    between atoms: C2_2  and  C3_3 
REMARK    2  A    between atoms: C3_3  and  N1_4 
REMARK    3  A    between atoms: C3_3  and  C13_17 
REMARK    4  A    between atoms: N1_4  and  C4_5 
REMARK    5  A    between atoms: C7_9  and  C8_10 
REMARK       I    between atoms: C13_17  and  N5_19 
REMARK    6  A    between atoms: N5_19  and  C14_20 
ROOT
HETATM    1  C4  UNL     1      23.176   1.561  51.581  1.00  0.00     0.723 A 
HETATM    2  N2  UNL     1      22.203   0.747  52.013  1.00  0.00    -0.075 NA
HETATM    3  C5  UNL     1      22.329  -0.261  52.857  1.00  0.00     0.139 A 
HETATM    4  C6  UNL     1      23.580  -0.534  53.367  1.00  0.00     0.053 A 
HETATM    5  C7  UNL     1      24.623   0.268  52.963  1.00  0.00     0.089 A 
HETATM    6  N4  UNL     1      24.363   1.246  52.112  1.00  0.00    -0.062 NA
ENDROOT
BRANCH   1   7
HETATM    7  N1  UNL     1      23.070   2.649  50.675  1.00  0.00    -0.209 N 
HETATM    8  H7  UNL     1      22.200   2.709  50.104  1.00  0.00     0.178 HD
BRANCH   7   9
HETATM    9  C3  UNL     1      24.197   3.589  50.628  1.00  0.00     0.191 C 
BRANCH   9  10
HETATM   10  C2  UNL     1      24.999   3.393  49.381  1.00  0.00     0.031 C 
HETATM   11  C1  UNL     1      26.460   3.263  49.729  1.00  0.00     0.007 C 
ENDBRANCH   9  10
BRANCH   9  12
HETATM   12  C13 UNL     1      23.704   4.974  50.710  1.00  0.00     0.241 C 
HETATM   13  O1  UNL     1      23.709   5.119  51.970  1.00  0.00    -0.271 OA
HETATM   14  N5  UNL     1      23.278   6.072  49.960  1.00  0.00    -0.355 N 
HETATM   15  H14 UNL     1      23.363   5.761  48.969  1.00  0.00     0.162 HD
BRANCH  14  16
HETATM   16  C14 UNL     1      22.861   7.289  50.563  1.00  0.00     0.076 C 
HETATM   17  C15 UNL     1      23.384   8.426  49.695  1.00  0.00     0.032 C 
HETATM   18  C16 UNL     1      21.365   7.469  50.619  1.00  0.00     0.032 C 
ENDBRANCH  14  16
ENDBRANCH   9  12
ENDBRANCH   7   9
ENDBRANCH   1   7
BRANCH   5  19
HETATM   19  C8  UNL     1      25.987   0.075  53.433  1.00  0.00     0.011 A 
HETATM   20  C9  UNL     1      27.065  -0.143  52.604  1.00  0.00     0.017 A 
HETATM   21  C10 UNL     1      28.347  -0.321  53.081  1.00  0.00     0.020 A 
HETATM   22  C11 UNL     1      28.554  -0.276  54.450  1.00  0.00     0.116 A 
HETATM   23  N3  UNL     1      27.513  -0.062  55.299  1.00  0.00    -0.272 NA
HETATM   24  C12 UNL     1      26.282   0.104  54.778  1.00  0.00     0.130 A 
ENDBRANCH   5  19
TORSDOF 6
ENDMDL
