MODEL 1
REMARK VINA RESULT:      -8.0      0.000      0.000
REMARK  9 active torsions:
REMARK  status: ('A' for Active; 'I' for Inactive)
REMARK    1  A    between atoms: C4_4  and  C5_5 
REMARK    2  A    between atoms: C5_5  and  C6_6 
REMARK    3  A    between atoms: C7_7  and  C8_8 
REMARK    4  A    between atoms: C8_8  and  C9_9 
REMARK    5  A    between atoms: C9_9  and  C10_10 
REMARK    6  A    between atoms: C10_10  and  C11_12 
REMARK    7  A    between atoms: C11_12  and  C12_13 
REMARK    8  A    between atoms: N2_16  and  C14_17 
REMARK    9  A    between atoms: C15_19  and  O1_20 
ROOT
HETATM    1  C6  UNL     1      24.693   0.139  53.414  1.00  0.00     0.171 A 
HETATM    2  C7  UNL     1      23.985  -0.716  54.399  1.00  0.00     0.087 A 
HETATM    3  N1  UNL     1      25.063  -0.939  55.112  1.00  0.00    -0.172 NA
HETATM    4  N2  UNL     1      25.813  -0.160  54.254  1.00  0.00    -0.235 N 
ENDROOT
BRANCH   1   5
HETATM    5  C5  UNL     1      24.283   1.584  53.377  1.00  0.00     0.073 C 
BRANCH   5   6
HETATM    6  C4  UNL     1      24.806   2.318  52.223  1.00  0.00    -0.016 A 
HETATM    7  C3  UNL     1      25.854   2.325  51.417  1.00  0.00     0.044 A 
HETATM    8  C2  UNL     1      25.757   3.371  50.415  1.00  0.00     0.063 A 
HETATM    9  C1  UNL     1      26.640   3.623  49.483  1.00  0.00     0.051 C 
HETATM   10  O2  UNL     1      24.575   4.021  50.648  1.00  0.00    -0.313 OA
HETATM   11  C17 UNL     1      23.927   3.438  51.745  1.00  0.00     0.343 A 
HETATM   12  F2  UNL     1      23.884   4.386  52.758  1.00  0.00    -0.214 F 
ENDBRANCH   5   6
ENDBRANCH   1   5
BRANCH   2  13
HETATM   13  C8  UNL     1      22.890  -1.418  55.021  1.00  0.00     0.089 C 
BRANCH  13  14
HETATM   14  C9  UNL     1      21.645  -1.222  54.617  1.00  0.00    -0.085 C 
BRANCH  14  15
HETATM   15  C10 UNL     1      20.571  -0.947  53.893  1.00  0.00     0.161 C 
HETATM   16  F1  UNL     1      19.692  -1.937  53.973  1.00  0.00    -0.197 F 
BRANCH  15  17
HETATM   17  C11 UNL     1      20.560   0.314  53.185  1.00  0.00     0.046 C 
BRANCH  17  18
HETATM   18  C12 UNL     1      20.999   1.017  52.154  1.00  0.00    -0.027 C 
HETATM   19  C13 UNL     1      21.534   0.572  50.856  1.00  0.00     0.036 C 
ENDBRANCH  17  18
ENDBRANCH  15  17
ENDBRANCH  14  15
ENDBRANCH  13  14
ENDBRANCH   2  13
BRANCH   4  20
HETATM   20  C14 UNL     1      27.181   0.226  54.184  1.00  0.00     0.192 A 
HETATM   21  N3  UNL     1      27.883   1.227  54.575  1.00  0.00    -0.198 NA
HETATM   22  C15 UNL     1      29.177   1.219  54.307  1.00  0.00     0.171 A 
HETATM   23  C16 UNL     1      29.819   0.123  53.593  1.00  0.00     0.111 A 
HETATM   24  S1  UNL     1      28.330  -0.941  53.329  1.00  0.00    -0.058 SA
BRANCH  22  25
HETATM   25  O1  UNL     1      29.788   2.389  54.806  1.00  0.00    -0.344 OA
HETATM   26  H13 UNL     1      29.962   3.204  54.216  1.00  0.00     0.219 HD
ENDBRANCH  22  25
ENDBRANCH   4  20
TORSDOF 9
ENDMDL
MODEL 2
REMARK VINA RESULT:      -7.6      1.710      2.479
REMARK  9 active torsions:
REMARK  status: ('A' for Active; 'I' for Inactive)
REMARK    1  A    between atoms: C4_4  and  C5_5 
REMARK    2  A    between atoms: C5_5  and  C6_6 
REMARK    3  A    between atoms: C7_7  and  C8_8 
REMARK    4  A    between atoms: C8_8  and  C9_9 
REMARK    5  A    between atoms: C9_9  and  C10_10 
REMARK    6  A    between atoms: C10_10  and  C11_12 
REMARK    7  A    between atoms: C11_12  and  C12_13 
REMARK    8  A    between atoms: N2_16  and  C14_17 
REMARK    9  A    between atoms: C15_19  and  O1_20 
ROOT
HETATM    1  C6  UNL     1      24.707   0.055  53.077  1.00  0.00     0.171 A 
HETATM    2  C7  UNL     1      23.898  -0.643  54.107  1.00  0.00     0.087 A 
HETATM    3  N1  UNL     1      24.905  -0.770  54.937  1.00  0.00    -0.172 NA
HETATM    4  N2  UNL     1      25.743  -0.129  54.047  1.00  0.00    -0.235 N 
ENDROOT
BRANCH   1   5
HETATM    5  C5  UNL     1      24.332   1.484  52.798  1.00  0.00     0.073 C 
BRANCH   5   6
HETATM    6  C4  UNL     1      23.084   1.632  52.046  1.00  0.00    -0.016 A 
HETATM    7  C3  UNL     1      22.318   0.951  51.210  1.00  0.00     0.044 A 
HETATM    8  C2  UNL     1      21.150   1.712  50.807  1.00  0.00     0.063 A 
HETATM    9  C1  UNL     1      20.213   1.304  49.991  1.00  0.00     0.051 C 
HETATM   10  O2  UNL     1      21.235   2.920  51.447  1.00  0.00    -0.313 OA
HETATM   11  C17 UNL     1      22.398   2.955  52.229  1.00  0.00     0.343 A 
HETATM   12  F2  UNL     1      23.233   3.927  51.695  1.00  0.00    -0.214 F 
ENDBRANCH   5   6
ENDBRANCH   1   5
BRANCH   2  13
HETATM   13  C8  UNL     1      22.739  -1.239  54.723  1.00  0.00     0.089 C 
BRANCH  13  14
HETATM   14  C9  UNL     1      21.542  -0.690  54.585  1.00  0.00    -0.085 C 
BRANCH  14  15
HETATM   15  C10 UNL     1      20.481  -0.055  54.111  1.00  0.00     0.161 C 
HETATM   16  F1  UNL     1      20.515   1.226  54.455  1.00  0.00    -0.197 F 
BRANCH  15  17
HETATM   17  C11 UNL     1      19.533  -0.837  53.349  1.00  0.00     0.046 C 
BRANCH  17  18
HETATM   18  C12 UNL     1      18.265  -1.068  53.049  1.00  0.00    -0.027 C 
HETATM   19  C13 UNL     1      17.458  -0.609  51.905  1.00  0.00     0.036 C 
ENDBRANCH  17  18
ENDBRANCH  15  17
ENDBRANCH  14  15
ENDBRANCH  13  14
ENDBRANCH   2  13
BRANCH   4  20
HETATM   20  C14 UNL     1      27.120   0.232  54.044  1.00  0.00     0.192 A 
HETATM   21  N3  UNL     1      27.816   1.233  54.443  1.00  0.00    -0.198 NA
HETATM   22  C15 UNL     1      29.124   1.195  54.251  1.00  0.00     0.171 A 
HETATM   23  C16 UNL     1      29.785   0.064  53.611  1.00  0.00     0.111 A 
HETATM   24  S1  UNL     1      28.294  -0.982  53.296  1.00  0.00    -0.058 SA
BRANCH  22  25
HETATM   25  O1  UNL     1      29.726   2.370  54.748  1.00  0.00    -0.344 OA
HETATM   26  H13 UNL     1      29.302   2.924  55.493  1.00  0.00     0.219 HD
ENDBRANCH  22  25
ENDBRANCH   4  20
TORSDOF 9
ENDMDL
MODEL 3
REMARK VINA RESULT:      -7.4      2.369      5.493
REMARK  9 active torsions:
REMARK  status: ('A' for Active; 'I' for Inactive)
REMARK    1  A    between atoms: C4_4  and  C5_5 
REMARK    2  A    between atoms: C5_5  and  C6_6 
REMARK    3  A    between atoms: C7_7  and  C8_8 
REMARK    4  A    between atoms: C8_8  and  C9_9 
REMARK    5  A    between atoms: C9_9  and  C10_10 
REMARK    6  A    between atoms: C10_10  and  C11_12 
REMARK    7  A    between atoms: C11_12  and  C12_13 
REMARK    8  A    between atoms: N2_16  and  C14_17 
REMARK    9  A    between atoms: C15_19  and  O1_20 
ROOT
HETATM    1  C6  UNL     1      24.507   1.118  53.149  1.00  0.00     0.171 A 
HETATM    2  C7  UNL     1      24.136   1.665  51.821  1.00  0.00     0.087 A 
HETATM    3  N1  UNL     1      25.378   1.895  51.471  1.00  0.00    -0.172 NA
HETATM    4  N2  UNL     1      25.829   1.404  52.680  1.00  0.00    -0.235 N 
ENDROOT
BRANCH   1   5
HETATM    5  C5  UNL     1      24.203  -0.337  53.374  1.00  0.00     0.073 C 
BRANCH   5   6
HETATM    6  C4  UNL     1      22.781  -0.620  53.571  1.00  0.00    -0.016 A 
HETATM    7  C3  UNL     1      21.604  -0.304  53.058  1.00  0.00     0.044 A 
HETATM    8  C2  UNL     1      20.516  -0.965  53.754  1.00  0.00     0.063 A 
HETATM    9  C1  UNL     1      19.243  -0.849  53.475  1.00  0.00     0.051 C 
HETATM   10  O2  UNL     1      21.090  -1.719  54.742  1.00  0.00    -0.313 OA
HETATM   11  C17 UNL     1      22.483  -1.563  54.702  1.00  0.00     0.343 A 
HETATM   12  F2  UNL     1      22.867  -0.929  55.876  1.00  0.00    -0.214 F 
ENDBRANCH   5   6
ENDBRANCH   1   5
BRANCH   2  13
HETATM   13  C8  UNL     1      23.285   2.079  50.733  1.00  0.00     0.089 C 
BRANCH  13  14
HETATM   14  C9  UNL     1      23.636   3.081  49.942  1.00  0.00    -0.085 C 
BRANCH  14  15
HETATM   15  C10 UNL     1      23.786   4.279  49.397  1.00  0.00     0.161 C 
HETATM   16  F1  UNL     1      22.610   4.883  49.278  1.00  0.00    -0.197 F 
BRANCH  15  17
HETATM   17  C11 UNL     1      25.130   4.681  49.050  1.00  0.00     0.046 C 
BRANCH  17  18
HETATM   18  C12 UNL     1      26.427   4.550  49.279  1.00  0.00    -0.027 C 
HETATM   19  C13 UNL     1      27.581   5.164  48.601  1.00  0.00     0.036 C 
ENDBRANCH  17  18
ENDBRANCH  15  17
ENDBRANCH  14  15
ENDBRANCH  13  14
ENDBRANCH   2  13
BRANCH   4  20
HETATM   20  C14 UNL     1      27.107   1.230  53.280  1.00  0.00     0.192 A 
HETATM   21  N3  UNL     1      27.952   1.977  53.894  1.00  0.00    -0.198 NA
HETATM   22  C15 UNL     1      29.075   1.424  54.317  1.00  0.00     0.171 A 
HETATM   23  C16 UNL     1      29.376   0.012  54.110  1.00  0.00     0.111 A 
HETATM   24  S1  UNL     1      27.831  -0.467  53.214  1.00  0.00    -0.058 SA
BRANCH  22  25
HETATM   25  O1  UNL     1      29.880   2.384  54.965  1.00  0.00    -0.344 OA
HETATM   26  H13 UNL     1      29.778   2.597  55.959  1.00  0.00     0.219 HD
ENDBRANCH  22  25
ENDBRANCH   4  20
TORSDOF 9
ENDMDL
MODEL 4
REMARK VINA RESULT:      -7.3      2.683      4.633
REMARK  9 active torsions:
REMARK  status: ('A' for Active; 'I' for Inactive)
REMARK    1  A    between atoms: C4_4  and  C5_5 
REMARK    2  A    between atoms: C5_5  and  C6_6 
REMARK    3  A    between atoms: C7_7  and  C8_8 
REMARK    4  A    between atoms: C8_8  and  C9_9 
REMARK    5  A    between atoms: C9_9  and  C10_10 
REMARK    6  A    between atoms: C10_10  and  C11_12 
REMARK    7  A    between atoms: C11_12  and  C12_13 
REMARK    8  A    between atoms: N2_16  and  C14_17 
REMARK    9  A    between atoms: C15_19  and  O1_20 
ROOT
HETATM    1  C6  UNL     1      24.438   1.146  53.093  1.00  0.00     0.171 A 
HETATM    2  C7  UNL     1      24.049   1.835  51.838  1.00  0.00     0.087 A 
HETATM    3  N1  UNL     1      25.283   2.144  51.522  1.00  0.00    -0.172 NA
HETATM    4  N2  UNL     1      25.749   1.526  52.665  1.00  0.00    -0.235 N 
ENDROOT
BRANCH   1   5
HETATM    5  C5  UNL     1      24.180  -0.334  53.142  1.00  0.00     0.073 C 
BRANCH   5   6
HETATM    6  C4  UNL     1      22.802  -0.683  53.495  1.00  0.00    -0.016 A 
HETATM    7  C3  UNL     1      21.565  -0.475  53.075  1.00  0.00     0.044 A 
HETATM    8  C2  UNL     1      20.591  -1.143  53.918  1.00  0.00     0.063 A 
HETATM    9  C1  UNL     1      19.292  -1.121  53.755  1.00  0.00     0.051 C 
HETATM   10  O2  UNL     1      21.300  -1.785  54.897  1.00  0.00    -0.313 OA
HETATM   11  C17 UNL     1      22.671  -1.552  54.712  1.00  0.00     0.343 A 
HETATM   12  F2  UNL     1      23.119  -0.811  55.796  1.00  0.00    -0.214 F 
ENDBRANCH   5   6
ENDBRANCH   1   5
BRANCH   2  13
HETATM   13  C8  UNL     1      23.185   2.349  50.804  1.00  0.00     0.089 C 
BRANCH  13  14
HETATM   14  C9  UNL     1      22.359   1.546  50.151  1.00  0.00    -0.085 C 
BRANCH  14  15
HETATM   15  C10 UNL     1      21.291   1.015  49.576  1.00  0.00     0.161 C 
HETATM   16  F1  UNL     1      21.638   0.348  48.483  1.00  0.00    -0.197 F 
BRANCH  15  17
HETATM   17  C11 UNL     1      20.015   1.252  50.212  1.00  0.00     0.046 C 
BRANCH  17  18
HETATM   18  C12 UNL     1      18.927   0.731  50.757  1.00  0.00    -0.027 C 
HETATM   19  C13 UNL     1      17.698   0.218  50.127  1.00  0.00     0.036 C 
ENDBRANCH  17  18
ENDBRANCH  15  17
ENDBRANCH  14  15
ENDBRANCH  13  14
ENDBRANCH   2  13
BRANCH   4  20
HETATM   20  C14 UNL     1      27.033   1.322  53.245  1.00  0.00     0.192 A 
HETATM   21  N3  UNL     1      27.889   2.041  53.876  1.00  0.00    -0.198 NA
HETATM   22  C15 UNL     1      29.013   1.465  54.265  1.00  0.00     0.171 A 
HETATM   23  C16 UNL     1      29.302   0.060  54.005  1.00  0.00     0.111 A 
HETATM   24  S1  UNL     1      27.744  -0.377  53.109  1.00  0.00    -0.058 SA
BRANCH  22  25
HETATM   25  O1  UNL     1      29.833   2.396  54.939  1.00  0.00    -0.344 OA
HETATM   26  H13 UNL     1      29.453   3.241  55.368  1.00  0.00     0.219 HD
ENDBRANCH  22  25
ENDBRANCH   4  20
TORSDOF 9
ENDMDL
MODEL 5
REMARK VINA RESULT:      -7.3      1.704      2.497
REMARK  9 active torsions:
REMARK  status: ('A' for Active; 'I' for Inactive)
REMARK    1  A    between atoms: C4_4  and  C5_5 
REMARK    2  A    between atoms: C5_5  and  C6_6 
REMARK    3  A    between atoms: C7_7  and  C8_8 
REMARK    4  A    between atoms: C8_8  and  C9_9 
REMARK    5  A    between atoms: C9_9  and  C10_10 
REMARK    6  A    between atoms: C10_10  and  C11_12 
REMARK    7  A    between atoms: C11_12  and  C12_13 
REMARK    8  A    between atoms: N2_16  and  C14_17 
REMARK    9  A    between atoms: C15_19  and  O1_20 
ROOT
HETATM    1  C6  UNL     1      24.725   1.341  52.580  1.00  0.00     0.171 A 
HETATM    2  C7  UNL     1      23.722   0.388  53.118  1.00  0.00     0.087 A 
HETATM    3  N1  UNL     1      24.594  -0.242  53.867  1.00  0.00    -0.172 NA
HETATM    4  N2  UNL     1      25.602   0.594  53.430  1.00  0.00    -0.235 N 
ENDROOT
BRANCH   1   5
HETATM    5  C5  UNL     1      24.537   2.784  52.958  1.00  0.00     0.073 C 
BRANCH   5   6
HETATM    6  C4  UNL     1      23.530   3.479  52.154  1.00  0.00    -0.016 A 
HETATM    7  C3  UNL     1      22.231   3.725  52.149  1.00  0.00     0.044 A 
HETATM    8  C2  UNL     1      21.838   4.522  51.001  1.00  0.00     0.063 A 
HETATM    9  C1  UNL     1      20.623   4.923  50.726  1.00  0.00     0.051 C 
HETATM   10  O2  UNL     1      22.980   4.760  50.285  1.00  0.00    -0.313 OA
HETATM   11  C17 UNL     1      24.069   4.151  50.925  1.00  0.00     0.343 A 
HETATM   12  F2  UNL     1      24.542   3.152  50.085  1.00  0.00    -0.214 F 
ENDBRANCH   5   6
ENDBRANCH   1   5
BRANCH   2  13
HETATM   13  C8  UNL     1      22.438  -0.238  53.310  1.00  0.00     0.089 C 
BRANCH  13  14
HETATM   14  C9  UNL     1      21.513  -0.189  52.364  1.00  0.00    -0.085 C 
BRANCH  14  15
HETATM   15  C10 UNL     1      20.689   0.218  51.410  1.00  0.00     0.161 C 
HETATM   16  F1  UNL     1      19.440  -0.122  51.701  1.00  0.00    -0.197 F 
BRANCH  15  17
HETATM   17  C11 UNL     1      21.276   0.918  50.289  1.00  0.00     0.046 C 
BRANCH  17  18
HETATM   18  C12 UNL     1      21.426   0.991  48.976  1.00  0.00    -0.027 C 
HETATM   19  C13 UNL     1      22.199   1.941  48.157  1.00  0.00     0.036 C 
ENDBRANCH  17  18
ENDBRANCH  15  17
ENDBRANCH  14  15
ENDBRANCH  13  14
ENDBRANCH   2  13
BRANCH   4  20
HETATM   20  C14 UNL     1      26.996   0.707  53.690  1.00  0.00     0.192 A 
HETATM   21  N3  UNL     1      27.776   1.594  54.194  1.00  0.00    -0.198 NA
HETATM   22  C15 UNL     1      29.066   1.316  54.264  1.00  0.00     0.171 A 
HETATM   23  C16 UNL     1      29.619   0.051  53.794  1.00  0.00     0.111 A 
HETATM   24  S1  UNL     1      28.048  -0.735  53.217  1.00  0.00    -0.058 SA
BRANCH  22  25
HETATM   25  O1  UNL     1      29.769   2.396  54.840  1.00  0.00    -0.344 OA
HETATM   26  H13 UNL     1      30.612   2.257  55.400  1.00  0.00     0.219 HD
ENDBRANCH  22  25
ENDBRANCH   4  20
TORSDOF 9
ENDMDL
MODEL 6
REMARK VINA RESULT:      -7.2      3.202      6.755
REMARK  9 active torsions:
REMARK  status: ('A' for Active; 'I' for Inactive)
REMARK    1  A    between atoms: C4_4  and  C5_5 
REMARK    2  A    between atoms: C5_5  and  C6_6 
REMARK    3  A    between atoms: C7_7  and  C8_8 
REMARK    4  A    between atoms: C8_8  and  C9_9 
REMARK    5  A    between atoms: C9_9  and  C10_10 
REMARK    6  A    between atoms: C10_10  and  C11_12 
REMARK    7  A    between atoms: C11_12  and  C12_13 
REMARK    8  A    between atoms: N2_16  and  C14_17 
REMARK    9  A    between atoms: C15_19  and  O1_20 
ROOT
HETATM    1  C6  UNL     1      24.802   1.188  51.947  1.00  0.00     0.171 A 
HETATM    2  C7  UNL     1      24.208   2.160  50.996  1.00  0.00     0.087 A 
HETATM    3  N1  UNL     1      22.976   1.877  51.339  1.00  0.00    -0.172 NA
HETATM    4  N2  UNL     1      23.425   0.946  52.255  1.00  0.00    -0.235 N 
ENDROOT
BRANCH   1   5
HETATM    5  C5  UNL     1      25.620   1.771  53.065  1.00  0.00     0.073 C 
BRANCH   5   6
HETATM    6  C4  UNL     1      26.804   0.980  53.406  1.00  0.00    -0.016 A 
HETATM    7  C3  UNL     1      27.914   0.526  52.849  1.00  0.00     0.044 A 
HETATM    8  C2  UNL     1      28.714  -0.240  53.787  1.00  0.00     0.063 A 
HETATM    9  C1  UNL     1      29.862  -0.813  53.527  1.00  0.00     0.051 C 
HETATM   10  O2  UNL     1      28.030  -0.236  54.973  1.00  0.00    -0.313 OA
HETATM   11  C17 UNL     1      26.841   0.492  54.825  1.00  0.00     0.343 A 
HETATM   12  F2  UNL     1      25.785  -0.396  54.981  1.00  0.00    -0.214 F 
ENDBRANCH   5   6
ENDBRANCH   1   5
BRANCH   2  13
HETATM   13  C8  UNL     1      24.161   3.177  49.975  1.00  0.00     0.089 C 
BRANCH  13  14
HETATM   14  C9  UNL     1      25.166   4.024  49.816  1.00  0.00    -0.085 C 
BRANCH  14  15
HETATM   15  C10 UNL     1      25.911   5.117  49.758  1.00  0.00     0.161 C 
HETATM   16  F1  UNL     1      25.412   6.060  50.547  1.00  0.00    -0.197 F 
BRANCH  15  17
HETATM   17  C11 UNL     1      27.066   5.081  48.888  1.00  0.00     0.046 C 
BRANCH  17  18
HETATM   18  C12 UNL     1      28.006   5.764  48.256  1.00  0.00    -0.027 C 
HETATM   19  C13 UNL     1      29.462   5.552  48.199  1.00  0.00     0.036 C 
ENDBRANCH  17  18
ENDBRANCH  15  17
ENDBRANCH  14  15
ENDBRANCH  13  14
ENDBRANCH   2  13
BRANCH   4  20
HETATM   20  C14 UNL     1      22.800   0.058  53.175  1.00  0.00     0.192 A 
HETATM   21  N3  UNL     1      23.171  -0.642  54.185  1.00  0.00    -0.198 NA
HETATM   22  C15 UNL     1      22.258  -1.371  54.802  1.00  0.00     0.171 A 
HETATM   23  C16 UNL     1      20.863  -1.400  54.376  1.00  0.00     0.111 A 
HETATM   24  S1  UNL     1      20.991  -0.235  52.946  1.00  0.00    -0.058 SA
BRANCH  22  25
HETATM   25  O1  UNL     1      22.837  -2.071  55.881  1.00  0.00    -0.344 OA
HETATM   26  H13 UNL     1      23.174  -1.594  56.719  1.00  0.00     0.219 HD
ENDBRANCH  22  25
ENDBRANCH   4  20
TORSDOF 9
ENDMDL
MODEL 7
REMARK VINA RESULT:      -7.2      2.709      4.852
REMARK  9 active torsions:
REMARK  status: ('A' for Active; 'I' for Inactive)
REMARK    1  A    between atoms: C4_4  and  C5_5 
REMARK    2  A    between atoms: C5_5  and  C6_6 
REMARK    3  A    between atoms: C7_7  and  C8_8 
REMARK    4  A    between atoms: C8_8  and  C9_9 
REMARK    5  A    between atoms: C9_9  and  C10_10 
REMARK    6  A    between atoms: C10_10  and  C11_12 
REMARK    7  A    between atoms: C11_12  and  C12_13 
REMARK    8  A    between atoms: N2_16  and  C14_17 
REMARK    9  A    between atoms: C15_19  and  O1_20 
ROOT
HETATM    1  C6  UNL     1      24.896   0.305  53.598  1.00  0.00     0.171 A 
HETATM    2  C7  UNL     1      24.691   1.547  52.811  1.00  0.00     0.087 A 
HETATM    3  N1  UNL     1      25.931   1.589  52.389  1.00  0.00    -0.172 NA
HETATM    4  N2  UNL     1      26.226   0.434  53.086  1.00  0.00    -0.235 N 
ENDROOT
BRANCH   1   5
HETATM    5  C5  UNL     1      24.140  -0.907  53.131  1.00  0.00     0.073 C 
BRANCH   5   6
HETATM    6  C4  UNL     1      22.691  -0.809  53.320  1.00  0.00    -0.016 A 
HETATM    7  C3  UNL     1      21.631  -0.256  52.756  1.00  0.00     0.044 A 
HETATM    8  C2  UNL     1      20.412  -0.564  53.481  1.00  0.00     0.063 A 
HETATM    9  C1  UNL     1      19.209  -0.158  53.165  1.00  0.00     0.051 C 
HETATM   10  O2  UNL     1      20.779  -1.349  54.540  1.00  0.00    -0.313 OA
HETATM   11  C17 UNL     1      22.167  -1.548  54.517  1.00  0.00     0.343 A 
HETATM   12  F2  UNL     1      22.697  -0.932  55.643  1.00  0.00    -0.214 F 
ENDBRANCH   5   6
ENDBRANCH   1   5
BRANCH   2  13
HETATM   13  C8  UNL     1      23.995   2.681  52.256  1.00  0.00     0.089 C 
BRANCH  13  14
HETATM   14  C9  UNL     1      23.598   2.678  50.992  1.00  0.00    -0.085 C 
BRANCH  14  15
HETATM   15  C10 UNL     1      22.965   2.419  49.858  1.00  0.00     0.161 C 
HETATM   16  F1  UNL     1      23.675   2.848  48.823  1.00  0.00    -0.197 F 
BRANCH  15  17
HETATM   17  C11 UNL     1      21.685   1.755  49.957  1.00  0.00     0.046 C 
BRANCH  17  18
HETATM   18  C12 UNL     1      20.631   1.266  49.323  1.00  0.00    -0.027 C 
HETATM   19  C13 UNL     1      19.215   1.220  49.724  1.00  0.00     0.036 C 
ENDBRANCH  17  18
ENDBRANCH  15  17
ENDBRANCH  14  15
ENDBRANCH  13  14
ENDBRANCH   2  13
BRANCH   4  20
HETATM   20  C14 UNL     1      27.393  -0.361  53.264  1.00  0.00     0.192 A 
HETATM   21  N3  UNL     1      27.671  -1.614  53.248  1.00  0.00    -0.198 NA
HETATM   22  C15 UNL     1      28.924  -1.973  53.470  1.00  0.00     0.171 A 
HETATM   23  C16 UNL     1      29.980  -1.002  53.726  1.00  0.00     0.111 A 
HETATM   24  S1  UNL     1      28.966   0.540  53.616  1.00  0.00    -0.058 SA
BRANCH  22  25
HETATM   25  O1  UNL     1      29.048  -3.377  53.416  1.00  0.00    -0.344 OA
HETATM   26  H13 UNL     1      29.946  -3.848  53.542  1.00  0.00     0.219 HD
ENDBRANCH  22  25
ENDBRANCH   4  20
TORSDOF 9
ENDMDL
MODEL 8
REMARK VINA RESULT:      -7.1      3.199      6.716
REMARK  9 active torsions:
REMARK  status: ('A' for Active; 'I' for Inactive)
REMARK    1  A    between atoms: C4_4  and  C5_5 
REMARK    2  A    between atoms: C5_5  and  C6_6 
REMARK    3  A    between atoms: C7_7  and  C8_8 
REMARK    4  A    between atoms: C8_8  and  C9_9 
REMARK    5  A    between atoms: C9_9  and  C10_10 
REMARK    6  A    between atoms: C10_10  and  C11_12 
REMARK    7  A    between atoms: C11_12  and  C12_13 
REMARK    8  A    between atoms: N2_16  and  C14_17 
REMARK    9  A    between atoms: C15_19  and  O1_20 
ROOT
HETATM    1  C6  UNL     1      25.131   2.318  51.848  1.00  0.00     0.171 A 
HETATM    2  C7  UNL     1      25.625   3.285  50.837  1.00  0.00     0.087 A 
HETATM    3  N1  UNL     1      26.813   2.737  50.764  1.00  0.00    -0.172 NA
HETATM    4  N2  UNL     1      26.452   1.788  51.700  1.00  0.00    -0.235 N 
ENDROOT
BRANCH   1   5
HETATM    5  C5  UNL     1      24.018   1.409  51.405  1.00  0.00     0.073 C 
BRANCH   5   6
HETATM    6  C4  UNL     1      23.393   0.663  52.499  1.00  0.00    -0.016 A 
HETATM    7  C3  UNL     1      23.717  -0.176  53.468  1.00  0.00     0.044 A 
HETATM    8  C2  UNL     1      22.560  -0.567  54.252  1.00  0.00     0.063 A 
HETATM    9  C1  UNL     1      22.568  -1.384  55.275  1.00  0.00     0.051 C 
HETATM   10  O2  UNL     1      21.485   0.083  53.708  1.00  0.00    -0.313 OA
HETATM   11  C17 UNL     1      21.910   0.862  52.621  1.00  0.00     0.343 A 
HETATM   12  F2  UNL     1      21.329   0.333  51.477  1.00  0.00    -0.214 F 
ENDBRANCH   5   6
ENDBRANCH   1   5
BRANCH   2  13
HETATM   13  C8  UNL     1      25.598   4.406  49.930  1.00  0.00     0.089 C 
BRANCH  13  14
HETATM   14  C9  UNL     1      26.656   4.707  49.194  1.00  0.00    -0.085 C 
BRANCH  14  15
HETATM   15  C10 UNL     1      27.591   5.353  48.514  1.00  0.00     0.161 C 
HETATM   16  F1  UNL     1      28.559   4.522  48.152  1.00  0.00    -0.197 F 
BRANCH  15  17
HETATM   17  C11 UNL     1      27.392   6.771  48.308  1.00  0.00     0.046 C 
BRANCH  17  18
HETATM   18  C12 UNL     1      27.285   7.767  47.443  1.00  0.00    -0.027 C 
HETATM   19  C13 UNL     1      28.122   8.116  46.284  1.00  0.00     0.036 C 
ENDBRANCH  17  18
ENDBRANCH  15  17
ENDBRANCH  14  15
ENDBRANCH  13  14
ENDBRANCH   2  13
BRANCH   4  20
HETATM   20  C14 UNL     1      27.107   0.686  52.318  1.00  0.00     0.192 A 
HETATM   21  N3  UNL     1      26.997  -0.593  52.289  1.00  0.00    -0.198 NA
HETATM   22  C15 UNL     1      27.823  -1.302  53.038  1.00  0.00     0.171 A 
HETATM   23  C16 UNL     1      28.841  -0.684  53.879  1.00  0.00     0.111 A 
HETATM   24  S1  UNL     1      28.485   1.087  53.480  1.00  0.00    -0.058 SA
BRANCH  22  25
HETATM   25  O1  UNL     1      27.562  -2.680  52.885  1.00  0.00    -0.344 OA
HETATM   26  H13 UNL     1      28.217  -3.395  53.204  1.00  0.00     0.219 HD
ENDBRANCH  22  25
ENDBRANCH   4  20
TORSDOF 9
ENDMDL
MODEL 9
REMARK VINA RESULT:      -6.9      2.916      5.553
REMARK  9 active torsions:
REMARK  status: ('A' for Active; 'I' for Inactive)
REMARK    1  A    between atoms: C4_4  and  C5_5 
REMARK    2  A    between atoms: C5_5  and  C6_6 
REMARK    3  A    between atoms: C7_7  and  C8_8 
REMARK    4  A    between atoms: C8_8  and  C9_9 
REMARK    5  A    between atoms: C9_9  and  C10_10 
REMARK    6  A    between atoms: C10_10  and  C11_12 
REMARK    7  A    between atoms: C11_12  and  C12_13 
REMARK    8  A    between atoms: N2_16  and  C14_17 
REMARK    9  A    between atoms: C15_19  and  O1_20 
ROOT
HETATM    1  C6  UNL     1      25.117   2.501  51.683  1.00  0.00     0.171 A 
HETATM    2  C7  UNL     1      25.706   3.482  50.737  1.00  0.00     0.087 A 
HETATM    3  N1  UNL     1      26.886   2.912  50.744  1.00  0.00    -0.172 NA
HETATM    4  N2  UNL     1      26.437   1.950  51.626  1.00  0.00    -0.235 N 
ENDROOT
BRANCH   1   5
HETATM    5  C5  UNL     1      24.028   1.624  51.134  1.00  0.00     0.073 C 
BRANCH   5   6
HETATM    6  C4  UNL     1      23.252   0.929  52.163  1.00  0.00    -0.016 A 
HETATM    7  C3  UNL     1      23.433   0.263  53.291  1.00  0.00     0.044 A 
HETATM    8  C2  UNL     1      22.177  -0.195  53.855  1.00  0.00     0.063 A 
HETATM    9  C1  UNL     1      22.037  -0.878  54.963  1.00  0.00     0.051 C 
HETATM   10  O2  UNL     1      21.193   0.230  53.003  1.00  0.00    -0.313 OA
HETATM   11  C17 UNL     1      21.769   0.929  51.933  1.00  0.00     0.343 A 
HETATM   12  F2  UNL     1      21.533   0.194  50.779  1.00  0.00    -0.214 F 
ENDBRANCH   5   6
ENDBRANCH   1   5
BRANCH   2  13
HETATM   13  C8  UNL     1      25.769   4.623  49.858  1.00  0.00     0.089 C 
BRANCH  13  14
HETATM   14  C9  UNL     1      24.731   4.959  49.109  1.00  0.00    -0.085 C 
BRANCH  14  15
HETATM   15  C10 UNL     1      23.506   5.209  48.672  1.00  0.00     0.161 C 
HETATM   16  F1  UNL     1      23.549   5.961  47.579  1.00  0.00    -0.197 F 
BRANCH  15  17
HETATM   17  C11 UNL     1      22.409   4.647  49.428  1.00  0.00     0.046 C 
BRANCH  17  18
HETATM   18  C12 UNL     1      21.846   4.475  50.613  1.00  0.00    -0.027 C 
HETATM   19  C13 UNL     1      22.267   4.940  51.945  1.00  0.00     0.036 C 
ENDBRANCH  17  18
ENDBRANCH  15  17
ENDBRANCH  14  15
ENDBRANCH  13  14
ENDBRANCH   2  13
BRANCH   4  20
HETATM   20  C14 UNL     1      27.023   0.822  52.267  1.00  0.00     0.192 A 
HETATM   21  N3  UNL     1      26.868  -0.451  52.226  1.00  0.00    -0.198 NA
HETATM   22  C15 UNL     1      27.633  -1.194  53.008  1.00  0.00     0.171 A 
HETATM   23  C16 UNL     1      28.631  -0.616  53.900  1.00  0.00     0.111 A 
HETATM   24  S1  UNL     1      28.357   1.168  53.496  1.00  0.00    -0.058 SA
BRANCH  22  25
HETATM   25  O1  UNL     1      27.330  -2.561  52.834  1.00  0.00    -0.344 OA
HETATM   26  H13 UNL     1      27.607  -3.075  51.996  1.00  0.00     0.219 HD
ENDBRANCH  22  25
ENDBRANCH   4  20
TORSDOF 9
ENDMDL
