MODEL 1
REMARK VINA RESULT:      -7.5      0.000      0.000
REMARK  8 active torsions:
REMARK  status: ('A' for Active; 'I' for Inactive)
REMARK    1  A    between atoms: C2_2  and  N3_9 
REMARK    2  A    between atoms: N1_3  and  C3_4 
REMARK    3  A    between atoms: N2_5  and  C4_6 
REMARK    4  A    between atoms: C4_6  and  O1_7 
REMARK    5  A    between atoms: N3_9  and  C5_10 
REMARK    6  A    between atoms: C8_13  and  O2_14 
REMARK    7  A    between atoms: O2_14  and  C9_15 
REMARK    8  A    between atoms: C9_15  and  C10_16 
ROOT
HETATM    1  C5  UNL     1      24.894   2.067  53.189  1.00  0.00     0.035 A 
HETATM    2  C6  UNL     1      24.342   2.745  52.127  1.00  0.00     0.032 A 
HETATM    3  C7  UNL     1      23.308   2.281  51.377  1.00  0.00     0.041 A 
HETATM    4  C8  UNL     1      22.735   1.071  51.641  1.00  0.00     0.091 A 
HETATM    5  C16 UNL     1      23.237   0.344  52.687  1.00  0.00     0.069 A 
HETATM    6 CL1  UNL     1      22.533  -1.218  53.067  1.00  0.00    -0.081 Cl
HETATM    7  C17 UNL     1      24.286   0.838  53.433  1.00  0.00     0.056 A 
ENDROOT
BRANCH   1   8
HETATM    8  N3  UNL     1      25.972   2.495  54.007  1.00  0.00    -0.345 N 
HETATM    9  H7  UNL     1      25.827   3.345  54.610  1.00  0.00     0.167 HD
BRANCH   8  10
HETATM   10  C2  UNL     1      27.228   1.839  54.045  1.00  0.00     0.101 C 
HETATM   11  C1  UNL     1      28.327   2.321  53.147  1.00  0.00     0.091 C 
HETATM   12  N1  UNL     1      27.324   0.845  54.881  1.00  0.00    -0.229 NA
BRANCH  12  13
HETATM   13  C3  UNL     1      28.564   0.153  54.959  1.00  0.00     0.231 C 
HETATM   14  N2  UNL     1      29.316  -0.690  54.388  1.00  0.00    -0.254 NA
BRANCH  14  15
HETATM   15  C4  UNL     1      28.979  -1.338  53.146  1.00  0.00     0.365 C 
BRANCH  15  16
HETATM   16  O1  UNL     1      27.761  -2.013  53.286  1.00  0.00    -0.177 OA
HETATM   17  F1  UNL     1      27.785  -3.128  52.596  1.00  0.00    -0.046 F 
ENDBRANCH  15  16
ENDBRANCH  14  15
ENDBRANCH  12  13
ENDBRANCH   8  10
ENDBRANCH   1   8
BRANCH   4  18
HETATM   18  O2  UNL     1      21.683   0.547  50.915  1.00  0.00    -0.345 OA
BRANCH  18  19
HETATM   19  C9  UNL     1      20.557   1.370  50.694  1.00  0.00     0.214 C 
BRANCH  19  20
HETATM   20  C10 UNL     1      19.338   0.592  51.093  1.00  0.00    -0.034 A 
HETATM   21  C11 UNL     1      18.185   0.461  50.326  1.00  0.00     0.009 A 
HETATM   22  C12 UNL     1      17.137  -0.288  50.822  1.00  0.00     0.001 A 
HETATM   23  C13 UNL     1      17.209  -0.901  52.046  1.00  0.00     0.000 A 
HETATM   24  C14 UNL     1      18.341  -0.778  52.808  1.00  0.00     0.001 A 
HETATM   25  C15 UNL     1      19.397  -0.027  52.319  1.00  0.00     0.009 A 
ENDBRANCH  19  20
ENDBRANCH  18  19
ENDBRANCH   4  18
TORSDOF 8
ENDMDL
MODEL 2
REMARK VINA RESULT:      -7.3      3.821      6.429
REMARK  8 active torsions:
REMARK  status: ('A' for Active; 'I' for Inactive)
REMARK    1  A    between atoms: C2_2  and  N3_9 
REMARK    2  A    between atoms: N1_3  and  C3_4 
REMARK    3  A    between atoms: N2_5  and  C4_6 
REMARK    4  A    between atoms: C4_6  and  O1_7 
REMARK    5  A    between atoms: N3_9  and  C5_10 
REMARK    6  A    between atoms: C8_13  and  O2_14 
REMARK    7  A    between atoms: O2_14  and  C9_15 
REMARK    8  A    between atoms: C9_15  and  C10_16 
ROOT
HETATM    1  C5  UNL     1      23.699   1.412  52.421  1.00  0.00     0.035 A 
HETATM    2  C6  UNL     1      23.877   2.641  53.011  1.00  0.00     0.032 A 
HETATM    3  C7  UNL     1      23.848   3.824  52.342  1.00  0.00     0.041 A 
HETATM    4  C8  UNL     1      23.634   3.864  50.995  1.00  0.00     0.091 A 
HETATM    5  C16 UNL     1      23.449   2.674  50.343  1.00  0.00     0.069 A 
HETATM    6 CL1  UNL     1      23.169   2.674  48.611  1.00  0.00    -0.081 Cl
HETATM    7  C17 UNL     1      23.482   1.488  51.046  1.00  0.00     0.056 A 
ENDROOT
BRANCH   1   8
HETATM    8  N3  UNL     1      23.721   0.146  53.062  1.00  0.00    -0.345 N 
HETATM    9  H7  UNL     1      22.911  -0.505  52.896  1.00  0.00     0.167 HD
BRANCH   8  10
HETATM   10  C2  UNL     1      24.773  -0.278  53.912  1.00  0.00     0.101 C 
HETATM   11  C1  UNL     1      24.440  -1.072  55.139  1.00  0.00     0.091 C 
HETATM   12  N1  UNL     1      25.974   0.068  53.546  1.00  0.00    -0.229 NA
BRANCH  12  13
HETATM   13  C3  UNL     1      27.065  -0.333  54.365  1.00  0.00     0.231 C 
HETATM   14  N2  UNL     1      28.275  -0.108  54.659  1.00  0.00    -0.254 NA
BRANCH  14  15
HETATM   15  C4  UNL     1      29.063   0.926  54.037  1.00  0.00     0.365 C 
BRANCH  15  16
HETATM   16  O1  UNL     1      28.794   2.153  54.653  1.00  0.00    -0.177 OA
HETATM   17  F1  UNL     1      28.139   2.934  53.828  1.00  0.00    -0.046 F 
ENDBRANCH  15  16
ENDBRANCH  14  15
ENDBRANCH  12  13
ENDBRANCH   8  10
ENDBRANCH   1   8
BRANCH   4  18
HETATM   18  O2  UNL     1      23.594   5.033  50.260  1.00  0.00    -0.345 OA
BRANCH  18  19
HETATM   19  C9  UNL     1      24.498   6.062  50.605  1.00  0.00     0.214 C 
BRANCH  19  20
HETATM   20  C10 UNL     1      25.741   5.869  49.789  1.00  0.00    -0.034 A 
HETATM   21  C11 UNL     1      26.350   4.644  49.533  1.00  0.00     0.009 A 
HETATM   22  C12 UNL     1      27.495   4.617  48.763  1.00  0.00     0.001 A 
HETATM   23  C13 UNL     1      28.041   5.764  48.248  1.00  0.00     0.000 A 
HETATM   24  C14 UNL     1      27.449   6.975  48.495  1.00  0.00     0.001 A 
HETATM   25  C15 UNL     1      26.300   7.012  49.268  1.00  0.00     0.009 A 
ENDBRANCH  19  20
ENDBRANCH  18  19
ENDBRANCH   4  18
TORSDOF 8
ENDMDL
MODEL 3
REMARK VINA RESULT:      -7.3      2.675      3.715
REMARK  8 active torsions:
REMARK  status: ('A' for Active; 'I' for Inactive)
REMARK    1  A    between atoms: C2_2  and  N3_9 
REMARK    2  A    between atoms: N1_3  and  C3_4 
REMARK    3  A    between atoms: N2_5  and  C4_6 
REMARK    4  A    between atoms: C4_6  and  O1_7 
REMARK    5  A    between atoms: N3_9  and  C5_10 
REMARK    6  A    between atoms: C8_13  and  O2_14 
REMARK    7  A    between atoms: O2_14  and  C9_15 
REMARK    8  A    between atoms: C9_15  and  C10_16 
ROOT
HETATM    1  C5  UNL     1      23.976  -0.119  53.668  1.00  0.00     0.035 A 
HETATM    2  C6  UNL     1      24.076   1.137  53.118  1.00  0.00     0.032 A 
HETATM    3  C7  UNL     1      23.019   1.862  52.667  1.00  0.00     0.041 A 
HETATM    4  C8  UNL     1      21.749   1.369  52.735  1.00  0.00     0.091 A 
HETATM    5  C16 UNL     1      21.577   0.122  53.273  1.00  0.00     0.069 A 
HETATM    6 CL1  UNL     1      19.963  -0.556  53.383  1.00  0.00    -0.081 Cl
HETATM    7  C17 UNL     1      22.667  -0.593  53.723  1.00  0.00     0.056 A 
ENDROOT
BRANCH   1   8
HETATM    8  N3  UNL     1      25.039  -0.926  54.152  1.00  0.00    -0.345 N 
HETATM    9  H7  UNL     1      24.794  -1.763  54.741  1.00  0.00     0.167 HD
BRANCH   8  10
HETATM   10  C2  UNL     1      26.405  -0.657  53.884  1.00  0.00     0.101 C 
HETATM   11  C1  UNL     1      26.954  -0.968  52.525  1.00  0.00     0.091 C 
HETATM   12  N1  UNL     1      27.087  -0.148  54.870  1.00  0.00    -0.229 NA
BRANCH  12  13
HETATM   13  C3  UNL     1      28.463   0.140  54.653  1.00  0.00     0.231 C 
HETATM   14  N2  UNL     1      29.289   1.026  54.286  1.00  0.00    -0.254 NA
BRANCH  14  15
HETATM   15  C4  UNL     1      28.899   2.353  53.879  1.00  0.00     0.365 C 
BRANCH  15  16
HETATM   16  O1  UNL     1      28.367   2.308  52.585  1.00  0.00    -0.177 OA
HETATM   17  F1  UNL     1      27.072   2.502  52.627  1.00  0.00    -0.046 F 
ENDBRANCH  15  16
ENDBRANCH  14  15
ENDBRANCH  12  13
ENDBRANCH   8  10
ENDBRANCH   1   8
BRANCH   4  18
HETATM   18  O2  UNL     1      20.635   2.057  52.294  1.00  0.00    -0.345 OA
BRANCH  18  19
HETATM   19  C9  UNL     1      20.839   3.276  51.610  1.00  0.00     0.214 C 
BRANCH  19  20
HETATM   20  C10 UNL     1      21.410   2.953  50.261  1.00  0.00    -0.034 A 
HETATM   21  C11 UNL     1      22.384   3.699  49.604  1.00  0.00     0.009 A 
HETATM   22  C12 UNL     1      22.817   3.281  48.362  1.00  0.00     0.001 A 
HETATM   23  C13 UNL     1      22.310   2.155  47.766  1.00  0.00     0.000 A 
HETATM   24  C14 UNL     1      21.352   1.414  48.406  1.00  0.00     0.001 A 
HETATM   25  C15 UNL     1      20.910   1.826  49.653  1.00  0.00     0.009 A 
ENDBRANCH  19  20
ENDBRANCH  18  19
ENDBRANCH   4  18
TORSDOF 8
ENDMDL
MODEL 4
REMARK VINA RESULT:      -7.3      4.429      7.272
REMARK  8 active torsions:
REMARK  status: ('A' for Active; 'I' for Inactive)
REMARK    1  A    between atoms: C2_2  and  N3_9 
REMARK    2  A    between atoms: N1_3  and  C3_4 
REMARK    3  A    between atoms: N2_5  and  C4_6 
REMARK    4  A    between atoms: C4_6  and  O1_7 
REMARK    5  A    between atoms: N3_9  and  C5_10 
REMARK    6  A    between atoms: C8_13  and  O2_14 
REMARK    7  A    between atoms: O2_14  and  C9_15 
REMARK    8  A    between atoms: C9_15  and  C10_16 
ROOT
HETATM    1  C5  UNL     1      24.954   1.794  51.545  1.00  0.00     0.035 A 
HETATM    2  C6  UNL     1      26.157   2.175  50.997  1.00  0.00     0.032 A 
HETATM    3  C7  UNL     1      26.309   3.204  50.123  1.00  0.00     0.041 A 
HETATM    4  C8  UNL     1      25.238   3.948  49.721  1.00  0.00     0.091 A 
HETATM    5  C16 UNL     1      24.009   3.622  50.229  1.00  0.00     0.069 A 
HETATM    6 CL1  UNL     1      22.602   4.550  49.742  1.00  0.00    -0.081 Cl
HETATM    7  C17 UNL     1      23.883   2.573  51.115  1.00  0.00     0.056 A 
ENDROOT
BRANCH   1   8
HETATM    8  N3  UNL     1      24.731   0.730  52.457  1.00  0.00    -0.345 N 
HETATM    9  H7  UNL     1      23.739   0.416  52.616  1.00  0.00     0.167 HD
BRANCH   8  10
HETATM   10  C2  UNL     1      25.773   0.076  53.162  1.00  0.00     0.101 C 
HETATM   11  C1  UNL     1      26.262  -1.252  52.669  1.00  0.00     0.091 C 
HETATM   12  N1  UNL     1      26.230   0.702  54.208  1.00  0.00    -0.229 NA
BRANCH  12  13
HETATM   13  C3  UNL     1      27.277   0.089  54.950  1.00  0.00     0.231 C 
HETATM   14  N2  UNL     1      28.520  -0.147  54.985  1.00  0.00    -0.254 NA
BRANCH  14  15
HETATM   15  C4  UNL     1      29.437   0.287  53.962  1.00  0.00     0.365 C 
BRANCH  15  16
HETATM   16  O1  UNL     1      30.292  -0.768  53.622  1.00  0.00    -0.177 OA
HETATM   17  F1  UNL     1      29.603  -1.750  53.095  1.00  0.00    -0.046 F 
ENDBRANCH  15  16
ENDBRANCH  14  15
ENDBRANCH  12  13
ENDBRANCH   8  10
ENDBRANCH   1   8
BRANCH   4  18
HETATM   18  O2  UNL     1      25.329   5.005  48.837  1.00  0.00    -0.345 OA
BRANCH  18  19
HETATM   19  C9  UNL     1      25.853   6.226  49.317  1.00  0.00     0.214 C 
BRANCH  19  20
HETATM   20  C10 UNL     1      27.054   6.566  48.486  1.00  0.00    -0.034 A 
HETATM   21  C11 UNL     1      28.243   5.843  48.462  1.00  0.00     0.009 A 
HETATM   22  C12 UNL     1      29.269   6.274  47.646  1.00  0.00     0.001 A 
HETATM   23  C13 UNL     1      29.141   7.393  46.863  1.00  0.00     0.000 A 
HETATM   24  C14 UNL     1      27.974   8.111  46.879  1.00  0.00     0.001 A 
HETATM   25  C15 UNL     1      26.939   7.686  47.696  1.00  0.00     0.009 A 
ENDBRANCH  19  20
ENDBRANCH  18  19
ENDBRANCH   4  18
TORSDOF 8
ENDMDL
MODEL 5
REMARK VINA RESULT:      -7.2      1.917      2.147
REMARK  8 active torsions:
REMARK  status: ('A' for Active; 'I' for Inactive)
REMARK    1  A    between atoms: C2_2  and  N3_9 
REMARK    2  A    between atoms: N1_3  and  C3_4 
REMARK    3  A    between atoms: N2_5  and  C4_6 
REMARK    4  A    between atoms: C4_6  and  O1_7 
REMARK    5  A    between atoms: N3_9  and  C5_10 
REMARK    6  A    between atoms: C8_13  and  O2_14 
REMARK    7  A    between atoms: O2_14  and  C9_15 
REMARK    8  A    between atoms: C9_15  and  C10_16 
ROOT
HETATM    1  C5  UNL     1      25.424   2.824  51.696  1.00  0.00     0.035 A 
HETATM    2  C6  UNL     1      24.535   3.130  52.699  1.00  0.00     0.032 A 
HETATM    3  C7  UNL     1      23.192   3.238  52.527  1.00  0.00     0.041 A 
HETATM    4  C8  UNL     1      22.623   3.043  51.302  1.00  0.00     0.091 A 
HETATM    5  C16 UNL     1      23.452   2.734  50.256  1.00  0.00     0.069 A 
HETATM    6 CL1  UNL     1      22.768   2.474  48.662  1.00  0.00    -0.081 Cl
HETATM    7  C17 UNL     1      24.812   2.630  50.459  1.00  0.00     0.056 A 
ENDROOT
BRANCH   1   8
HETATM    8  N3  UNL     1      26.833   2.700  51.812  1.00  0.00    -0.345 N 
HETATM    9  H7  UNL     1      27.431   3.174  51.087  1.00  0.00     0.167 HD
BRANCH   8  10
HETATM   10  C2  UNL     1      27.468   1.970  52.847  1.00  0.00     0.101 C 
HETATM   11  C1  UNL     1      28.640   2.581  53.554  1.00  0.00     0.091 C 
HETATM   12  N1  UNL     1      26.966   0.797  53.106  1.00  0.00    -0.229 NA
BRANCH  12  13
HETATM   13  C3  UNL     1      27.567   0.023  54.137  1.00  0.00     0.231 C 
HETATM   14  N2  UNL     1      28.437  -0.858  54.396  1.00  0.00    -0.254 NA
BRANCH  14  15
HETATM   15  C4  UNL     1      29.273  -1.464  53.391  1.00  0.00     0.365 C 
BRANCH  15  16
HETATM   16  O1  UNL     1      28.963  -2.825  53.283  1.00  0.00    -0.177 OA
HETATM   17  F1  UNL     1      27.795  -2.973  52.706  1.00  0.00    -0.046 F 
ENDBRANCH  15  16
ENDBRANCH  14  15
ENDBRANCH  12  13
ENDBRANCH   8  10
ENDBRANCH   1   8
BRANCH   4  18
HETATM   18  O2  UNL     1      21.266   3.139  51.064  1.00  0.00    -0.345 OA
BRANCH  18  19
HETATM   19  C9  UNL     1      20.399   3.167  52.179  1.00  0.00     0.214 C 
BRANCH  19  20
HETATM   20  C10 UNL     1      19.751   1.819  52.287  1.00  0.00    -0.034 A 
HETATM   21  C11 UNL     1      18.635   1.406  51.565  1.00  0.00     0.009 A 
HETATM   22  C12 UNL     1      18.145   0.132  51.768  1.00  0.00     0.001 A 
HETATM   23  C13 UNL     1      18.731  -0.729  52.660  1.00  0.00     0.000 A 
HETATM   24  C14 UNL     1      19.830  -0.332  53.374  1.00  0.00     0.001 A 
HETATM   25  C15 UNL     1      20.329   0.946  53.178  1.00  0.00     0.009 A 
ENDBRANCH  19  20
ENDBRANCH  18  19
ENDBRANCH   4  18
TORSDOF 8
ENDMDL
MODEL 6
REMARK VINA RESULT:      -7.2      2.030      2.657
REMARK  8 active torsions:
REMARK  status: ('A' for Active; 'I' for Inactive)
REMARK    1  A    between atoms: C2_2  and  N3_9 
REMARK    2  A    between atoms: N1_3  and  C3_4 
REMARK    3  A    between atoms: N2_5  and  C4_6 
REMARK    4  A    between atoms: C4_6  and  O1_7 
REMARK    5  A    between atoms: N3_9  and  C5_10 
REMARK    6  A    between atoms: C8_13  and  O2_14 
REMARK    7  A    between atoms: O2_14  and  C9_15 
REMARK    8  A    between atoms: C9_15  and  C10_16 
ROOT
HETATM    1  C5  UNL     1      24.330  -0.465  53.711  1.00  0.00     0.035 A 
HETATM    2  C6  UNL     1      24.326   0.474  52.707  1.00  0.00     0.032 A 
HETATM    3  C7  UNL     1      23.215   1.124  52.270  1.00  0.00     0.041 A 
HETATM    4  C8  UNL     1      21.993   0.873  52.821  1.00  0.00     0.091 A 
HETATM    5  C16 UNL     1      21.925  -0.052  53.828  1.00  0.00     0.069 A 
HETATM    6 CL1  UNL     1      20.375  -0.408  54.569  1.00  0.00    -0.081 Cl
HETATM    7  C17 UNL     1      23.067  -0.697  54.253  1.00  0.00     0.056 A 
ENDROOT
BRANCH   1   8
HETATM    8  N3  UNL     1      25.452  -1.178  54.208  1.00  0.00    -0.345 N 
HETATM    9  H7  UNL     1      25.273  -2.053  54.765  1.00  0.00     0.167 HD
BRANCH   8  10
HETATM   10  C2  UNL     1      26.792  -0.769  53.995  1.00  0.00     0.101 C 
HETATM   11  C1  UNL     1      27.490  -1.191  52.737  1.00  0.00     0.091 C 
HETATM   12  N1  UNL     1      27.319  -0.039  54.935  1.00  0.00    -0.229 NA
BRANCH  12  13
HETATM   13  C3  UNL     1      28.662   0.399  54.770  1.00  0.00     0.231 C 
HETATM   14  N2  UNL     1      29.401   1.333  54.340  1.00  0.00    -0.254 NA
BRANCH  14  15
HETATM   15  C4  UNL     1      28.886   2.534  53.733  1.00  0.00     0.365 C 
BRANCH  15  16
HETATM   16  O1  UNL     1      28.253   2.214  52.526  1.00  0.00    -0.177 OA
HETATM   17  F1  UNL     1      26.967   2.452  52.618  1.00  0.00    -0.046 F 
ENDBRANCH  15  16
ENDBRANCH  14  15
ENDBRANCH  12  13
ENDBRANCH   8  10
ENDBRANCH   1   8
BRANCH   4  18
HETATM   18  O2  UNL     1      20.829   1.501  52.420  1.00  0.00    -0.345 OA
BRANCH  18  19
HETATM   19  C9  UNL     1      20.478   1.433  51.054  1.00  0.00     0.214 C 
BRANCH  19  20
HETATM   20  C10 UNL     1      19.121   0.799  50.962  1.00  0.00    -0.034 A 
HETATM   21  C11 UNL     1      18.629  -0.170  51.832  1.00  0.00     0.009 A 
HETATM   22  C12 UNL     1      17.357  -0.665  51.626  1.00  0.00     0.001 A 
HETATM   23  C13 UNL     1      16.574  -0.224  50.589  1.00  0.00     0.000 A 
HETATM   24  C14 UNL     1      17.050   0.730  49.729  1.00  0.00     0.001 A 
HETATM   25  C15 UNL     1      18.326   1.232  49.927  1.00  0.00     0.009 A 
ENDBRANCH  19  20
ENDBRANCH  18  19
ENDBRANCH   4  18
TORSDOF 8
ENDMDL
MODEL 7
REMARK VINA RESULT:      -7.1      2.305      3.657
REMARK  8 active torsions:
REMARK  status: ('A' for Active; 'I' for Inactive)
REMARK    1  A    between atoms: C2_2  and  N3_9 
REMARK    2  A    between atoms: N1_3  and  C3_4 
REMARK    3  A    between atoms: N2_5  and  C4_6 
REMARK    4  A    between atoms: C4_6  and  O1_7 
REMARK    5  A    between atoms: N3_9  and  C5_10 
REMARK    6  A    between atoms: C8_13  and  O2_14 
REMARK    7  A    between atoms: O2_14  and  C9_15 
REMARK    8  A    between atoms: C9_15  and  C10_16 
ROOT
HETATM    1  C5  UNL     1      22.187   0.960  51.810  1.00  0.00     0.035 A 
HETATM    2  C6  UNL     1      20.918   1.267  51.380  1.00  0.00     0.032 A 
HETATM    3  C7  UNL     1      19.783   0.725  51.894  1.00  0.00     0.041 A 
HETATM    4  C8  UNL     1      19.837  -0.190  52.904  1.00  0.00     0.091 A 
HETATM    5  C16 UNL     1      21.071  -0.542  53.381  1.00  0.00     0.069 A 
HETATM    6 CL1  UNL     1      21.191  -1.714  54.681  1.00  0.00    -0.081 Cl
HETATM    7  C17 UNL     1      22.207   0.024  52.842  1.00  0.00     0.056 A 
ENDROOT
BRANCH   1   8
HETATM    8  N3  UNL     1      23.408   1.487  51.313  1.00  0.00    -0.345 N 
HETATM    9  H7  UNL     1      23.557   1.488  50.272  1.00  0.00     0.167 HD
BRANCH   8  10
HETATM   10  C2  UNL     1      24.430   2.004  52.149  1.00  0.00     0.101 C 
HETATM   11  C1  UNL     1      24.186   3.288  52.884  1.00  0.00     0.091 C 
HETATM   12  N1  UNL     1      25.524   1.302  52.209  1.00  0.00    -0.229 NA
BRANCH  12  13
HETATM   13  C3  UNL     1      26.581   1.778  53.033  1.00  0.00     0.231 C 
HETATM   14  N2  UNL     1      27.310   1.517  54.034  1.00  0.00    -0.254 NA
BRANCH  14  15
HETATM   15  C4  UNL     1      27.197   0.302  54.801  1.00  0.00     0.365 C 
BRANCH  15  16
HETATM   16  O1  UNL     1      28.413  -0.391  54.762  1.00  0.00    -0.177 OA
HETATM   17  F1  UNL     1      28.658  -0.797  53.540  1.00  0.00    -0.046 F 
ENDBRANCH  15  16
ENDBRANCH  14  15
ENDBRANCH  12  13
ENDBRANCH   8  10
ENDBRANCH   1   8
BRANCH   4  18
HETATM   18  O2  UNL     1      18.719  -0.775  53.467  1.00  0.00    -0.345 OA
BRANCH  18  19
HETATM   19  C9  UNL     1      17.543  -0.842  52.688  1.00  0.00     0.214 C 
BRANCH  19  20
HETATM   20  C10 UNL     1      16.937  -2.199  52.891  1.00  0.00    -0.034 A 
HETATM   21  C11 UNL     1      17.529  -3.244  53.594  1.00  0.00     0.009 A 
HETATM   22  C12 UNL     1      16.852  -4.442  53.700  1.00  0.00     0.001 A 
HETATM   23  C13 UNL     1      15.617  -4.622  53.132  1.00  0.00     0.000 A 
HETATM   24  C14 UNL     1      15.026  -3.599  52.438  1.00  0.00     0.001 A 
HETATM   25  C15 UNL     1      15.699  -2.393  52.325  1.00  0.00     0.009 A 
ENDBRANCH  19  20
ENDBRANCH  18  19
ENDBRANCH   4  18
TORSDOF 8
ENDMDL
MODEL 8
REMARK VINA RESULT:      -7.1      1.682      2.077
REMARK  8 active torsions:
REMARK  status: ('A' for Active; 'I' for Inactive)
REMARK    1  A    between atoms: C2_2  and  N3_9 
REMARK    2  A    between atoms: N1_3  and  C3_4 
REMARK    3  A    between atoms: N2_5  and  C4_6 
REMARK    4  A    between atoms: C4_6  and  O1_7 
REMARK    5  A    between atoms: N3_9  and  C5_10 
REMARK    6  A    between atoms: C8_13  and  O2_14 
REMARK    7  A    between atoms: O2_14  and  C9_15 
REMARK    8  A    between atoms: C9_15  and  C10_16 
ROOT
HETATM    1  C5  UNL     1      24.728   2.710  52.707  1.00  0.00     0.035 A 
HETATM    2  C6  UNL     1      24.888   1.973  51.557  1.00  0.00     0.032 A 
HETATM    3  C7  UNL     1      23.970   1.904  50.558  1.00  0.00     0.041 A 
HETATM    4  C8  UNL     1      22.792   2.587  50.638  1.00  0.00     0.091 A 
HETATM    5  C16 UNL     1      22.568   3.343  51.757  1.00  0.00     0.069 A 
HETATM    6 CL1  UNL     1      21.068   4.241  51.906  1.00  0.00    -0.081 Cl
HETATM    7  C17 UNL     1      23.517   3.396  52.757  1.00  0.00     0.056 A 
ENDROOT
BRANCH   1   8
HETATM    8  N3  UNL     1      25.645   2.819  53.785  1.00  0.00    -0.345 N 
HETATM    9  H7  UNL     1      25.445   3.533  54.532  1.00  0.00     0.167 HD
BRANCH   8  10
HETATM   10  C2  UNL     1      26.811   2.021  53.900  1.00  0.00     0.101 C 
HETATM   11  C1  UNL     1      28.032   2.402  53.119  1.00  0.00     0.091 C 
HETATM   12  N1  UNL     1      26.720   0.995  54.696  1.00  0.00    -0.229 NA
BRANCH  12  13
HETATM   13  C3  UNL     1      27.863   0.161  54.847  1.00  0.00     0.231 C 
HETATM   14  N2  UNL     1      28.554  -0.754  54.312  1.00  0.00    -0.254 NA
BRANCH  14  15
HETATM   15  C4  UNL     1      28.238  -1.340  53.033  1.00  0.00     0.365 C 
BRANCH  15  16
HETATM   16  O1  UNL     1      27.019  -2.022  53.119  1.00  0.00    -0.177 OA
HETATM   17  F1  UNL     1      26.816  -2.716  52.025  1.00  0.00    -0.046 F 
ENDBRANCH  15  16
ENDBRANCH  14  15
ENDBRANCH  12  13
ENDBRANCH   8  10
ENDBRANCH   1   8
BRANCH   4  18
HETATM   18  O2  UNL     1      21.821   2.558  49.655  1.00  0.00    -0.345 OA
BRANCH  18  19
HETATM   19  C9  UNL     1      21.338   1.297  49.241  1.00  0.00     0.214 C 
BRANCH  19  20
HETATM   20  C10 UNL     1      20.305   0.855  50.234  1.00  0.00    -0.034 A 
HETATM   21  C11 UNL     1      20.576   0.233  51.450  1.00  0.00     0.009 A 
HETATM   22  C12 UNL     1      19.521  -0.120  52.267  1.00  0.00     0.001 A 
HETATM   23  C13 UNL     1      18.221   0.127  51.909  1.00  0.00     0.000 A 
HETATM   24  C14 UNL     1      17.945   0.739  50.714  1.00  0.00     0.001 A 
HETATM   25  C15 UNL     1      18.997   1.096  49.887  1.00  0.00     0.009 A 
ENDBRANCH  19  20
ENDBRANCH  18  19
ENDBRANCH   4  18
TORSDOF 8
ENDMDL
MODEL 9
REMARK VINA RESULT:      -7.1      3.142      5.339
REMARK  8 active torsions:
REMARK  status: ('A' for Active; 'I' for Inactive)
REMARK    1  A    between atoms: C2_2  and  N3_9 
REMARK    2  A    between atoms: N1_3  and  C3_4 
REMARK    3  A    between atoms: N2_5  and  C4_6 
REMARK    4  A    between atoms: C4_6  and  O1_7 
REMARK    5  A    between atoms: N3_9  and  C5_10 
REMARK    6  A    between atoms: C8_13  and  O2_14 
REMARK    7  A    between atoms: O2_14  and  C9_15 
REMARK    8  A    between atoms: C9_15  and  C10_16 
ROOT
HETATM    1  C5  UNL     1      23.917   0.733  52.978  1.00  0.00     0.035 A 
HETATM    2  C6  UNL     1      24.344   2.035  53.086  1.00  0.00     0.032 A 
HETATM    3  C7  UNL     1      23.721   3.097  52.511  1.00  0.00     0.041 A 
HETATM    4  C8  UNL     1      22.593   2.927  51.762  1.00  0.00     0.091 A 
HETATM    5  C16 UNL     1      22.112   1.654  51.613  1.00  0.00     0.069 A 
HETATM    6 CL1  UNL     1      20.664   1.385  50.661  1.00  0.00    -0.081 Cl
HETATM    7  C17 UNL     1      22.764   0.595  52.209  1.00  0.00     0.056 A 
ENDROOT
BRANCH   1   8
HETATM    8  N3  UNL     1      24.524  -0.415  53.550  1.00  0.00    -0.345 N 
HETATM    9  H7  UNL     1      23.896  -1.179  53.907  1.00  0.00     0.167 HD
BRANCH   8  10
HETATM   10  C2  UNL     1      25.928  -0.577  53.667  1.00  0.00     0.101 C 
HETATM   11  C1  UNL     1      26.671  -1.283  52.573  1.00  0.00     0.091 C 
HETATM   12  N1  UNL     1      26.469  -0.086  54.744  1.00  0.00    -0.229 NA
BRANCH  12  13
HETATM   13  C3  UNL     1      27.875  -0.223  54.909  1.00  0.00     0.231 C 
HETATM   14  N2  UNL     1      29.006   0.234  54.570  1.00  0.00    -0.254 NA
BRANCH  14  15
HETATM   15  C4  UNL     1      29.173   1.336  53.658  1.00  0.00     0.365 C 
BRANCH  15  16
HETATM   16  O1  UNL     1      28.779   2.525  54.282  1.00  0.00    -0.177 OA
HETATM   17  F1  UNL     1      27.563   2.844  53.908  1.00  0.00    -0.046 F 
ENDBRANCH  15  16
ENDBRANCH  14  15
ENDBRANCH  12  13
ENDBRANCH   8  10
ENDBRANCH   1   8
BRANCH   4  18
HETATM   18  O2  UNL     1      21.915   3.965  51.153  1.00  0.00    -0.345 OA
BRANCH  18  19
HETATM   19  C9  UNL     1      22.309   4.337  49.848  1.00  0.00     0.214 C 
BRANCH  19  20
HETATM   20  C10 UNL     1      23.444   5.310  49.974  1.00  0.00    -0.034 A 
HETATM   21  C11 UNL     1      24.712   5.137  49.427  1.00  0.00     0.009 A 
HETATM   22  C12 UNL     1      25.662   6.119  49.624  1.00  0.00     0.001 A 
HETATM   23  C13 UNL     1      25.383   7.253  50.342  1.00  0.00     0.000 A 
HETATM   24  C14 UNL     1      24.137   7.433  50.883  1.00  0.00     0.001 A 
HETATM   25  C15 UNL     1      23.178   6.452  50.692  1.00  0.00     0.009 A 
ENDBRANCH  19  20
ENDBRANCH  18  19
ENDBRANCH   4  18
TORSDOF 8
ENDMDL
