MODEL 1
REMARK VINA RESULT:      -6.9      0.000      0.000
REMARK  10 active torsions:
REMARK  status: ('A' for Active; 'I' for Inactive)
REMARK    1  A    between atoms: C7_7  and  N1_8 
REMARK    2  A    between atoms: N1_8  and  C8_9 
REMARK    3  A    between atoms: C11_14  and  O1_15 
REMARK    4  A    between atoms: O1_15  and  C12_16 
REMARK    5  A    between atoms: C12_16  and  C13_17 
REMARK    6  A    between atoms: C13_17  and  O2_18 
REMARK    7  A    between atoms: C15_20  and  O3_21 
REMARK    8  A    between atoms: O3_21  and  C16_22 
REMARK    9  A    between atoms: C16_22  and  C17_23 
REMARK   10  A    between atoms: C17_23  and  O4_24 
ROOT
HETATM    1  C1  UNL     1      29.795  -0.700  53.573  1.00  0.00     0.018 C 
HETATM    2  C2  UNL     1      28.639  -0.428  53.424  1.00  0.00    -0.078 C 
HETATM    3  C3  UNL     1      27.250  -0.104  53.270  1.00  0.00     0.019 A 
HETATM    4  C4  UNL     1      26.313  -0.700  54.124  1.00  0.00     0.021 A 
HETATM    5  C5  UNL     1      24.989  -0.376  53.964  1.00  0.00     0.004 A 
HETATM    6  C6  UNL     1      24.513   0.504  53.013  1.00  0.00     0.029 A 
HETATM    7  C7  UNL     1      25.439   1.108  52.152  1.00  0.00     0.034 A 
HETATM    8  C21 UNL     1      26.756   0.768  52.330  1.00  0.00     0.050 A 
ENDROOT
BRANCH   7   9
HETATM    9  N1  UNL     1      24.985   2.028  51.172  1.00  0.00    -0.344 N 
HETATM   10  H5  UNL     1      25.520   2.052  50.250  1.00  0.00     0.167 HD
BRANCH   9  11
HETATM   11  C8  UNL     1      23.875   2.928  51.293  1.00  0.00     0.112 A 
HETATM   12  N2  UNL     1      24.123   3.910  52.095  1.00  0.00    -0.229 NA
HETATM   13  C9  UNL     1      23.141   4.908  52.341  1.00  0.00     0.229 A 
HETATM   14  N3  UNL     1      22.050   4.731  51.711  1.00  0.00    -0.270 NA
HETATM   15  C10 UNL     1      21.626   3.727  50.810  1.00  0.00     0.180 A 
HETATM   16  C11 UNL     1      20.519   2.971  51.503  1.00  0.00     0.101 C 
HETATM   17  C20 UNL     1      22.620   2.652  50.533  1.00  0.00     0.093 A 
HETATM   18  C15 UNL     1      20.698   1.680  51.578  1.00  0.00     0.078 C 
HETATM   19  C19 UNL     1      21.978   1.377  50.929  1.00  0.00     0.082 C 
BRANCH  16  20
HETATM   20  O1  UNL     1      19.419   3.644  52.000  1.00  0.00    -0.349 OA
BRANCH  20  21
HETATM   21  C12 UNL     1      18.273   3.979  51.237  1.00  0.00     0.201 C 
BRANCH  21  22
HETATM   22  C13 UNL     1      17.099   3.129  51.722  1.00  0.00     0.193 C 
BRANCH  22  23
HETATM   23  O2  UNL     1      16.340   3.893  52.575  1.00  0.00    -0.394 OA
HETATM   24  C14 UNL     1      14.990   3.979  52.225  1.00  0.00     0.201 C 
ENDBRANCH  22  23
ENDBRANCH  21  22
ENDBRANCH  20  21
ENDBRANCH  16  20
BRANCH  18  25
HETATM   25  O3  UNL     1      19.957   0.649  52.111  1.00  0.00    -0.351 OA
BRANCH  25  26
HETATM   26  C16 UNL     1      20.478  -0.364  52.974  1.00  0.00     0.201 C 
BRANCH  26  27
HETATM   27  C17 UNL     1      20.969   0.202  54.265  1.00  0.00     0.193 C 
BRANCH  27  28
HETATM   28  O4  UNL     1      21.386  -0.768  55.141  1.00  0.00    -0.394 OA
HETATM   29  C18 UNL     1      21.730  -1.932  54.518  1.00  0.00     0.201 C 
ENDBRANCH  27  28
ENDBRANCH  26  27
ENDBRANCH  25  26
ENDBRANCH  18  25
ENDBRANCH   9  11
ENDBRANCH   7   9
TORSDOF 10
ENDMDL
MODEL 2
REMARK VINA RESULT:      -6.8      3.664      5.912
REMARK  10 active torsions:
REMARK  status: ('A' for Active; 'I' for Inactive)
REMARK    1  A    between atoms: C7_7  and  N1_8 
REMARK    2  A    between atoms: N1_8  and  C8_9 
REMARK    3  A    between atoms: C11_14  and  O1_15 
REMARK    4  A    between atoms: O1_15  and  C12_16 
REMARK    5  A    between atoms: C12_16  and  C13_17 
REMARK    6  A    between atoms: C13_17  and  O2_18 
REMARK    7  A    between atoms: C15_20  and  O3_21 
REMARK    8  A    between atoms: O3_21  and  C16_22 
REMARK    9  A    between atoms: C16_22  and  C17_23 
REMARK   10  A    between atoms: C17_23  and  O4_24 
ROOT
HETATM    1  C1  UNL     1      31.529   5.144  47.550  1.00  0.00     0.018 C 
HETATM    2  C2  UNL     1      30.386   5.371  47.822  1.00  0.00    -0.078 C 
HETATM    3  C3  UNL     1      29.015   5.659  48.130  1.00  0.00     0.019 A 
HETATM    4  C4  UNL     1      28.547   6.971  47.991  1.00  0.00     0.021 A 
HETATM    5  C5  UNL     1      27.232   7.228  48.287  1.00  0.00     0.004 A 
HETATM    6  C6  UNL     1      26.331   6.274  48.716  1.00  0.00     0.029 A 
HETATM    7  C7  UNL     1      26.784   4.956  48.860  1.00  0.00     0.034 A 
HETATM    8  C21 UNL     1      28.102   4.725  48.559  1.00  0.00     0.050 A 
ENDROOT
BRANCH   7   9
HETATM    9  N1  UNL     1      25.881   3.948  49.285  1.00  0.00    -0.344 N 
HETATM   10  H5  UNL     1      25.181   3.593  48.564  1.00  0.00     0.167 HD
BRANCH   9  11
HETATM   11  C8  UNL     1      25.817   3.353  50.588  1.00  0.00     0.112 A 
HETATM   12  N2  UNL     1      26.872   2.664  50.868  1.00  0.00    -0.229 NA
HETATM   13  C9  UNL     1      26.992   1.999  52.119  1.00  0.00     0.229 A 
HETATM   14  N3  UNL     1      25.992   2.158  52.890  1.00  0.00    -0.270 NA
HETATM   15  C10 UNL     1      24.780   2.871  52.739  1.00  0.00     0.180 A 
HETATM   16  C11 UNL     1      23.679   1.839  52.699  1.00  0.00     0.101 C 
HETATM   17  C20 UNL     1      24.606   3.572  51.436  1.00  0.00     0.093 A 
HETATM   18  C15 UNL     1      22.900   1.908  51.655  1.00  0.00     0.078 C 
HETATM   19  C19 UNL     1      23.373   3.023  50.827  1.00  0.00     0.082 C 
BRANCH  16  20
HETATM   20  O1  UNL     1      23.552   0.916  53.719  1.00  0.00    -0.349 OA
BRANCH  20  21
HETATM   21  C12 UNL     1      23.686  -0.485  53.552  1.00  0.00     0.201 C 
BRANCH  21  22
HETATM   22  C13 UNL     1      22.736  -1.185  54.525  1.00  0.00     0.193 C 
BRANCH  22  23
HETATM   23  O2  UNL     1      21.554  -0.487  54.546  1.00  0.00    -0.394 OA
HETATM   24  C14 UNL     1      20.493  -1.131  53.903  1.00  0.00     0.201 C 
ENDBRANCH  22  23
ENDBRANCH  21  22
ENDBRANCH  20  21
ENDBRANCH  16  20
BRANCH  18  25
HETATM   25  O3  UNL     1      21.807   1.182  51.237  1.00  0.00    -0.351 OA
BRANCH  25  26
HETATM   26  C16 UNL     1      20.505   1.728  51.012  1.00  0.00     0.201 C 
BRANCH  26  27
HETATM   27  C17 UNL     1      19.826   2.093  52.290  1.00  0.00     0.193 C 
BRANCH  27  28
HETATM   28  O4  UNL     1      19.486   3.421  52.346  1.00  0.00    -0.394 OA
HETATM   29  C18 UNL     1      19.755   4.085  51.186  1.00  0.00     0.201 C 
ENDBRANCH  27  28
ENDBRANCH  26  27
ENDBRANCH  25  26
ENDBRANCH  18  25
ENDBRANCH   9  11
ENDBRANCH   7   9
TORSDOF 10
ENDMDL
MODEL 3
REMARK VINA RESULT:      -6.7      3.082      6.194
REMARK  10 active torsions:
REMARK  status: ('A' for Active; 'I' for Inactive)
REMARK    1  A    between atoms: C7_7  and  N1_8 
REMARK    2  A    between atoms: N1_8  and  C8_9 
REMARK    3  A    between atoms: C11_14  and  O1_15 
REMARK    4  A    between atoms: O1_15  and  C12_16 
REMARK    5  A    between atoms: C12_16  and  C13_17 
REMARK    6  A    between atoms: C13_17  and  O2_18 
REMARK    7  A    between atoms: C15_20  and  O3_21 
REMARK    8  A    between atoms: O3_21  and  C16_22 
REMARK    9  A    between atoms: C16_22  and  C17_23 
REMARK   10  A    between atoms: C17_23  and  O4_24 
ROOT
HETATM    1  C1  UNL     1      23.882   8.651  49.007  1.00  0.00     0.018 C 
HETATM    2  C2  UNL     1      24.735   7.816  48.916  1.00  0.00    -0.078 C 
HETATM    3  C3  UNL     1      25.774   6.832  48.812  1.00  0.00     0.019 A 
HETATM    4  C4  UNL     1      27.007   7.200  48.261  1.00  0.00     0.021 A 
HETATM    5  C5  UNL     1      27.991   6.247  48.172  1.00  0.00     0.004 A 
HETATM    6  C6  UNL     1      27.847   4.940  48.593  1.00  0.00     0.029 A 
HETATM    7  C7  UNL     1      26.618   4.557  49.147  1.00  0.00     0.034 A 
HETATM    8  C21 UNL     1      25.651   5.527  49.224  1.00  0.00     0.050 A 
ENDROOT
BRANCH   7   9
HETATM    9  N1  UNL     1      26.441   3.225  49.602  1.00  0.00    -0.344 N 
HETATM   10  H5  UNL     1      26.596   2.448  48.889  1.00  0.00     0.167 HD
BRANCH   9  11
HETATM   11  C8  UNL     1      26.080   2.816  50.928  1.00  0.00     0.112 A 
HETATM   12  N2  UNL     1      27.059   2.253  51.554  1.00  0.00    -0.229 NA
HETATM   13  C9  UNL     1      26.891   1.782  52.885  1.00  0.00     0.229 A 
HETATM   14  N3  UNL     1      25.727   1.973  53.362  1.00  0.00    -0.270 NA
HETATM   15  C10 UNL     1      24.564   2.567  52.818  1.00  0.00     0.180 A 
HETATM   16  C11 UNL     1      23.546   1.461  52.677  1.00  0.00     0.101 C 
HETATM   17  C20 UNL     1      24.691   3.063  51.418  1.00  0.00     0.093 A 
HETATM   18  C15 UNL     1      23.046   1.324  51.479  1.00  0.00     0.078 C 
HETATM   19  C19 UNL     1      23.667   2.344  50.626  1.00  0.00     0.082 C 
BRANCH  16  20
HETATM   20  O1  UNL     1      23.206   0.684  53.767  1.00  0.00    -0.349 OA
BRANCH  20  21
HETATM   21  C12 UNL     1      23.401  -0.718  53.843  1.00  0.00     0.201 C 
BRANCH  21  22
HETATM   22  C13 UNL     1      23.075  -1.179  55.265  1.00  0.00     0.193 C 
BRANCH  22  23
HETATM   23  O2  UNL     1      21.750  -1.535  55.306  1.00  0.00    -0.394 OA
HETATM   24  C14 UNL     1      21.165  -1.723  54.050  1.00  0.00     0.201 C 
ENDBRANCH  22  23
ENDBRANCH  21  22
ENDBRANCH  20  21
ENDBRANCH  16  20
BRANCH  18  25
HETATM   25  O3  UNL     1      22.118   0.468  50.931  1.00  0.00    -0.351 OA
BRANCH  25  26
HETATM   26  C16 UNL     1      20.798   0.846  50.534  1.00  0.00     0.201 C 
BRANCH  26  27
HETATM   27  C17 UNL     1      19.801   0.612  51.620  1.00  0.00     0.193 C 
BRANCH  27  28
HETATM   28  O4  UNL     1      18.688  -0.058  51.178  1.00  0.00    -0.394 OA
HETATM   29  C18 UNL     1      17.964  -0.610  52.193  1.00  0.00     0.201 C 
ENDBRANCH  27  28
ENDBRANCH  26  27
ENDBRANCH  25  26
ENDBRANCH  18  25
ENDBRANCH   9  11
ENDBRANCH   7   9
TORSDOF 10
ENDMDL
MODEL 4
REMARK VINA RESULT:      -6.6      7.496      9.198
REMARK  10 active torsions:
REMARK  status: ('A' for Active; 'I' for Inactive)
REMARK    1  A    between atoms: C7_7  and  N1_8 
REMARK    2  A    between atoms: N1_8  and  C8_9 
REMARK    3  A    between atoms: C11_14  and  O1_15 
REMARK    4  A    between atoms: O1_15  and  C12_16 
REMARK    5  A    between atoms: C12_16  and  C13_17 
REMARK    6  A    between atoms: C13_17  and  O2_18 
REMARK    7  A    between atoms: C15_20  and  O3_21 
REMARK    8  A    between atoms: O3_21  and  C16_22 
REMARK    9  A    between atoms: C16_22  and  C17_23 
REMARK   10  A    between atoms: C17_23  and  O4_24 
ROOT
HETATM    1  C1  UNL     1      32.037   0.281  46.468  1.00  0.00     0.018 C 
HETATM    2  C2  UNL     1      32.447   1.377  46.716  1.00  0.00    -0.078 C 
HETATM    3  C3  UNL     1      32.945   2.694  46.991  1.00  0.00     0.019 A 
HETATM    4  C4  UNL     1      34.100   3.135  46.334  1.00  0.00     0.021 A 
HETATM    5  C5  UNL     1      34.562   4.399  46.607  1.00  0.00     0.004 A 
HETATM    6  C6  UNL     1      33.959   5.272  47.491  1.00  0.00     0.029 A 
HETATM    7  C7  UNL     1      32.803   4.844  48.155  1.00  0.00     0.034 A 
HETATM    8  C21 UNL     1      32.362   3.578  47.867  1.00  0.00     0.050 A 
ENDROOT
BRANCH   7   9
HETATM    9  N1  UNL     1      32.151   5.722  49.060  1.00  0.00    -0.344 N 
HETATM   10  H5  UNL     1      32.352   5.582  50.097  1.00  0.00     0.167 HD
BRANCH   9  11
HETATM   11  C8  UNL     1      31.250   6.785  48.720  1.00  0.00     0.112 A 
HETATM   12  N2  UNL     1      31.519   7.879  49.351  1.00  0.00    -0.229 NA
HETATM   13  C9  UNL     1      30.733   9.046  49.142  1.00  0.00     0.229 A 
HETATM   14  N3  UNL     1      29.788   8.894  48.304  1.00  0.00    -0.270 NA
HETATM   15  C10 UNL     1      29.368   7.782  47.538  1.00  0.00     0.180 A 
HETATM   16  C11 UNL     1      28.008   7.391  48.062  1.00  0.00     0.101 C 
HETATM   17  C20 UNL     1      30.156   6.532  47.736  1.00  0.00     0.093 A 
HETATM   18  C15 UNL     1      27.898   6.144  48.430  1.00  0.00     0.078 C 
HETATM   19  C19 UNL     1      29.196   5.502  48.196  1.00  0.00     0.082 C 
BRANCH  16  20
HETATM   20  O1  UNL     1      26.990   8.324  48.124  1.00  0.00    -0.349 OA
BRANCH  20  21
HETATM   21  C12 UNL     1      26.099   8.465  49.217  1.00  0.00     0.201 C 
BRANCH  21  22
HETATM   22  C13 UNL     1      24.674   8.223  48.718  1.00  0.00     0.193 C 
BRANCH  22  23
HETATM   23  O2  UNL     1      23.803   8.602  49.710  1.00  0.00    -0.394 OA
HETATM   24  C14 UNL     1      23.809   7.767  50.831  1.00  0.00     0.201 C 
ENDBRANCH  22  23
ENDBRANCH  21  22
ENDBRANCH  20  21
ENDBRANCH  16  20
BRANCH  18  25
HETATM   25  O3  UNL     1      26.865   5.396  48.948  1.00  0.00    -0.351 OA
BRANCH  25  26
HETATM   26  C16 UNL     1      26.882   3.973  49.087  1.00  0.00     0.201 C 
BRANCH  26  27
HETATM   27  C17 UNL     1      26.283   3.532  50.381  1.00  0.00     0.193 C 
BRANCH  27  28
HETATM   28  O4  UNL     1      27.184   2.882  51.185  1.00  0.00    -0.394 OA
HETATM   29  C18 UNL     1      26.586   2.077  52.109  1.00  0.00     0.201 C 
ENDBRANCH  27  28
ENDBRANCH  26  27
ENDBRANCH  25  26
ENDBRANCH  18  25
ENDBRANCH   9  11
ENDBRANCH   7   9
TORSDOF 10
ENDMDL
MODEL 5
REMARK VINA RESULT:      -6.6      3.555      6.360
REMARK  10 active torsions:
REMARK  status: ('A' for Active; 'I' for Inactive)
REMARK    1  A    between atoms: C7_7  and  N1_8 
REMARK    2  A    between atoms: N1_8  and  C8_9 
REMARK    3  A    between atoms: C11_14  and  O1_15 
REMARK    4  A    between atoms: O1_15  and  C12_16 
REMARK    5  A    between atoms: C12_16  and  C13_17 
REMARK    6  A    between atoms: C13_17  and  O2_18 
REMARK    7  A    between atoms: C15_20  and  O3_21 
REMARK    8  A    between atoms: O3_21  and  C16_22 
REMARK    9  A    between atoms: C16_22  and  C17_23 
REMARK   10  A    between atoms: C17_23  and  O4_24 
ROOT
HETATM    1  C1  UNL     1      24.066  -1.367  55.595  1.00  0.00     0.018 C 
HETATM    2  C2  UNL     1      23.106  -1.050  54.955  1.00  0.00    -0.078 C 
HETATM    3  C3  UNL     1      21.941  -0.678  54.205  1.00  0.00     0.019 A 
HETATM    4  C4  UNL     1      20.807  -1.497  54.260  1.00  0.00     0.021 A 
HETATM    5  C5  UNL     1      19.699  -1.125  53.539  1.00  0.00     0.004 A 
HETATM    6  C6  UNL     1      19.627   0.011  52.758  1.00  0.00     0.029 A 
HETATM    7  C7  UNL     1      20.754   0.840  52.693  1.00  0.00     0.034 A 
HETATM    8  C21 UNL     1      21.848   0.447  53.422  1.00  0.00     0.050 A 
ENDROOT
BRANCH   7   9
HETATM    9  N1  UNL     1      20.709   2.023  51.911  1.00  0.00    -0.344 N 
HETATM   10  H5  UNL     1      19.941   2.726  52.144  1.00  0.00     0.167 HD
BRANCH   9  11
HETATM   11  C8  UNL     1      21.594   2.373  50.839  1.00  0.00     0.112 A 
HETATM   12  N2  UNL     1      21.385   1.668  49.777  1.00  0.00    -0.229 NA
HETATM   13  C9  UNL     1      22.167   1.873  48.607  1.00  0.00     0.229 A 
HETATM   14  N3  UNL     1      23.046   2.785  48.722  1.00  0.00    -0.270 NA
HETATM   15  C10 UNL     1      23.396   3.637  49.795  1.00  0.00     0.180 A 
HETATM   16  C11 UNL     1      24.787   3.235  50.224  1.00  0.00     0.101 C 
HETATM   17  C20 UNL     1      22.611   3.447  51.048  1.00  0.00     0.093 A 
HETATM   18  C15 UNL     1      24.909   2.942  51.489  1.00  0.00     0.078 C 
HETATM   19  C19 UNL     1      23.589   3.112  52.108  1.00  0.00     0.082 C 
BRANCH  16  20
HETATM   20  O1  UNL     1      25.817   3.200  49.303  1.00  0.00    -0.349 OA
BRANCH  20  21
HETATM   21  C12 UNL     1      26.916   4.093  49.297  1.00  0.00     0.201 C 
BRANCH  21  22
HETATM   22  C13 UNL     1      26.421   5.473  48.862  1.00  0.00     0.193 C 
BRANCH  22  23
HETATM   23  O2  UNL     1      27.514   6.292  48.712  1.00  0.00    -0.394 OA
HETATM   24  C14 UNL     1      28.679   5.630  48.318  1.00  0.00     0.201 C 
ENDBRANCH  22  23
ENDBRANCH  21  22
ENDBRANCH  20  21
ENDBRANCH  16  20
BRANCH  18  25
HETATM   25  O3  UNL     1      25.968   2.540  52.272  1.00  0.00    -0.351 OA
BRANCH  25  26
HETATM   26  C16 UNL     1      26.137   1.221  52.796  1.00  0.00     0.201 C 
BRANCH  26  27
HETATM   27  C17 UNL     1      26.313   1.228  54.278  1.00  0.00     0.193 C 
BRANCH  27  28
HETATM   28  O4  UNL     1      27.613   1.010  54.656  1.00  0.00    -0.394 OA
HETATM   29  C18 UNL     1      28.152  -0.103  54.081  1.00  0.00     0.201 C 
ENDBRANCH  27  28
ENDBRANCH  26  27
ENDBRANCH  25  26
ENDBRANCH  18  25
ENDBRANCH   9  11
ENDBRANCH   7   9
TORSDOF 10
ENDMDL
MODEL 6
REMARK VINA RESULT:      -6.5      4.509      7.245
REMARK  10 active torsions:
REMARK  status: ('A' for Active; 'I' for Inactive)
REMARK    1  A    between atoms: C7_7  and  N1_8 
REMARK    2  A    between atoms: N1_8  and  C8_9 
REMARK    3  A    between atoms: C11_14  and  O1_15 
REMARK    4  A    between atoms: O1_15  and  C12_16 
REMARK    5  A    between atoms: C12_16  and  C13_17 
REMARK    6  A    between atoms: C13_17  and  O2_18 
REMARK    7  A    between atoms: C15_20  and  O3_21 
REMARK    8  A    between atoms: O3_21  and  C16_22 
REMARK    9  A    between atoms: C16_22  and  C17_23 
REMARK   10  A    between atoms: C17_23  and  O4_24 
ROOT
HETATM    1  C1  UNL     1      24.398   8.988  45.069  1.00  0.00     0.018 C 
HETATM    2  C2  UNL     1      25.196   8.513  45.825  1.00  0.00    -0.078 C 
HETATM    3  C3  UNL     1      26.168   7.963  46.724  1.00  0.00     0.019 A 
HETATM    4  C4  UNL     1      27.526   8.049  46.394  1.00  0.00     0.021 A 
HETATM    5  C5  UNL     1      28.443   7.520  47.268  1.00  0.00     0.004 A 
HETATM    6  C6  UNL     1      28.116   6.904  48.459  1.00  0.00     0.029 A 
HETATM    7  C7  UNL     1      26.761   6.809  48.802  1.00  0.00     0.034 A 
HETATM    8  C21 UNL     1      25.864   7.345  47.913  1.00  0.00     0.050 A 
ENDROOT
BRANCH   7   9
HETATM    9  N1  UNL     1      26.391   6.195  50.026  1.00  0.00    -0.344 N 
HETATM   10  H5  UNL     1      26.994   6.414  50.877  1.00  0.00     0.167 HD
BRANCH   9  11
HETATM   11  C8  UNL     1      25.282   5.310  50.236  1.00  0.00     0.112 A 
HETATM   12  N2  UNL     1      24.310   5.880  50.868  1.00  0.00    -0.229 NA
HETATM   13  C9  UNL     1      23.121   5.159  51.167  1.00  0.00     0.229 A 
HETATM   14  N3  UNL     1      23.127   3.954  50.759  1.00  0.00    -0.270 NA
HETATM   15  C10 UNL     1      24.092   3.191  50.064  1.00  0.00     0.180 A 
HETATM   16  C11 UNL     1      24.559   2.119  51.018  1.00  0.00     0.101 C 
HETATM   17  C20 UNL     1      25.362   3.903  49.741  1.00  0.00     0.093 A 
HETATM   18  C15 UNL     1      25.850   2.074  51.205  1.00  0.00     0.078 C 
HETATM   19  C19 UNL     1      26.449   3.130  50.382  1.00  0.00     0.082 C 
BRANCH  16  20
HETATM   20  O1  UNL     1      23.645   1.275  51.619  1.00  0.00    -0.349 OA
BRANCH  20  21
HETATM   21  C12 UNL     1      23.359   1.263  53.007  1.00  0.00     0.201 C 
BRANCH  21  22
HETATM   22  C13 UNL     1      23.270  -0.191  53.473  1.00  0.00     0.193 C 
BRANCH  22  23
HETATM   23  O2  UNL     1      22.178  -0.767  52.872  1.00  0.00    -0.394 OA
HETATM   24  C14 UNL     1      20.956  -0.442  53.467  1.00  0.00     0.201 C 
ENDBRANCH  22  23
ENDBRANCH  21  22
ENDBRANCH  20  21
ENDBRANCH  16  20
BRANCH  18  25
HETATM   25  O3  UNL     1      26.670   1.275  51.970  1.00  0.00    -0.351 OA
BRANCH  25  26
HETATM   26  C16 UNL     1      27.045   1.554  53.321  1.00  0.00     0.201 C 
BRANCH  26  27
HETATM   27  C17 UNL     1      26.752   0.407  54.230  1.00  0.00     0.193 C 
BRANCH  27  28
HETATM   28  O4  UNL     1      27.857  -0.010  54.926  1.00  0.00    -0.394 OA
HETATM   29  C18 UNL     1      29.014   0.548  54.468  1.00  0.00     0.201 C 
ENDBRANCH  27  28
ENDBRANCH  26  27
ENDBRANCH  25  26
ENDBRANCH  18  25
ENDBRANCH   9  11
ENDBRANCH   7   9
TORSDOF 10
ENDMDL
MODEL 7
REMARK VINA RESULT:      -6.5      3.312      5.961
REMARK  10 active torsions:
REMARK  status: ('A' for Active; 'I' for Inactive)
REMARK    1  A    between atoms: C7_7  and  N1_8 
REMARK    2  A    between atoms: N1_8  and  C8_9 
REMARK    3  A    between atoms: C11_14  and  O1_15 
REMARK    4  A    between atoms: O1_15  and  C12_16 
REMARK    5  A    between atoms: C12_16  and  C13_17 
REMARK    6  A    between atoms: C13_17  and  O2_18 
REMARK    7  A    between atoms: C15_20  and  O3_21 
REMARK    8  A    between atoms: O3_21  and  C16_22 
REMARK    9  A    between atoms: C16_22  and  C17_23 
REMARK   10  A    between atoms: C17_23  and  O4_24 
ROOT
HETATM    1  C1  UNL     1      28.946   6.141  47.929  1.00  0.00     0.018 C 
HETATM    2  C2  UNL     1      27.811   6.270  48.286  1.00  0.00    -0.078 C 
HETATM    3  C3  UNL     1      26.444   6.425  48.690  1.00  0.00     0.019 A 
HETATM    4  C4  UNL     1      25.576   7.174  47.885  1.00  0.00     0.021 A 
HETATM    5  C5  UNL     1      24.270   7.309  48.286  1.00  0.00     0.004 A 
HETATM    6  C6  UNL     1      23.749   6.752  49.437  1.00  0.00     0.029 A 
HETATM    7  C7  UNL     1      24.605   6.001  50.252  1.00  0.00     0.034 A 
HETATM    8  C21 UNL     1      25.905   5.880  49.831  1.00  0.00     0.050 A 
ENDROOT
BRANCH   7   9
HETATM    9  N1  UNL     1      24.098   5.403  51.434  1.00  0.00    -0.344 N 
HETATM   10  H5  UNL     1      24.411   5.826  52.361  1.00  0.00     0.167 HD
BRANCH   9  11
HETATM   11  C8  UNL     1      23.200   4.287  51.511  1.00  0.00     0.112 A 
HETATM   12  N2  UNL     1      22.085   4.591  52.086  1.00  0.00    -0.229 NA
HETATM   13  C9  UNL     1      21.067   3.612  52.252  1.00  0.00     0.229 A 
HETATM   14  N3  UNL     1      21.367   2.465  51.790  1.00  0.00    -0.270 NA
HETATM   15  C10 UNL     1      22.523   1.977  51.140  1.00  0.00     0.180 A 
HETATM   16  C11 UNL     1      23.148   0.972  52.077  1.00  0.00     0.101 C 
HETATM   17  C20 UNL     1      23.623   2.966  50.957  1.00  0.00     0.093 A 
HETATM   18  C15 UNL     1      24.400   1.195  52.367  1.00  0.00     0.078 C 
HETATM   19  C19 UNL     1      24.807   2.407  51.647  1.00  0.00     0.082 C 
BRANCH  16  20
HETATM   20  O1  UNL     1      22.403  -0.087  52.560  1.00  0.00    -0.349 OA
BRANCH  20  21
HETATM   21  C12 UNL     1      22.087  -0.286  53.927  1.00  0.00     0.201 C 
BRANCH  21  22
HETATM   22  C13 UNL     1      20.595  -0.017  54.127  1.00  0.00     0.193 C 
BRANCH  22  23
HETATM   23  O2  UNL     1      19.907  -1.162  53.808  1.00  0.00    -0.394 OA
HETATM   24  C14 UNL     1      18.696  -0.941  53.148  1.00  0.00     0.201 C 
ENDBRANCH  22  23
ENDBRANCH  21  22
ENDBRANCH  20  21
ENDBRANCH  16  20
BRANCH  18  25
HETATM   25  O3  UNL     1      25.321   0.545  53.158  1.00  0.00    -0.351 OA
BRANCH  25  26
HETATM   26  C16 UNL     1      26.732   0.773  53.118  1.00  0.00     0.201 C 
BRANCH  26  27
HETATM   27  C17 UNL     1      27.500  -0.503  53.028  1.00  0.00     0.193 C 
BRANCH  27  28
HETATM   28  O4  UNL     1      28.600  -0.515  53.847  1.00  0.00    -0.394 OA
HETATM   29  C18 UNL     1      29.552  -1.404  53.443  1.00  0.00     0.201 C 
ENDBRANCH  27  28
ENDBRANCH  26  27
ENDBRANCH  25  26
ENDBRANCH  18  25
ENDBRANCH   9  11
ENDBRANCH   7   9
TORSDOF 10
ENDMDL
MODEL 8
REMARK VINA RESULT:      -6.4      1.608      2.734
REMARK  10 active torsions:
REMARK  status: ('A' for Active; 'I' for Inactive)
REMARK    1  A    between atoms: C7_7  and  N1_8 
REMARK    2  A    between atoms: N1_8  and  C8_9 
REMARK    3  A    between atoms: C11_14  and  O1_15 
REMARK    4  A    between atoms: O1_15  and  C12_16 
REMARK    5  A    between atoms: C12_16  and  C13_17 
REMARK    6  A    between atoms: C13_17  and  O2_18 
REMARK    7  A    between atoms: C15_20  and  O3_21 
REMARK    8  A    between atoms: O3_21  and  C16_22 
REMARK    9  A    between atoms: C16_22  and  C17_23 
REMARK   10  A    between atoms: C17_23  and  O4_24 
ROOT
HETATM    1  C1  UNL     1      22.132  -1.262  54.905  1.00  0.00     0.018 C 
HETATM    2  C2  UNL     1      22.994  -0.765  54.239  1.00  0.00    -0.078 C 
HETATM    3  C3  UNL     1      24.037  -0.192  53.438  1.00  0.00     0.019 A 
HETATM    4  C4  UNL     1      25.328  -0.728  53.516  1.00  0.00     0.021 A 
HETATM    5  C5  UNL     1      26.313  -0.170  52.741  1.00  0.00     0.004 A 
HETATM    6  C6  UNL     1      26.116   0.893  51.881  1.00  0.00     0.029 A 
HETATM    7  C7  UNL     1      24.830   1.439  51.792  1.00  0.00     0.034 A 
HETATM    8  C21 UNL     1      23.863   0.865  52.577  1.00  0.00     0.050 A 
ENDROOT
BRANCH   7   9
HETATM    9  N1  UNL     1      24.590   2.523  50.908  1.00  0.00    -0.344 N 
HETATM   10  H5  UNL     1      25.374   2.775  50.231  1.00  0.00     0.167 HD
BRANCH   9  11
HETATM   11  C8  UNL     1      23.396   3.312  50.828  1.00  0.00     0.112 A 
HETATM   12  N2  UNL     1      23.328   4.200  51.762  1.00  0.00    -0.229 NA
HETATM   13  C9  UNL     1      22.215   5.081  51.845  1.00  0.00     0.229 A 
HETATM   14  N3  UNL     1      21.341   4.901  50.937  1.00  0.00    -0.270 NA
HETATM   15  C10 UNL     1      21.266   3.990  49.859  1.00  0.00     0.180 A 
HETATM   16  C11 UNL     1      20.108   3.069  50.157  1.00  0.00     0.101 C 
HETATM   17  C20 UNL     1      22.407   3.038  49.742  1.00  0.00     0.093 A 
HETATM   18  C15 UNL     1      20.400   1.797  50.143  1.00  0.00     0.078 C 
HETATM   19  C19 UNL     1      21.827   1.679  49.823  1.00  0.00     0.082 C 
BRANCH  16  20
HETATM   20  O1  UNL     1      18.854   3.587  50.416  1.00  0.00    -0.349 OA
BRANCH  20  21
HETATM   21  C12 UNL     1      18.288   3.704  51.710  1.00  0.00     0.201 C 
BRANCH  21  22
HETATM   22  C13 UNL     1      16.791   3.983  51.563  1.00  0.00     0.193 C 
BRANCH  22  23
HETATM   23  O2  UNL     1      16.311   4.393  52.783  1.00  0.00    -0.394 OA
HETATM   24  C14 UNL     1      15.000   3.988  53.051  1.00  0.00     0.201 C 
ENDBRANCH  22  23
ENDBRANCH  21  22
ENDBRANCH  20  21
ENDBRANCH  16  20
BRANCH  18  25
HETATM   25  O3  UNL     1      19.665   0.653  50.356  1.00  0.00    -0.351 OA
BRANCH  25  26
HETATM   26  C16 UNL     1      18.252   0.547  50.161  1.00  0.00     0.201 C 
BRANCH  26  27
HETATM   27  C17 UNL     1      17.597  -0.240  51.247  1.00  0.00     0.193 C 
BRANCH  27  28
HETATM   28  O4  UNL     1      18.458  -0.542  52.271  1.00  0.00    -0.394 OA
HETATM   29  C18 UNL     1      17.877  -1.300  53.245  1.00  0.00     0.201 C 
ENDBRANCH  27  28
ENDBRANCH  26  27
ENDBRANCH  25  26
ENDBRANCH  18  25
ENDBRANCH   9  11
ENDBRANCH   7   9
TORSDOF 10
ENDMDL
MODEL 9
REMARK VINA RESULT:      -6.3      6.728      8.222
REMARK  10 active torsions:
REMARK  status: ('A' for Active; 'I' for Inactive)
REMARK    1  A    between atoms: C7_7  and  N1_8 
REMARK    2  A    between atoms: N1_8  and  C8_9 
REMARK    3  A    between atoms: C11_14  and  O1_15 
REMARK    4  A    between atoms: O1_15  and  C12_16 
REMARK    5  A    between atoms: C12_16  and  C13_17 
REMARK    6  A    between atoms: C13_17  and  O2_18 
REMARK    7  A    between atoms: C15_20  and  O3_21 
REMARK    8  A    between atoms: O3_21  and  C16_22 
REMARK    9  A    between atoms: C16_22  and  C17_23 
REMARK   10  A    between atoms: C17_23  and  O4_24 
ROOT
HETATM    1  C1  UNL     1      31.952   0.879  46.533  1.00  0.00     0.018 C 
HETATM    2  C2  UNL     1      32.020   2.074  46.550  1.00  0.00    -0.078 C 
HETATM    3  C3  UNL     1      32.099   3.506  46.546  1.00  0.00     0.019 A 
HETATM    4  C4  UNL     1      32.790   4.146  45.510  1.00  0.00     0.021 A 
HETATM    5  C5  UNL     1      32.854   5.517  45.520  1.00  0.00     0.004 A 
HETATM    6  C6  UNL     1      32.277   6.315  46.489  1.00  0.00     0.029 A 
HETATM    7  C7  UNL     1      31.583   5.688  47.531  1.00  0.00     0.034 A 
HETATM    8  C21 UNL     1      31.534   4.317  47.500  1.00  0.00     0.050 A 
ENDROOT
BRANCH   7   9
HETATM    9  N1  UNL     1      30.967   6.478  48.536  1.00  0.00    -0.344 N 
HETATM   10  H5  UNL     1      31.486   6.571  49.462  1.00  0.00     0.167 HD
BRANCH   9  11
HETATM   11  C8  UNL     1      29.716   7.171  48.430  1.00  0.00     0.112 A 
HETATM   12  N2  UNL     1      29.765   8.357  48.940  1.00  0.00    -0.229 NA
HETATM   13  C9  UNL     1      28.618   9.198  48.927  1.00  0.00     0.229 A 
HETATM   14  N3  UNL     1      27.595   8.675  48.381  1.00  0.00    -0.270 NA
HETATM   15  C10 UNL     1      27.380   7.412  47.782  1.00  0.00     0.180 A 
HETATM   16  C11 UNL     1      26.396   6.683  48.664  1.00  0.00     0.101 C 
HETATM   17  C20 UNL     1      28.552   6.491  47.786  1.00  0.00     0.093 A 
HETATM   18  C15 UNL     1      26.791   5.509  49.076  1.00  0.00     0.078 C 
HETATM   19  C19 UNL     1      28.126   5.274  48.512  1.00  0.00     0.082 C 
BRANCH  16  20
HETATM   20  O1  UNL     1      25.182   7.261  48.980  1.00  0.00    -0.349 OA
BRANCH  20  21
HETATM   21  C12 UNL     1      24.908   7.936  50.196  1.00  0.00     0.201 C 
BRANCH  21  22
HETATM   22  C13 UNL     1      24.138   6.989  51.117  1.00  0.00     0.193 C 
BRANCH  22  23
HETATM   23  O2  UNL     1      22.977   6.624  50.482  1.00  0.00    -0.394 OA
HETATM   24  C14 UNL     1      21.927   7.533  50.636  1.00  0.00     0.201 C 
ENDBRANCH  22  23
ENDBRANCH  21  22
ENDBRANCH  20  21
ENDBRANCH  16  20
BRANCH  18  25
HETATM   25  O3  UNL     1      26.221   4.541  49.871  1.00  0.00    -0.351 OA
BRANCH  25  26
HETATM   26  C16 UNL     1      25.237   3.602  49.430  1.00  0.00     0.201 C 
BRANCH  26  27
HETATM   27  C17 UNL     1      24.243   3.292  50.500  1.00  0.00     0.193 C 
BRANCH  27  28
HETATM   28  O4  UNL     1      23.032   2.894  49.994  1.00  0.00    -0.394 OA
HETATM   29  C18 UNL     1      22.649   1.664  50.442  1.00  0.00     0.201 C 
ENDBRANCH  27  28
ENDBRANCH  26  27
ENDBRANCH  25  26
ENDBRANCH  18  25
ENDBRANCH   9  11
ENDBRANCH   7   9
TORSDOF 10
ENDMDL
