MODEL 1
REMARK VINA RESULT:      -8.1      0.000      0.000
REMARK  7 active torsions:
REMARK  status: ('A' for Active; 'I' for Inactive)
REMARK    1  A    between atoms: C3_4  and  C4_5 
REMARK    2  A    between atoms: C5_6  and  N1_7 
REMARK    3  A    between atoms: N1_7  and  N2_8 
REMARK    4  A    between atoms: C11_15  and  O2_16 
REMARK    5  A    between atoms: O2_16  and  C12_17 
REMARK    6  A    between atoms: N3_20  and  S1_21 
REMARK    7  A    between atoms: C18_27  and  C19_28 
ROOT
HETATM    1  N2  UNL     1      22.786   4.976  50.755  1.00  0.00    -0.224 NA
HETATM    2  C6  UNL     1      21.560   4.601  51.473  1.00  0.00     0.130 C 
HETATM    3  O1  UNL     1      21.697   3.169  51.236  1.00  0.00     0.000 OA
HETATM    4  C7  UNL     1      21.442   1.954  52.447  1.00  0.00    -0.015 A 
HETATM    5  C8  UNL     1      20.024   2.572  52.470  1.00  0.00    -0.012 A 
HETATM    6  C9  UNL     1      21.218   2.584  52.083  1.00  0.00     0.038 A 
HETATM    7  C10 UNL     1      22.750   2.572  51.606  1.00  0.00     0.022 A 
HETATM    8  C11 UNL     1      23.888   1.717  51.829  1.00  0.00     0.109 A 
HETATM    9  C17 UNL     1      22.756   1.373  52.434  1.00  0.00     0.048 A 
HETATM   10  C18 UNL     1      23.504   3.661  50.738  1.00  0.00     0.105 C 
ENDROOT
BRANCH   8  11
HETATM   11  O2  UNL     1      24.634   0.682  52.301  1.00  0.00    -0.369 OA
BRANCH  11  12
HETATM   12  C12 UNL     1      25.097   0.015  53.308  1.00  0.00     0.138 C 
HETATM   13  C13 UNL     1      26.084  -1.128  52.990  1.00  0.00     0.048 C 
HETATM   14  C14 UNL     1      27.239  -0.320  52.484  1.00  0.00     0.110 C 
HETATM   15  N3  UNL     1      27.304   0.869  53.335  1.00  0.00    -0.208 NA
HETATM   16  C16 UNL     1      26.099   0.865  54.157  1.00  0.00     0.139 C 
BRANCH  15  17
HETATM   17  S1  UNL     1      28.735   0.594  54.300  1.00  0.00     0.207 S 
HETATM   18  C15 UNL     1      29.990  -0.211  53.337  1.00  0.00     0.180 C 
HETATM   19  O3  UNL     1      29.222   1.913  54.769  1.00  0.00    -0.212 OA
HETATM   20  O4  UNL     1      28.388  -0.258  55.503  1.00  0.00    -0.212 OA
ENDBRANCH  15  17
ENDBRANCH  11  12
ENDBRANCH   8  11
BRANCH  10  21
HETATM   21  C19 UNL     1      23.682   3.353  49.347  1.00  0.00     0.137 C 
HETATM   22 CL1  UNL     1      23.131   4.672  48.234  1.00  0.00    -0.129 Cl
ENDBRANCH  10  21
BRANCH   1  23
HETATM   23  N1  UNL     1      23.459   5.833  51.592  1.00  0.00    -0.330 N 
HETATM   24  H7  UNL     1      23.454   5.630  52.614  1.00  0.00     0.180 HD
BRANCH  23  25
HETATM   25  C5  UNL     1      24.139   6.938  51.061  1.00  0.00     0.102 C 
HETATM   26  C4  UNL     1      25.170   7.077  50.294  1.00  0.00     0.021 C 
BRANCH  26  27
HETATM   27  C3  UNL     1      26.012   6.093  49.691  1.00  0.00     0.038 C 
HETATM   28  C2  UNL     1      26.840   5.909  48.722  1.00  0.00     0.090 C 
HETATM   29  C1  UNL     1      26.899   7.211  48.014  1.00  0.00     0.082 C 
HETATM   30  F1  UNL     1      27.612   4.985  48.204  1.00  0.00    -0.211 F 
ENDBRANCH  26  27
ENDBRANCH  23  25
ENDBRANCH   1  23
TORSDOF 7
ENDMDL
MODEL 2
REMARK VINA RESULT:      -8.0      2.762      3.735
REMARK  7 active torsions:
REMARK  status: ('A' for Active; 'I' for Inactive)
REMARK    1  A    between atoms: C3_4  and  C4_5 
REMARK    2  A    between atoms: C5_6  and  N1_7 
REMARK    3  A    between atoms: N1_7  and  N2_8 
REMARK    4  A    between atoms: C11_15  and  O2_16 
REMARK    5  A    between atoms: O2_16  and  C12_17 
REMARK    6  A    between atoms: N3_20  and  S1_21 
REMARK    7  A    between atoms: C18_27  and  C19_28 
ROOT
HETATM    1  N2  UNL     1      19.642   1.150  51.595  1.00  0.00    -0.224 NA
HETATM    2  C6  UNL     1      19.584   0.273  52.773  1.00  0.00     0.130 C 
HETATM    3  O1  UNL     1      20.834  -0.421  52.487  1.00  0.00     0.000 OA
HETATM    4  C7  UNL     1      22.048  -0.771  53.676  1.00  0.00    -0.015 A 
HETATM    5  C8  UNL     1      20.887  -1.564  54.322  1.00  0.00    -0.012 A 
HETATM    6  C9  UNL     1      21.320  -0.769  53.452  1.00  0.00     0.038 A 
HETATM    7  C10 UNL     1      21.903   0.244  52.354  1.00  0.00     0.022 A 
HETATM    8  C11 UNL     1      23.200   0.793  52.048  1.00  0.00     0.109 A 
HETATM    9  C17 UNL     1      23.132  -0.037  53.084  1.00  0.00     0.048 A 
HETATM   10  C18 UNL     1      21.097   1.051  51.254  1.00  0.00     0.105 C 
ENDROOT
BRANCH   8  11
HETATM   11  O2  UNL     1      24.535   1.038  52.137  1.00  0.00    -0.369 OA
BRANCH  11  12
HETATM   12  C12 UNL     1      25.500   1.881  52.311  1.00  0.00     0.138 C 
HETATM   13  C13 UNL     1      25.803   2.301  53.765  1.00  0.00     0.048 C 
HETATM   14  C14 UNL     1      26.314   0.997  54.294  1.00  0.00     0.110 C 
HETATM   15  N3  UNL     1      27.118   0.412  53.219  1.00  0.00    -0.208 NA
HETATM   16  C16 UNL     1      26.897   1.234  52.034  1.00  0.00     0.139 C 
BRANCH  15  17
HETATM   17  S1  UNL     1      28.755   0.573  53.809  1.00  0.00     0.207 S 
HETATM   18  C15 UNL     1      29.687  -0.898  53.468  1.00  0.00     0.180 C 
HETATM   19  O3  UNL     1      29.370   1.734  53.121  1.00  0.00    -0.212 OA
HETATM   20  O4  UNL     1      28.742   0.836  55.300  1.00  0.00    -0.212 OA
ENDBRANCH  15  17
ENDBRANCH  11  12
ENDBRANCH   8  11
BRANCH  10  21
HETATM   21  C19 UNL     1      21.131   0.515  49.922  1.00  0.00     0.137 C 
HETATM   22 CL1  UNL     1      21.932   1.607  48.719  1.00  0.00    -0.129 Cl
ENDBRANCH  10  21
BRANCH   1  23
HETATM   23  N1  UNL     1      19.386   2.417  52.062  1.00  0.00    -0.330 N 
HETATM   24  H7  UNL     1      18.976   2.518  53.014  1.00  0.00     0.180 HD
BRANCH  23  25
HETATM   25  C5  UNL     1      19.690   3.530  51.265  1.00  0.00     0.102 C 
HETATM   26  C4  UNL     1      20.595   4.451  51.314  1.00  0.00     0.021 C 
BRANCH  26  27
HETATM   27  C3  UNL     1      21.656   4.655  52.248  1.00  0.00     0.038 C 
HETATM   28  C2  UNL     1      22.939   4.728  52.341  1.00  0.00     0.090 C 
HETATM   29  C1  UNL     1      23.437   4.512  50.962  1.00  0.00     0.082 C 
HETATM   30  F1  UNL     1      23.885   4.933  53.225  1.00  0.00    -0.211 F 
ENDBRANCH  26  27
ENDBRANCH  23  25
ENDBRANCH   1  23
TORSDOF 7
ENDMDL
MODEL 3
REMARK VINA RESULT:      -7.8      2.591      4.535
REMARK  7 active torsions:
REMARK  status: ('A' for Active; 'I' for Inactive)
REMARK    1  A    between atoms: C3_4  and  C4_5 
REMARK    2  A    between atoms: C5_6  and  N1_7 
REMARK    3  A    between atoms: N1_7  and  N2_8 
REMARK    4  A    between atoms: C11_15  and  O2_16 
REMARK    5  A    between atoms: O2_16  and  C12_17 
REMARK    6  A    between atoms: N3_20  and  S1_21 
REMARK    7  A    between atoms: C18_27  and  C19_28 
ROOT
HETATM    1  N2  UNL     1      22.563   5.513  49.049  1.00  0.00    -0.224 NA
HETATM    2  C6  UNL     1      23.821   5.840  48.362  1.00  0.00     0.130 C 
HETATM    3  O1  UNL     1      24.668   5.651  49.534  1.00  0.00     0.000 OA
HETATM    4  C7  UNL     1      26.180   4.802  49.515  1.00  0.00    -0.015 A 
HETATM    5  C8  UNL     1      26.549   5.911  48.500  1.00  0.00    -0.012 A 
HETATM    6  C9  UNL     1      25.707   5.320  49.218  1.00  0.00     0.038 A 
HETATM    7  C10 UNL     1      24.653   4.543  50.145  1.00  0.00     0.022 A 
HETATM    8  C11 UNL     1      24.712   3.428  51.056  1.00  0.00     0.109 A 
HETATM    9  C17 UNL     1      25.848   3.769  50.455  1.00  0.00     0.048 A 
HETATM   10  C18 UNL     1      23.090   4.780  50.245  1.00  0.00     0.105 C 
ENDROOT
BRANCH   8  11
HETATM   11  O2  UNL     1      25.225   2.394  51.775  1.00  0.00    -0.369 OA
BRANCH  11  12
HETATM   12  C12 UNL     1      25.151   1.610  52.802  1.00  0.00     0.138 C 
HETATM   13  C13 UNL     1      25.518   0.128  52.574  1.00  0.00     0.048 C 
HETATM   14  C14 UNL     1      26.981   0.280  52.295  1.00  0.00     0.110 C 
HETATM   15  N3  UNL     1      27.463   1.315  53.212  1.00  0.00    -0.208 NA
HETATM   16  C16 UNL     1      26.284   1.901  53.840  1.00  0.00     0.139 C 
BRANCH  15  17
HETATM   17  S1  UNL     1      28.418   0.415  54.366  1.00  0.00     0.207 S 
HETATM   18  C15 UNL     1      29.552  -0.663  53.530  1.00  0.00     0.180 C 
HETATM   19  O3  UNL     1      29.165   1.394  55.192  1.00  0.00    -0.212 OA
HETATM   20  O4  UNL     1      27.509  -0.396  55.266  1.00  0.00    -0.212 OA
ENDBRANCH  15  17
ENDBRANCH  11  12
ENDBRANCH   8  11
BRANCH  10  21
HETATM   21  C19 UNL     1      22.634   5.539  51.376  1.00  0.00     0.137 C 
HETATM   22 CL1  UNL     1      21.752   7.056  50.926  1.00  0.00    -0.129 Cl
ENDBRANCH  10  21
BRANCH   1  23
HETATM   23  N1  UNL     1      21.918   4.615  48.234  1.00  0.00    -0.330 N 
HETATM   24  H7  UNL     1      20.969   4.862  47.882  1.00  0.00     0.180 HD
BRANCH  23  25
HETATM   25  C5  UNL     1      22.545   3.411  47.886  1.00  0.00     0.102 C 
HETATM   26  C4  UNL     1      22.257   2.162  48.060  1.00  0.00     0.021 C 
BRANCH  26  27
HETATM   27  C3  UNL     1      21.134   1.554  48.701  1.00  0.00     0.038 C 
HETATM   28  C2  UNL     1      20.759   1.002  49.802  1.00  0.00     0.090 C 
HETATM   29  C1  UNL     1      21.957   1.031  50.675  1.00  0.00     0.082 C 
HETATM   30  F1  UNL     1      19.703   0.463  50.362  1.00  0.00    -0.211 F 
ENDBRANCH  26  27
ENDBRANCH  23  25
ENDBRANCH   1  23
TORSDOF 7
ENDMDL
MODEL 4
REMARK VINA RESULT:      -7.8      3.112      4.696
REMARK  7 active torsions:
REMARK  status: ('A' for Active; 'I' for Inactive)
REMARK    1  A    between atoms: C3_4  and  C4_5 
REMARK    2  A    between atoms: C5_6  and  N1_7 
REMARK    3  A    between atoms: N1_7  and  N2_8 
REMARK    4  A    between atoms: C11_15  and  O2_16 
REMARK    5  A    between atoms: O2_16  and  C12_17 
REMARK    6  A    between atoms: N3_20  and  S1_21 
REMARK    7  A    between atoms: C18_27  and  C19_28 
ROOT
HETATM    1  N2  UNL     1      20.442   4.010  51.421  1.00  0.00    -0.224 NA
HETATM    2  C6  UNL     1      20.577   3.453  50.068  1.00  0.00     0.130 C 
HETATM    3  O1  UNL     1      22.036   3.436  50.073  1.00  0.00     0.000 OA
HETATM    4  C7  UNL     1      22.996   2.108  49.506  1.00  0.00    -0.015 A 
HETATM    5  C8  UNL     1      22.260   2.415  48.180  1.00  0.00    -0.012 A 
HETATM    6  C9  UNL     1      22.421   2.598  49.411  1.00  0.00     0.038 A 
HETATM    7  C10 UNL     1      22.651   2.810  50.985  1.00  0.00     0.022 A 
HETATM    8  C11 UNL     1      23.552   2.273  51.972  1.00  0.00     0.109 A 
HETATM    9  C17 UNL     1      23.684   1.815  50.732  1.00  0.00     0.048 A 
HETATM   10  C18 UNL     1      21.799   3.703  51.978  1.00  0.00     0.105 C 
ENDROOT
BRANCH   8  11
HETATM   11  O2  UNL     1      24.552   1.529  52.517  1.00  0.00    -0.369 OA
BRANCH  11  12
HETATM   12  C12 UNL     1      24.968   0.748  53.461  1.00  0.00     0.138 C 
HETATM   13  C13 UNL     1      25.745  -0.514  53.029  1.00  0.00     0.048 C 
HETATM   14  C14 UNL     1      26.977   0.135  52.478  1.00  0.00     0.110 C 
HETATM   15  N3  UNL     1      27.278   1.255  53.372  1.00  0.00    -0.208 NA
HETATM   16  C16 UNL     1      26.139   1.391  54.275  1.00  0.00     0.139 C 
BRANCH  15  17
HETATM   17  S1  UNL     1      28.705   0.717  54.224  1.00  0.00     0.207 S 
HETATM   18  C15 UNL     1      29.798  -0.145  53.124  1.00  0.00     0.180 C 
HETATM   19  O3  UNL     1      29.380   1.917  54.774  1.00  0.00    -0.212 OA
HETATM   20  O4  UNL     1      28.309  -0.193  55.369  1.00  0.00    -0.212 OA
ENDBRANCH  15  17
ENDBRANCH  11  12
ENDBRANCH   8  11
BRANCH  10  21
HETATM   21  C19 UNL     1      22.357   4.980  52.321  1.00  0.00     0.137 C 
HETATM   22 CL1  UNL     1      21.777   6.334  51.267  1.00  0.00    -0.129 Cl
ENDBRANCH  10  21
BRANCH   1  23
HETATM   23  N1  UNL     1      19.517   3.219  52.057  1.00  0.00    -0.330 N 
HETATM   24  H7  UNL     1      18.899   3.659  52.771  1.00  0.00     0.180 HD
BRANCH  23  25
HETATM   25  C5  UNL     1      19.416   1.859  51.728  1.00  0.00     0.102 C 
HETATM   26  C4  UNL     1      19.774   0.763  52.312  1.00  0.00     0.021 C 
BRANCH  26  27
HETATM   27  C3  UNL     1      20.428   0.554  53.565  1.00  0.00     0.038 C 
HETATM   28  C2  UNL     1      21.360  -0.130  54.132  1.00  0.00     0.090 C 
HETATM   29  C1  UNL     1      21.912  -0.991  53.058  1.00  0.00     0.082 C 
HETATM   30  F1  UNL     1      21.946  -0.284  55.294  1.00  0.00    -0.211 F 
ENDBRANCH  26  27
ENDBRANCH  23  25
ENDBRANCH   1  23
TORSDOF 7
ENDMDL
MODEL 5
REMARK VINA RESULT:      -7.7      2.203      2.809
REMARK  7 active torsions:
REMARK  status: ('A' for Active; 'I' for Inactive)
REMARK    1  A    between atoms: C3_4  and  C4_5 
REMARK    2  A    between atoms: C5_6  and  N1_7 
REMARK    3  A    between atoms: N1_7  and  N2_8 
REMARK    4  A    between atoms: C11_15  and  O2_16 
REMARK    5  A    between atoms: O2_16  and  C12_17 
REMARK    6  A    between atoms: N3_20  and  S1_21 
REMARK    7  A    between atoms: C18_27  and  C19_28 
ROOT
HETATM    1  N2  UNL     1      20.538   2.377  51.298  1.00  0.00    -0.224 NA
HETATM    2  C6  UNL     1      19.606   1.518  52.042  1.00  0.00     0.130 C 
HETATM    3  O1  UNL     1      20.511   0.378  52.127  1.00  0.00     0.000 OA
HETATM    4  C7  UNL     1      20.764  -0.558  53.565  1.00  0.00    -0.015 A 
HETATM    5  C8  UNL     1      19.247  -0.822  53.408  1.00  0.00    -0.012 A 
HETATM    6  C9  UNL     1      20.296  -0.224  53.065  1.00  0.00     0.038 A 
HETATM    7  C10 UNL     1      21.654   0.524  52.650  1.00  0.00     0.022 A 
HETATM    8  C11 UNL     1      23.026   0.481  53.089  1.00  0.00     0.109 A 
HETATM    9  C17 UNL     1      22.172  -0.320  53.719  1.00  0.00     0.048 A 
HETATM   10  C18 UNL     1      21.835   1.686  51.590  1.00  0.00     0.105 C 
ENDROOT
BRANCH   8  11
HETATM   11  O2  UNL     1      24.128   0.116  53.797  1.00  0.00    -0.369 OA
BRANCH  11  12
HETATM   12  C12 UNL     1      25.180  -0.628  53.910  1.00  0.00     0.138 C 
HETATM   13  C13 UNL     1      26.036  -0.820  52.640  1.00  0.00     0.048 C 
HETATM   14  C14 UNL     1      26.551   0.576  52.479  1.00  0.00     0.110 C 
HETATM   15  N3  UNL     1      26.838   1.059  53.832  1.00  0.00    -0.208 NA
HETATM   16  C16 UNL     1      26.298   0.068  54.755  1.00  0.00     0.139 C 
BRANCH  15  17
HETATM   17  S1  UNL     1      28.584   1.093  53.884  1.00  0.00     0.207 S 
HETATM   18  C15 UNL     1      29.250  -0.502  53.483  1.00  0.00     0.180 C 
HETATM   19  O3  UNL     1      29.045   2.098  52.896  1.00  0.00    -0.212 OA
HETATM   20  O4  UNL     1      29.050   1.510  55.263  1.00  0.00    -0.212 OA
ENDBRANCH  15  17
ENDBRANCH  11  12
ENDBRANCH   8  11
BRANCH  10  21
HETATM   21  C19 UNL     1      22.347   1.300  50.306  1.00  0.00     0.137 C 
HETATM   22 CL1  UNL     1      21.332   1.868  48.917  1.00  0.00    -0.129 Cl
ENDBRANCH  10  21
BRANCH   1  23
HETATM   23  N1  UNL     1      20.529   3.587  51.949  1.00  0.00    -0.330 N 
HETATM   24  H7  UNL     1      19.614   3.966  52.273  1.00  0.00     0.180 HD
BRANCH  23  25
HETATM   25  C5  UNL     1      21.733   4.269  52.174  1.00  0.00     0.102 C 
HETATM   26  C4  UNL     1      22.552   4.922  51.416  1.00  0.00     0.021 C 
BRANCH  26  27
HETATM   27  C3  UNL     1      22.502   5.187  50.013  1.00  0.00     0.038 C 
HETATM   28  C2  UNL     1      23.147   5.006  48.913  1.00  0.00     0.090 C 
HETATM   29  C1  UNL     1      24.365   4.256  49.301  1.00  0.00     0.082 C 
HETATM   30  F1  UNL     1      23.059   5.256  47.629  1.00  0.00    -0.211 F 
ENDBRANCH  26  27
ENDBRANCH  23  25
ENDBRANCH   1  23
TORSDOF 7
ENDMDL
MODEL 6
REMARK VINA RESULT:      -7.5      2.886      4.600
REMARK  7 active torsions:
REMARK  status: ('A' for Active; 'I' for Inactive)
REMARK    1  A    between atoms: C3_4  and  C4_5 
REMARK    2  A    between atoms: C5_6  and  N1_7 
REMARK    3  A    between atoms: N1_7  and  N2_8 
REMARK    4  A    between atoms: C11_15  and  O2_16 
REMARK    5  A    between atoms: O2_16  and  C12_17 
REMARK    6  A    between atoms: N3_20  and  S1_21 
REMARK    7  A    between atoms: C18_27  and  C19_28 
ROOT
HETATM    1  N2  UNL     1      23.969   6.335  48.778  1.00  0.00    -0.224 NA
HETATM    2  C6  UNL     1      25.303   6.259  48.166  1.00  0.00     0.130 C 
HETATM    3  O1  UNL     1      25.964   5.718  49.348  1.00  0.00     0.000 OA
HETATM    4  C7  UNL     1      27.100   4.408  49.313  1.00  0.00    -0.015 A 
HETATM    5  C8  UNL     1      27.882   5.388  48.406  1.00  0.00    -0.012 A 
HETATM    6  C9  UNL     1      26.847   5.074  49.043  1.00  0.00     0.038 A 
HETATM    7  C10 UNL     1      25.539   4.644  49.865  1.00  0.00     0.022 A 
HETATM    8  C11 UNL     1      25.163   3.519  50.684  1.00  0.00     0.109 A 
HETATM    9  C17 UNL     1      26.382   3.492  50.154  1.00  0.00     0.048 A 
HETATM   10  C18 UNL     1      24.144   5.392  49.929  1.00  0.00     0.105 C 
ENDROOT
BRANCH   8  11
HETATM   11  O2  UNL     1      25.254   2.328  51.335  1.00  0.00    -0.369 OA
BRANCH  11  12
HETATM   12  C12 UNL     1      25.101   1.641  52.420  1.00  0.00     0.138 C 
HETATM   13  C13 UNL     1      25.422   0.133  52.340  1.00  0.00     0.048 C 
HETATM   14  C14 UNL     1      26.901   0.210  52.124  1.00  0.00     0.110 C 
HETATM   15  N3  UNL     1      27.377   1.305  52.972  1.00  0.00    -0.208 NA
HETATM   16  C16 UNL     1      26.193   1.984  53.486  1.00  0.00     0.139 C 
BRANCH  15  17
HETATM   17  S1  UNL     1      28.242   0.480  54.246  1.00  0.00     0.207 S 
HETATM   18  C15 UNL     1      29.368  -0.710  53.565  1.00  0.00     0.180 C 
HETATM   19  O3  UNL     1      28.988   1.501  55.019  1.00  0.00    -0.212 OA
HETATM   20  O4  UNL     1      27.260  -0.214  55.168  1.00  0.00    -0.212 OA
ENDBRANCH  15  17
ENDBRANCH  11  12
ENDBRANCH   8  11
BRANCH  10  21
HETATM   21  C19 UNL     1      23.902   6.186  51.100  1.00  0.00     0.137 C 
HETATM   22 CL1  UNL     1      22.248   6.922  51.150  1.00  0.00    -0.129 Cl
ENDBRANCH  10  21
BRANCH   1  23
HETATM   23  N1  UNL     1      23.110   5.766  47.870  1.00  0.00    -0.330 N 
HETATM   24  H7  UNL     1      22.855   6.313  47.021  1.00  0.00     0.180 HD
BRANCH  23  25
HETATM   25  C5  UNL     1      22.613   4.474  48.093  1.00  0.00     0.102 C 
HETATM   26  C4  UNL     1      22.130   3.550  47.329  1.00  0.00     0.021 C 
BRANCH  26  27
HETATM   27  C3  UNL     1      21.931   3.533  45.914  1.00  0.00     0.038 C 
HETATM   28  C2  UNL     1      21.065   3.798  44.998  1.00  0.00     0.090 C 
HETATM   29  C1  UNL     1      19.871   4.286  45.729  1.00  0.00     0.082 C 
HETATM   30  F1  UNL     1      20.924   3.781  43.695  1.00  0.00    -0.211 F 
ENDBRANCH  26  27
ENDBRANCH  23  25
ENDBRANCH   1  23
TORSDOF 7
ENDMDL
MODEL 7
REMARK VINA RESULT:      -7.5      4.069      7.193
REMARK  7 active torsions:
REMARK  status: ('A' for Active; 'I' for Inactive)
REMARK    1  A    between atoms: C3_4  and  C4_5 
REMARK    2  A    between atoms: C5_6  and  N1_7 
REMARK    3  A    between atoms: N1_7  and  N2_8 
REMARK    4  A    between atoms: C11_15  and  O2_16 
REMARK    5  A    between atoms: O2_16  and  C12_17 
REMARK    6  A    between atoms: N3_20  and  S1_21 
REMARK    7  A    between atoms: C18_27  and  C19_28 
ROOT
HETATM    1  N2  UNL     1      25.262   0.603  53.109  1.00  0.00    -0.224 NA
HETATM    2  C6  UNL     1      24.471  -0.359  53.889  1.00  0.00     0.130 C 
HETATM    3  O1  UNL     1      23.190   0.296  53.652  1.00  0.00     0.000 OA
HETATM    4  C7  UNL     1      21.731  -0.544  53.234  1.00  0.00    -0.015 A 
HETATM    5  C8  UNL     1      21.978  -1.222  54.603  1.00  0.00    -0.012 A 
HETATM    6  C9  UNL     1      22.350  -0.468  53.671  1.00  0.00     0.038 A 
HETATM    7  C10 UNL     1      22.797   0.489  52.464  1.00  0.00     0.022 A 
HETATM    8  C11 UNL     1      22.209   0.916  51.220  1.00  0.00     0.109 A 
HETATM    9  C17 UNL     1      21.492   0.079  51.962  1.00  0.00     0.048 A 
HETATM   10  C18 UNL     1      24.186   1.227  52.275  1.00  0.00     0.105 C 
ENDROOT
BRANCH   8  11
HETATM   11  O2  UNL     1      21.306   1.034  50.209  1.00  0.00    -0.369 OA
BRANCH  11  12
HETATM   12  C12 UNL     1      21.058   1.290  48.965  1.00  0.00     0.138 C 
HETATM   13  C13 UNL     1      19.887   2.252  48.673  1.00  0.00     0.048 C 
HETATM   14  C14 UNL     1      20.465   3.516  49.231  1.00  0.00     0.110 C 
HETATM   15  N3  UNL     1      21.884   3.506  48.870  1.00  0.00    -0.208 NA
HETATM   16  C16 UNL     1      22.169   2.185  48.322  1.00  0.00     0.139 C 
BRANCH  15  17
HETATM   17  S1  UNL     1      21.993   4.743  47.640  1.00  0.00     0.207 S 
HETATM   18  C15 UNL     1      21.903   4.021  46.022  1.00  0.00     0.180 C 
HETATM   19  O3  UNL     1      20.862   5.680  47.842  1.00  0.00    -0.212 OA
HETATM   20  O4  UNL     1      23.294   5.503  47.790  1.00  0.00    -0.212 OA
ENDBRANCH  15  17
ENDBRANCH  11  12
ENDBRANCH   8  11
BRANCH  10  21
HETATM   21  C19 UNL     1      24.215   2.622  52.614  1.00  0.00     0.137 C 
HETATM   22 CL1  UNL     1      24.607   3.702  51.213  1.00  0.00    -0.129 Cl
ENDBRANCH  10  21
BRANCH   1  23
HETATM   23  N1  UNL     1      26.067  -0.153  52.292  1.00  0.00    -0.330 N 
HETATM   24  H7  UNL     1      26.372   0.255  51.384  1.00  0.00     0.180 HD
BRANCH  23  25
HETATM   25  C5  UNL     1      26.467  -1.434  52.699  1.00  0.00     0.102 C 
HETATM   26  C4  UNL     1      27.603  -1.965  53.015  1.00  0.00     0.021 C 
BRANCH  26  27
HETATM   27  C3  UNL     1      28.909  -1.389  53.065  1.00  0.00     0.038 C 
HETATM   28  C2  UNL     1      29.628  -0.534  53.705  1.00  0.00     0.090 C 
HETATM   29  C1  UNL     1      28.728   0.022  54.745  1.00  0.00     0.082 C 
HETATM   30  F1  UNL     1      30.841  -0.038  53.729  1.00  0.00    -0.211 F 
ENDBRANCH  26  27
ENDBRANCH  23  25
ENDBRANCH   1  23
TORSDOF 7
ENDMDL
MODEL 8
REMARK VINA RESULT:      -7.4      3.145      5.914
REMARK  7 active torsions:
REMARK  status: ('A' for Active; 'I' for Inactive)
REMARK    1  A    between atoms: C3_4  and  C4_5 
REMARK    2  A    between atoms: C5_6  and  N1_7 
REMARK    3  A    between atoms: N1_7  and  N2_8 
REMARK    4  A    between atoms: C11_15  and  O2_16 
REMARK    5  A    between atoms: O2_16  and  C12_17 
REMARK    6  A    between atoms: N3_20  and  S1_21 
REMARK    7  A    between atoms: C18_27  and  C19_28 
ROOT
HETATM    1  N2  UNL     1      26.457   2.722  51.925  1.00  0.00    -0.224 NA
HETATM    2  C6  UNL     1      27.372   1.624  52.269  1.00  0.00     0.130 C 
HETATM    3  O1  UNL     1      26.524   1.063  53.314  1.00  0.00     0.000 OA
HETATM    4  C7  UNL     1      26.208  -0.631  53.505  1.00  0.00    -0.015 A 
HETATM    5  C8  UNL     1      27.744  -0.683  53.685  1.00  0.00    -0.012 A 
HETATM    6  C9  UNL     1      26.695  -0.056  53.399  1.00  0.00     0.038 A 
HETATM    7  C10 UNL     1      25.337   0.719  53.038  1.00  0.00     0.022 A 
HETATM    8  C11 UNL     1      23.940   0.373  52.988  1.00  0.00     0.109 A 
HETATM    9  C17 UNL     1      24.782  -0.594  53.338  1.00  0.00     0.048 A 
HETATM   10  C18 UNL     1      25.179   2.204  52.509  1.00  0.00     0.105 C 
ENDROOT
BRANCH   8  11
HETATM   11  O2  UNL     1      22.806  -0.373  53.076  1.00  0.00    -0.369 OA
BRANCH  11  12
HETATM   12  C12 UNL     1      21.651  -0.701  52.593  1.00  0.00     0.138 C 
HETATM   13  C13 UNL     1      20.422  -0.433  53.487  1.00  0.00     0.048 C 
HETATM   14  C14 UNL     1      20.441   1.063  53.487  1.00  0.00     0.110 C 
HETATM   15  N3  UNL     1      20.814   1.463  52.128  1.00  0.00    -0.208 NA
HETATM   16  C16 UNL     1      21.216   0.248  51.428  1.00  0.00     0.139 C 
BRANCH  15  17
HETATM   17  S1  UNL     1      19.327   2.110  51.478  1.00  0.00     0.207 S 
HETATM   18  C15 UNL     1      19.485   2.402  49.735  1.00  0.00     0.180 C 
HETATM   19  O3  UNL     1      18.255   1.117  51.731  1.00  0.00    -0.212 OA
HETATM   20  O4  UNL     1      18.976   3.403  52.184  1.00  0.00    -0.212 OA
ENDBRANCH  15  17
ENDBRANCH  11  12
ENDBRANCH   8  11
BRANCH  10  21
HETATM   21  C19 UNL     1      24.789   3.186  53.481  1.00  0.00     0.137 C 
HETATM   22 CL1  UNL     1      23.594   4.394  52.854  1.00  0.00    -0.129 Cl
ENDBRANCH  10  21
BRANCH   1  23
HETATM   23  N1  UNL     1      26.354   2.704  50.555  1.00  0.00    -0.330 N 
HETATM   24  H7  UNL     1      26.622   1.833  50.052  1.00  0.00     0.180 HD
BRANCH  23  25
HETATM   25  C5  UNL     1      25.883   3.837  49.876  1.00  0.00     0.102 C 
HETATM   26  C4  UNL     1      26.431   4.714  49.101  1.00  0.00     0.021 C 
BRANCH  26  27
HETATM   27  C3  UNL     1      27.781   4.830  48.646  1.00  0.00     0.038 C 
HETATM   28  C2  UNL     1      28.638   5.675  48.188  1.00  0.00     0.090 C 
HETATM   29  C1  UNL     1      27.911   6.966  48.128  1.00  0.00     0.082 C 
HETATM   30  F1  UNL     1      29.885   5.746  47.791  1.00  0.00    -0.211 F 
ENDBRANCH  26  27
ENDBRANCH  23  25
ENDBRANCH   1  23
TORSDOF 7
ENDMDL
MODEL 9
REMARK VINA RESULT:      -7.2      4.064      5.668
REMARK  7 active torsions:
REMARK  status: ('A' for Active; 'I' for Inactive)
REMARK    1  A    between atoms: C3_4  and  C4_5 
REMARK    2  A    between atoms: C5_6  and  N1_7 
REMARK    3  A    between atoms: N1_7  and  N2_8 
REMARK    4  A    between atoms: C11_15  and  O2_16 
REMARK    5  A    between atoms: O2_16  and  C12_17 
REMARK    6  A    between atoms: N3_20  and  S1_21 
REMARK    7  A    between atoms: C18_27  and  C19_28 
ROOT
HETATM    1  N2  UNL     1      19.705   1.673  51.458  1.00  0.00    -0.224 NA
HETATM    2  C6  UNL     1      19.572   0.757  52.600  1.00  0.00     0.130 C 
HETATM    3  O1  UNL     1      20.769  -0.017  52.294  1.00  0.00     0.000 OA
HETATM    4  C7  UNL     1      21.942  -0.503  53.475  1.00  0.00    -0.015 A 
HETATM    5  C8  UNL     1      20.719  -1.231  54.082  1.00  0.00    -0.012 A 
HETATM    6  C9  UNL     1      21.218  -0.438  53.247  1.00  0.00     0.038 A 
HETATM    7  C10 UNL     1      21.885   0.571  52.194  1.00  0.00     0.022 A 
HETATM    8  C11 UNL     1      23.222   1.033  51.917  1.00  0.00     0.109 A 
HETATM    9  C17 UNL     1      23.083   0.170  52.919  1.00  0.00     0.048 A 
HETATM   10  C18 UNL     1      21.152   1.478  51.122  1.00  0.00     0.105 C 
ENDROOT
BRANCH   8  11
HETATM   11  O2  UNL     1      24.571   1.173  52.024  1.00  0.00    -0.369 OA
BRANCH  11  12
HETATM   12  C12 UNL     1      25.598   1.943  52.188  1.00  0.00     0.138 C 
HETATM   13  C13 UNL     1      25.913   2.383  53.634  1.00  0.00     0.048 C 
HETATM   14  C14 UNL     1      26.311   1.060  54.211  1.00  0.00     0.110 C 
HETATM   15  N3  UNL     1      27.080   0.379  53.167  1.00  0.00    -0.208 NA
HETATM   16  C16 UNL     1      26.942   1.178  51.954  1.00  0.00     0.139 C 
BRANCH  15  17
HETATM   17  S1  UNL     1      28.717   0.428  53.778  1.00  0.00     0.207 S 
HETATM   18  C15 UNL     1      29.553  -1.100  53.441  1.00  0.00     0.180 C 
HETATM   19  O3  UNL     1      29.416   1.549  53.104  1.00  0.00    -0.212 OA
HETATM   20  O4  UNL     1      28.701   0.684  55.271  1.00  0.00    -0.212 OA
ENDBRANCH  15  17
ENDBRANCH  11  12
ENDBRANCH   8  11
BRANCH  10  21
HETATM   21  C19 UNL     1      21.157   0.994  49.770  1.00  0.00     0.137 C 
HETATM   22 CL1  UNL     1      22.182   1.981  48.649  1.00  0.00    -0.129 Cl
ENDBRANCH  10  21
BRANCH   1  23
HETATM   23  N1  UNL     1      19.540   2.936  51.973  1.00  0.00    -0.330 N 
HETATM   24  H7  UNL     1      20.086   3.198  52.821  1.00  0.00     0.180 HD
BRANCH  23  25
HETATM   25  C5  UNL     1      18.665   3.836  51.349  1.00  0.00     0.102 C 
HETATM   26  C4  UNL     1      17.395   3.834  51.104  1.00  0.00     0.021 C 
BRANCH  26  27
HETATM   27  C3  UNL     1      16.398   2.857  51.407  1.00  0.00     0.038 C 
HETATM   28  C2  UNL     1      15.344   2.657  52.120  1.00  0.00     0.090 C 
HETATM   29  C1  UNL     1      15.147   3.917  52.876  1.00  0.00     0.082 C 
HETATM   30  F1  UNL     1      14.438   1.741  52.362  1.00  0.00    -0.211 F 
ENDBRANCH  26  27
ENDBRANCH  23  25
ENDBRANCH   1  23
TORSDOF 7
ENDMDL
