MODEL 1
REMARK VINA RESULT:      -7.9      0.000      0.000
REMARK  3 active torsions:
REMARK  status: ('A' for Active; 'I' for Inactive)
REMARK    1  A    between atoms: C4_5  and  O1_6 
REMARK    2  A    between atoms: C10_15  and  C11_16 
REMARK    3  A    between atoms: C12_18  and  N3_19 
ROOT
HETATM    1  C1  UNL     1      26.817   3.026  50.886  1.00  0.00     0.041 C 
HETATM    2  C2  UNL     1      26.369   1.944  51.582  1.00  0.00    -0.045 C 
HETATM    3  C3  UNL     1      27.373   1.185  52.338  1.00  0.00     0.119 C 
HETATM    4  S1  UNL     1      26.764   0.854  54.055  1.00  0.00    -0.079 SA
HETATM    5  C4  UNL     1      25.489  -0.465  53.889  1.00  0.00     0.227 C 
HETATM    6  N1  UNL     1      24.453  -0.425  54.581  1.00  0.00    -0.100 NA
HETATM    7  O2  UNL     1      23.325  -1.193  54.716  1.00  0.00    -0.248 OA
HETATM    8  C5  UNL     1      22.354  -1.147  53.637  1.00  0.00     0.160 C 
HETATM    9  C6  UNL     1      22.682  -0.055  52.695  1.00  0.00     0.004 C 
HETATM   10  C7  UNL     1      23.245   0.888  51.939  1.00  0.00     0.016 C 
HETATM   11  C8  UNL     1      24.672   1.381  51.774  1.00  0.00     0.076 C 
HETATM   12  C9  UNL     1      25.103   2.369  51.030  1.00  0.00     0.043 C 
HETATM   13  N2  UNL     1      24.282   3.260  50.218  1.00  0.00    -0.253 NA
HETATM   14  C10 UNL     1      23.490   4.049  50.922  1.00  0.00     0.091 C 
HETATM   15  C12 UNL     1      22.476   5.052  51.333  1.00  0.00     0.273 C 
HETATM   16  C14 UNL     1      21.333   4.404  52.094  1.00  0.00     0.042 C 
HETATM   17  C15 UNL     1      20.487   3.562  51.207  1.00  0.00     0.006 C 
HETATM   18  C16 UNL     1      19.383   2.773  51.909  1.00  0.00     0.028 C 
HETATM   19  C17 UNL     1      19.946   1.629  52.708  1.00  0.00    -0.015 C 
HETATM   20  P1  UNL     1      19.872  -0.027  53.035  1.00  0.00    -0.063 P 
HETATM   21  C18 UNL     1      21.014  -0.842  54.287  1.00  0.00     0.077 C 
ENDROOT
BRANCH  15  22
HETATM   22  N3  UNL     1      21.899   5.697  50.148  1.00  0.00     0.089 N 
HETATM   23  C13 UNL     1      21.588   7.094  50.453  1.00  0.00     0.307 C 
HETATM   24  H12 UNL     1      22.628   5.728  49.397  1.00  0.00     0.316 HD
ENDBRANCH  15  22
BRANCH  14  25
HETATM   25  C11 UNL     1      23.805   3.673  52.334  1.00  0.00     0.407 C 
HETATM   26  O3  UNL     1      24.141   3.695  53.561  1.00  0.00    -0.404 OA
ENDBRANCH  14  25
BRANCH   5  27
HETATM   27  O1  UNL     1      25.948  -1.387  52.903  1.00  0.00    -0.338 OA
HETATM   28  H5  UNL     1      25.324  -2.221  52.838  1.00  0.00     0.220 HD
ENDBRANCH   5  27
TORSDOF 3
ENDMDL
MODEL 2
REMARK VINA RESULT:      -7.7      3.056      5.380
REMARK  3 active torsions:
REMARK  status: ('A' for Active; 'I' for Inactive)
REMARK    1  A    between atoms: C4_5  and  O1_6 
REMARK    2  A    between atoms: C10_15  and  C11_16 
REMARK    3  A    between atoms: C12_18  and  N3_19 
ROOT
HETATM    1  C1  UNL     1      21.938   6.432  49.610  1.00  0.00     0.041 C 
HETATM    2  C2  UNL     1      21.398   5.374  50.276  1.00  0.00    -0.045 C 
HETATM    3  C3  UNL     1      19.949   5.181  50.146  1.00  0.00     0.119 C 
HETATM    4  S1  UNL     1      19.572   3.409  49.765  1.00  0.00    -0.079 SA
HETATM    5  C4  UNL     1      19.830   2.492  51.341  1.00  0.00     0.227 C 
HETATM    6  N1  UNL     1      20.359   1.363  51.329  1.00  0.00    -0.100 NA
HETATM    7  O2  UNL     1      20.707   0.426  52.267  1.00  0.00    -0.248 OA
HETATM    8  C5  UNL     1      21.851   0.721  53.112  1.00  0.00     0.160 C 
HETATM    9  C6  UNL     1      22.575   1.905  52.603  1.00  0.00     0.004 C 
HETATM   10  C7  UNL     1      22.973   3.044  52.036  1.00  0.00     0.016 C 
HETATM   11  C8  UNL     1      22.261   4.112  51.225  1.00  0.00     0.076 C 
HETATM   12  C9  UNL     1      22.777   5.176  50.662  1.00  0.00     0.043 C 
HETATM   13  N2  UNL     1      24.188   5.550  50.652  1.00  0.00    -0.253 NA
HETATM   14  C10 UNL     1      24.954   4.728  49.955  1.00  0.00     0.091 C 
HETATM   15  C12 UNL     1      26.114   4.060  49.314  1.00  0.00     0.273 C 
HETATM   16  C14 UNL     1      26.307   2.653  49.850  1.00  0.00     0.042 C 
HETATM   17  C15 UNL     1      26.787   2.660  51.258  1.00  0.00     0.006 C 
HETATM   18  C16 UNL     1      26.895   1.288  51.921  1.00  0.00     0.028 C 
HETATM   19  C17 UNL     1      25.537   0.716  52.228  1.00  0.00    -0.015 C 
HETATM   20  P1  UNL     1      24.536   0.026  53.402  1.00  0.00    -0.063 P 
HETATM   21  C18 UNL     1      22.769  -0.487  53.019  1.00  0.00     0.077 C 
ENDROOT
BRANCH  15  22
HETATM   22  N3  UNL     1      27.344   4.807  49.599  1.00  0.00     0.089 N 
HETATM   23  C13 UNL     1      27.721   5.596  48.426  1.00  0.00     0.307 C 
HETATM   24  H12 UNL     1      27.144   5.503  50.355  1.00  0.00     0.316 HD
ENDBRANCH  15  22
BRANCH  14  25
HETATM   25  C11 UNL     1      23.983   3.716  49.437  1.00  0.00     0.407 C 
HETATM   26  O3  UNL     1      23.385   2.844  48.730  1.00  0.00    -0.404 OA
ENDBRANCH  14  25
BRANCH   5  27
HETATM   27  O1  UNL     1      19.339   3.310  52.401  1.00  0.00    -0.338 OA
HETATM   28  H5  UNL     1      19.224   4.302  52.099  1.00  0.00     0.220 HD
ENDBRANCH   5  27
TORSDOF 3
ENDMDL
MODEL 3
REMARK VINA RESULT:      -7.6      3.215      6.255
REMARK  3 active torsions:
REMARK  status: ('A' for Active; 'I' for Inactive)
REMARK    1  A    between atoms: C4_5  and  O1_6 
REMARK    2  A    between atoms: C10_15  and  C11_16 
REMARK    3  A    between atoms: C12_18  and  N3_19 
ROOT
HETATM    1  C1  UNL     1      18.588   2.264  49.558  1.00  0.00     0.041 C 
HETATM    2  C2  UNL     1      19.857   2.753  49.478  1.00  0.00    -0.045 C 
HETATM    3  C3  UNL     1      20.029   4.031  48.778  1.00  0.00     0.119 C 
HETATM    4  S1  UNL     1      21.092   5.170  49.779  1.00  0.00    -0.079 SA
HETATM    5  C4  UNL     1      22.810   4.530  49.609  1.00  0.00     0.227 C 
HETATM    6  N1  UNL     1      23.581   4.535  50.589  1.00  0.00    -0.100 NA
HETATM    7  O2  UNL     1      24.873   4.145  50.831  1.00  0.00    -0.248 OA
HETATM    8  C5  UNL     1      25.137   2.719  50.897  1.00  0.00     0.160 C 
HETATM    9  C6  UNL     1      23.869   1.961  50.931  1.00  0.00     0.004 C 
HETATM   10  C7  UNL     1      22.620   1.505  50.824  1.00  0.00     0.016 C 
HETATM   11  C8  UNL     1      21.349   2.072  50.215  1.00  0.00     0.076 C 
HETATM   12  C9  UNL     1      20.149   1.548  50.222  1.00  0.00     0.043 C 
HETATM   13  N2  UNL     1      19.753   0.303  50.870  1.00  0.00    -0.253 NA
HETATM   14  C10 UNL     1      19.814   0.343  52.190  1.00  0.00     0.091 C 
HETATM   15  C12 UNL     1      19.768  -0.011  53.630  1.00  0.00     0.273 C 
HETATM   16  C14 UNL     1      21.141   0.092  54.269  1.00  0.00     0.042 C 
HETATM   17  C15 UNL     1      22.055  -0.980  53.791  1.00  0.00     0.006 C 
HETATM   18  C16 UNL     1      23.496  -0.885  54.288  1.00  0.00     0.028 C 
HETATM   19  C17 UNL     1      24.234   0.246  53.624  1.00  0.00    -0.015 C 
HETATM   20  P1  UNL     1      25.618   0.714  52.775  1.00  0.00    -0.063 P 
HETATM   21  C18 UNL     1      25.878   2.486  52.204  1.00  0.00     0.077 C 
ENDROOT
BRANCH  15  22
HETATM   22  N3  UNL     1      19.316  -1.396  53.793  1.00  0.00     0.089 N 
HETATM   23  C13 UNL     1      17.914  -1.505  53.388  1.00  0.00     0.307 C 
HETATM   24  H12 UNL     1      19.850  -2.002  53.126  1.00  0.00     0.316 HD
ENDBRANCH  15  22
BRANCH  14  25
HETATM   25  C11 UNL     1      20.279   1.737  52.465  1.00  0.00     0.407 C 
HETATM   26  O3  UNL     1      20.418   2.910  52.937  1.00  0.00    -0.404 OA
ENDBRANCH  14  25
BRANCH   5  27
HETATM   27  O1  UNL     1      22.977   4.095  48.261  1.00  0.00    -0.338 OA
HETATM   28  H5  UNL     1      22.415   4.674  47.598  1.00  0.00     0.220 HD
ENDBRANCH   5  27
TORSDOF 3
ENDMDL
MODEL 4
REMARK VINA RESULT:      -7.2      2.784      5.151
REMARK  3 active torsions:
REMARK  status: ('A' for Active; 'I' for Inactive)
REMARK    1  A    between atoms: C4_5  and  O1_6 
REMARK    2  A    between atoms: C10_15  and  C11_16 
REMARK    3  A    between atoms: C12_18  and  N3_19 
ROOT
HETATM    1  C1  UNL     1      22.700  -0.992  54.052  1.00  0.00     0.041 C 
HETATM    2  C2  UNL     1      23.399   0.105  53.647  1.00  0.00    -0.045 C 
HETATM    3  C3  UNL     1      24.862  -0.005  53.656  1.00  0.00     0.119 C 
HETATM    4  S1  UNL     1      25.560   0.626  52.061  1.00  0.00    -0.079 SA
HETATM    5  C4  UNL     1      25.422   2.460  52.145  1.00  0.00     0.227 C 
HETATM    6  N1  UNL     1      25.102   3.112  51.131  1.00  0.00    -0.100 NA
HETATM    7  O2  UNL     1      24.899   4.434  50.830  1.00  0.00    -0.248 OA
HETATM    8  C5  UNL     1      23.696   5.059  51.352  1.00  0.00     0.160 C 
HETATM    9  C6  UNL     1      22.788   4.037  51.916  1.00  0.00     0.004 C 
HETATM   10  C7  UNL     1      22.211   2.968  52.465  1.00  0.00     0.016 C 
HETATM   11  C8  UNL     1      22.747   1.652  53.003  1.00  0.00     0.076 C 
HETATM   12  C9  UNL     1      22.066   0.637  53.474  1.00  0.00     0.043 C 
HETATM   13  N2  UNL     1      20.613   0.528  53.541  1.00  0.00    -0.253 NA
HETATM   14  C10 UNL     1      20.025   0.458  52.359  1.00  0.00     0.091 C 
HETATM   15  C12 UNL     1      19.023   0.378  51.268  1.00  0.00     0.273 C 
HETATM   16  C14 UNL     1      19.066   1.613  50.386  1.00  0.00     0.042 C 
HETATM   17  C15 UNL     1      18.551   2.816  51.094  1.00  0.00     0.006 C 
HETATM   18  C16 UNL     1      18.669   4.131  50.325  1.00  0.00     0.028 C 
HETATM   19  C17 UNL     1      20.097   4.600  50.252  1.00  0.00    -0.015 C 
HETATM   20  P1  UNL     1      21.170   5.882  50.505  1.00  0.00    -0.063 P 
HETATM   21  C18 UNL     1      23.010   5.715  50.163  1.00  0.00     0.077 C 
ENDROOT
BRANCH  15  22
HETATM   22  N3  UNL     1      17.672   0.296  51.833  1.00  0.00     0.089 N 
HETATM   23  C13 UNL     1      17.501  -0.990  52.511  1.00  0.00     0.307 C 
HETATM   24  H12 UNL     1      17.578   1.023  52.581  1.00  0.00     0.316 HD
ENDBRANCH  15  22
BRANCH  14  25
HETATM   25  C11 UNL     1      21.175   0.512  51.406  1.00  0.00     0.407 C 
HETATM   26  O3  UNL     1      21.917   0.422  50.376  1.00  0.00    -0.404 OA
ENDBRANCH  14  25
BRANCH   5  27
HETATM   27  O1  UNL     1      25.728   2.856  53.480  1.00  0.00    -0.338 OA
HETATM   28  H5  UNL     1      25.477   2.111  54.168  1.00  0.00     0.220 HD
ENDBRANCH   5  27
TORSDOF 3
ENDMDL
MODEL 5
REMARK VINA RESULT:      -6.9      2.929      4.010
REMARK  3 active torsions:
REMARK  status: ('A' for Active; 'I' for Inactive)
REMARK    1  A    between atoms: C4_5  and  O1_6 
REMARK    2  A    between atoms: C10_15  and  C11_16 
REMARK    3  A    between atoms: C12_18  and  N3_19 
ROOT
HETATM    1  C1  UNL     1      22.426   3.469  47.987  1.00  0.00     0.041 C 
HETATM    2  C2  UNL     1      23.077   2.965  49.073  1.00  0.00    -0.045 C 
HETATM    3  C3  UNL     1      24.367   3.577  49.411  1.00  0.00     0.119 C 
HETATM    4  S1  UNL     1      24.441   3.951  51.222  1.00  0.00    -0.079 SA
HETATM    5  C4  UNL     1      24.677   2.329  52.061  1.00  0.00     0.227 C 
HETATM    6  N1  UNL     1      24.087   2.085  53.132  1.00  0.00    -0.100 NA
HETATM    7  O2  UNL     1      24.015   1.027  54.001  1.00  0.00    -0.248 OA
HETATM    8  C5  UNL     1      23.269  -0.141  53.568  1.00  0.00     0.160 C 
HETATM    9  C6  UNL     1      22.511   0.160  52.335  1.00  0.00     0.004 C 
HETATM   10  C7  UNL     1      22.034   0.625  51.180  1.00  0.00     0.016 C 
HETATM   11  C8  UNL     1      22.502   1.699  50.213  1.00  0.00     0.076 C 
HETATM   12  C9  UNL     1      21.909   2.114  49.121  1.00  0.00     0.043 C 
HETATM   13  N2  UNL     1      20.621   1.659  48.610  1.00  0.00    -0.253 NA
HETATM   14  C10 UNL     1      19.594   1.993  49.373  1.00  0.00     0.091 C 
HETATM   15  C12 UNL     1      18.233   2.150  49.943  1.00  0.00     0.273 C 
HETATM   16  C14 UNL     1      18.125   1.492  51.306  1.00  0.00     0.042 C 
HETATM   17  C15 UNL     1      18.172   0.008  51.209  1.00  0.00     0.006 C 
HETATM   18  C16 UNL     1      18.191  -0.736  52.543  1.00  0.00     0.028 C 
HETATM   19  C17 UNL     1      19.519  -0.590  53.236  1.00  0.00    -0.015 C 
HETATM   20  P1  UNL     1      20.808  -1.386  53.985  1.00  0.00    -0.063 P 
HETATM   21  C18 UNL     1      22.280  -0.448  54.682  1.00  0.00     0.077 C 
ENDROOT
BRANCH  15  22
HETATM   22  N3  UNL     1      17.246   1.505  49.070  1.00  0.00     0.089 N 
HETATM   23  C13 UNL     1      16.009   2.287  49.067  1.00  0.00     0.307 C 
HETATM   24  H12 UNL     1      17.602   1.536  48.085  1.00  0.00     0.316 HD
ENDBRANCH  15  22
BRANCH  14  25
HETATM   25  C11 UNL     1      20.235   2.751  50.491  1.00  0.00     0.407 C 
HETATM   26  O3  UNL     1      20.494   3.593  51.409  1.00  0.00    -0.404 OA
ENDBRANCH  14  25
BRANCH   5  27
HETATM   27  O1  UNL     1      25.574   1.558  51.264  1.00  0.00    -0.338 OA
HETATM   28  H5  UNL     1      26.074   0.840  51.834  1.00  0.00     0.220 HD
ENDBRANCH   5  27
TORSDOF 3
ENDMDL
MODEL 6
REMARK VINA RESULT:      -6.7      4.049      5.765
REMARK  3 active torsions:
REMARK  status: ('A' for Active; 'I' for Inactive)
REMARK    1  A    between atoms: C4_5  and  O1_6 
REMARK    2  A    between atoms: C10_15  and  C11_16 
REMARK    3  A    between atoms: C12_18  and  N3_19 
ROOT
HETATM    1  C1  UNL     1      24.967   2.594  52.377  1.00  0.00     0.041 C 
HETATM    2  C2  UNL     1      23.883   2.311  51.603  1.00  0.00    -0.045 C 
HETATM    3  C3  UNL     1      22.902   1.372  52.158  1.00  0.00     0.119 C 
HETATM    4  S1  UNL     1      21.188   2.042  51.954  1.00  0.00    -0.079 SA
HETATM    5  C4  UNL     1      20.781   1.841  50.170  1.00  0.00     0.227 C 
HETATM    6  N1  UNL     1      20.147   2.730  49.567  1.00  0.00    -0.100 NA
HETATM    7  O2  UNL     1      19.691   2.925  48.289  1.00  0.00    -0.248 OA
HETATM    8  C5  UNL     1      20.679   3.233  47.269  1.00  0.00     0.160 C 
HETATM    9  C6  UNL     1      21.988   3.522  47.891  1.00  0.00     0.004 C 
HETATM   10  C7  UNL     1      23.073   3.614  48.662  1.00  0.00     0.016 C 
HETATM   11  C8  UNL     1      23.449   3.026  50.011  1.00  0.00     0.076 C 
HETATM   12  C9  UNL     1      24.538   3.238  50.707  1.00  0.00     0.043 C 
HETATM   13  N2  UNL     1      25.628   4.141  50.354  1.00  0.00    -0.253 NA
HETATM   14  C10 UNL     1      25.291   5.419  50.369  1.00  0.00     0.091 C 
HETATM   15  C12 UNL     1      25.306   6.898  50.254  1.00  0.00     0.273 C 
HETATM   16  C14 UNL     1      24.327   7.381  49.199  1.00  0.00     0.042 C 
HETATM   17  C15 UNL     1      24.780   7.032  47.825  1.00  0.00     0.006 C 
HETATM   18  C16 UNL     1      23.798   7.372  46.705  1.00  0.00     0.028 C 
HETATM   19  C17 UNL     1      22.613   6.445  46.711  1.00  0.00    -0.015 C 
HETATM   20  P1  UNL     1      21.640   5.402  45.804  1.00  0.00    -0.063 P 
HETATM   21  C18 UNL     1      20.186   4.489  46.569  1.00  0.00     0.077 C 
ENDROOT
BRANCH  15  22
HETATM   22  N3  UNL     1      26.639   7.357  49.852  1.00  0.00     0.089 N 
HETATM   23  C13 UNL     1      26.792   8.773  50.188  1.00  0.00     0.307 C 
HETATM   24  H12 UNL     1      27.354   6.852  50.428  1.00  0.00     0.316 HD
ENDBRANCH  15  22
BRANCH  14  25
HETATM   25  C11 UNL     1      23.854   5.386  50.779  1.00  0.00     0.407 C 
HETATM   26  O3  UNL     1      22.728   5.637  51.314  1.00  0.00    -0.404 OA
ENDBRANCH  14  25
BRANCH   5  27
HETATM   27  O1  UNL     1      21.315   0.590  49.743  1.00  0.00    -0.338 OA
HETATM   28  H5  UNL     1      20.704  -0.206  50.031  1.00  0.00     0.220 HD
ENDBRANCH   5  27
TORSDOF 3
ENDMDL
MODEL 7
REMARK VINA RESULT:      -6.4      2.952      5.568
REMARK  3 active torsions:
REMARK  status: ('A' for Active; 'I' for Inactive)
REMARK    1  A    between atoms: C4_5  and  O1_6 
REMARK    2  A    between atoms: C10_15  and  C11_16 
REMARK    3  A    between atoms: C12_18  and  N3_19 
ROOT
HETATM    1  C1  UNL     1      25.125   1.274  52.712  1.00  0.00     0.041 C 
HETATM    2  C2  UNL     1      25.074   2.409  51.961  1.00  0.00    -0.045 C 
HETATM    3  C3  UNL     1      26.332   2.853  51.350  1.00  0.00     0.119 C 
HETATM    4  S1  UNL     1      26.063   3.270  49.566  1.00  0.00    -0.079 SA
HETATM    5  C4  UNL     1      25.169   4.879  49.556  1.00  0.00     0.227 C 
HETATM    6  N1  UNL     1      24.259   5.086  48.729  1.00  0.00    -0.100 NA
HETATM    7  O2  UNL     1      23.401   6.116  48.442  1.00  0.00    -0.248 OA
HETATM    8  C5  UNL     1      22.319   6.363  49.378  1.00  0.00     0.160 C 
HETATM    9  C6  UNL     1      22.221   5.258  50.356  1.00  0.00     0.004 C 
HETATM   10  C7  UNL     1      22.412   4.229  51.182  1.00  0.00     0.016 C 
HETATM   11  C8  UNL     1      23.625   3.387  51.540  1.00  0.00     0.076 C 
HETATM   12  C9  UNL     1      23.679   2.348  52.335  1.00  0.00     0.043 C 
HETATM   13  N2  UNL     1      22.554   1.731  53.028  1.00  0.00    -0.253 NA
HETATM   14  C10 UNL     1      21.681   1.151  52.222  1.00  0.00     0.091 C 
HETATM   15  C12 UNL     1      20.503   0.432  51.677  1.00  0.00     0.273 C 
HETATM   16  C14 UNL     1      19.681   1.328  50.767  1.00  0.00     0.042 C 
HETATM   17  C15 UNL     1      18.977   2.393  51.530  1.00  0.00     0.006 C 
HETATM   18  C16 UNL     1      18.221   3.416  50.684  1.00  0.00     0.028 C 
HETATM   19  C17 UNL     1      19.165   4.344  49.969  1.00  0.00    -0.015 C 
HETATM   20  P1  UNL     1      19.573   5.950  49.636  1.00  0.00    -0.063 P 
HETATM   21  C18 UNL     1      21.043   6.394  48.551  1.00  0.00     0.077 C 
ENDROOT
BRANCH  15  22
HETATM   22  N3  UNL     1      19.626   0.003  52.771  1.00  0.00     0.089 N 
HETATM   23  C13 UNL     1      20.388  -0.811  53.719  1.00  0.00     0.307 C 
HETATM   24  H12 UNL     1      19.322   0.850  53.307  1.00  0.00     0.316 HD
ENDBRANCH  15  22
BRANCH  14  25
HETATM   25  C11 UNL     1      22.267   1.381  50.866  1.00  0.00     0.407 C 
HETATM   26  O3  UNL     1      22.513   1.355  49.618  1.00  0.00    -0.404 OA
ENDBRANCH  14  25
BRANCH   5  27
HETATM   27  O1  UNL     1      25.720   5.685  50.595  1.00  0.00    -0.338 OA
HETATM   28  H5  UNL     1      25.979   5.112  51.429  1.00  0.00     0.220 HD
ENDBRANCH   5  27
TORSDOF 3
ENDMDL
MODEL 8
REMARK VINA RESULT:      -6.3      9.179     12.688
REMARK  3 active torsions:
REMARK  status: ('A' for Active; 'I' for Inactive)
REMARK    1  A    between atoms: C4_5  and  O1_6 
REMARK    2  A    between atoms: C10_15  and  C11_16 
REMARK    3  A    between atoms: C12_18  and  N3_19 
ROOT
HETATM    1  C1  UNL     1      28.649   5.256  48.433  1.00  0.00     0.041 C 
HETATM    2  C2  UNL     1      28.353   6.497  47.955  1.00  0.00    -0.045 C 
HETATM    3  C3  UNL     1      26.999   6.999  48.214  1.00  0.00     0.119 C 
HETATM    4  S1  UNL     1      27.074   8.735  48.853  1.00  0.00    -0.079 SA
HETATM    5  C4  UNL     1      27.483   9.787  47.398  1.00  0.00     0.227 C 
HETATM    6  N1  UNL     1      28.268  10.748  47.520  1.00  0.00    -0.100 NA
HETATM    7  O2  UNL     1      28.794  11.706  46.692  1.00  0.00    -0.248 OA
HETATM    8  C5  UNL     1      29.799  11.279  45.735  1.00  0.00     0.160 C 
HETATM    9  C6  UNL     1      30.237   9.899  46.029  1.00  0.00     0.004 C 
HETATM   10  C7  UNL     1      30.372   8.628  46.409  1.00  0.00     0.016 C 
HETATM   11  C8  UNL     1      29.456   7.648  47.122  1.00  0.00     0.076 C 
HETATM   12  C9  UNL     1      29.723   6.422  47.499  1.00  0.00     0.043 C 
HETATM   13  N2  UNL     1      31.002   5.734  47.358  1.00  0.00    -0.253 NA
HETATM   14  C10 UNL     1      31.970   6.244  48.099  1.00  0.00     0.091 C 
HETATM   15  C12 UNL     1      33.280   6.524  48.738  1.00  0.00     0.273 C 
HETATM   16  C14 UNL     1      33.785   7.910  48.380  1.00  0.00     0.042 C 
HETATM   17  C15 UNL     1      34.194   7.998  46.952  1.00  0.00     0.006 C 
HETATM   18  C16 UNL     1      34.602   9.389  46.471  1.00  0.00     0.028 C 
HETATM   19  C17 UNL     1      33.410  10.299  46.342  1.00  0.00    -0.015 C 
HETATM   20  P1  UNL     1      32.559  11.366  45.345  1.00  0.00    -0.063 P 
HETATM   21  C18 UNL     1      30.984  12.215  45.920  1.00  0.00     0.077 C 
ENDROOT
BRANCH  15  22
HETATM   22  N3  UNL     1      34.283   5.562  48.268  1.00  0.00     0.089 N 
HETATM   23  C13 UNL     1      35.391   5.503  49.222  1.00  0.00     0.307 C 
HETATM   24  H12 UNL     1      33.855   4.605  48.273  1.00  0.00     0.316 HD
ENDBRANCH  15  22
BRANCH  14  25
HETATM   25  C11 UNL     1      31.292   7.367  48.816  1.00  0.00     0.407 C 
HETATM   26  O3  UNL     1      31.002   8.305  49.625  1.00  0.00    -0.404 OA
ENDBRANCH  14  25
BRANCH   5  27
HETATM   27  O1  UNL     1      26.769   9.270  46.277  1.00  0.00    -0.338 OA
HETATM   28  H5  UNL     1      26.426   8.300  46.455  1.00  0.00     0.220 HD
ENDBRANCH   5  27
TORSDOF 3
ENDMDL
MODEL 9
REMARK VINA RESULT:      -6.3      8.615     11.927
REMARK  3 active torsions:
REMARK  status: ('A' for Active; 'I' for Inactive)
REMARK    1  A    between atoms: C4_5  and  O1_6 
REMARK    2  A    between atoms: C10_15  and  C11_16 
REMARK    3  A    between atoms: C12_18  and  N3_19 
ROOT
HETATM    1  C1  UNL     1      28.474   5.470  48.237  1.00  0.00     0.041 C 
HETATM    2  C2  UNL     1      27.722   6.606  48.247  1.00  0.00    -0.045 C 
HETATM    3  C3  UNL     1      26.465   6.558  49.004  1.00  0.00     0.119 C 
HETATM    4  S1  UNL     1      26.312   8.055  50.083  1.00  0.00    -0.079 SA
HETATM    5  C4  UNL     1      25.900   9.448  48.952  1.00  0.00     0.227 C 
HETATM    6  N1  UNL     1      26.403  10.574  49.134  1.00  0.00    -0.100 NA
HETATM    7  O2  UNL     1      26.340  11.796  48.517  1.00  0.00    -0.248 OA
HETATM    8  C5  UNL     1      27.017  11.933  47.239  1.00  0.00     0.160 C 
HETATM    9  C6  UNL     1      27.869  10.753  46.979  1.00  0.00     0.004 C 
HETATM   10  C7  UNL     1      28.449   9.554  46.913  1.00  0.00     0.016 C 
HETATM   11  C8  UNL     1      28.126   8.202  47.525  1.00  0.00     0.076 C 
HETATM   12  C9  UNL     1      28.814   7.091  47.434  1.00  0.00     0.043 C 
HETATM   13  N2  UNL     1      30.091   6.919  46.751  1.00  0.00    -0.253 NA
HETATM   14  C10 UNL     1      31.093   7.570  47.316  1.00  0.00     0.091 C 
HETATM   15  C12 UNL     1      32.426   8.145  47.625  1.00  0.00     0.273 C 
HETATM   16  C14 UNL     1      32.400   9.662  47.571  1.00  0.00     0.042 C 
HETATM   17  C15 UNL     1      32.242  10.162  46.179  1.00  0.00     0.006 C 
HETATM   18  C16 UNL     1      32.085  11.675  46.039  1.00  0.00     0.028 C 
HETATM   19  C17 UNL     1      30.733  12.134  46.516  1.00  0.00    -0.015 C 
HETATM   20  P1  UNL     1      29.343  13.024  46.154  1.00  0.00    -0.063 P 
HETATM   21  C18 UNL     1      27.910  13.158  47.363  1.00  0.00     0.077 C 
ENDROOT
BRANCH  15  22
HETATM   22  N3  UNL     1      33.409   7.692  46.635  1.00  0.00     0.089 N 
HETATM   23  C13 UNL     1      33.776   6.302  46.910  1.00  0.00     0.307 C 
HETATM   24  H12 UNL     1      32.954   7.682  45.692  1.00  0.00     0.316 HD
ENDBRANCH  15  22
BRANCH  14  25
HETATM   25  C11 UNL     1      30.447   8.232  48.491  1.00  0.00     0.407 C 
HETATM   26  O3  UNL     1      30.230   8.816  49.599  1.00  0.00    -0.404 OA
ENDBRANCH  14  25
BRANCH   5  27
HETATM   27  O1  UNL     1      24.995   8.952  47.968  1.00  0.00    -0.338 OA
HETATM   28  H5  UNL     1      24.443   8.142  48.328  1.00  0.00     0.220 HD
ENDBRANCH   5  27
TORSDOF 3
ENDMDL
