MODEL 1
REMARK VINA RESULT:      -8.3      0.000      0.000
REMARK  5 active torsions:
REMARK  status: ('A' for Active; 'I' for Inactive)
REMARK    1  A    between atoms: C1_2  and  N2_3 
REMARK    2  A    between atoms: N4_8  and  C5_9 
REMARK    3  A    between atoms: C9_15  and  C10_16 
REMARK    4  A    between atoms: C10_16  and  N7_17 
REMARK    5  A    between atoms: C13_20  and  N8_21 
ROOT
HETATM    1  C5  UNL     1      23.206   4.241  51.026  1.00  0.00     0.317 A 
HETATM    2  C6  UNL     1      22.415   4.483  49.772  1.00  0.00     0.154 A 
HETATM    3  N5  UNL     1      21.833   3.401  49.390  1.00  0.00    -0.182 NA
HETATM    4  N6  UNL     1      22.134   2.356  50.279  1.00  0.00    -0.247 N 
HETATM    5  C7  UNL     1      21.848   1.046  50.398  1.00  0.00     0.119 A 
HETATM    6  C8  UNL     1      22.539   0.685  51.544  1.00  0.00     0.030 A 
HETATM    7  C9  UNL     1      23.227   1.778  52.098  1.00  0.00    -0.012 A 
HETATM    8  C16 UNL     1      22.943   2.828  51.260  1.00  0.00     0.082 A 
ENDROOT
BRANCH   1   9
HETATM    9  N4  UNL     1      24.619   4.466  50.781  1.00  0.00     0.108 N 
HETATM   10  C4  UNL     1      24.825   5.816  50.282  1.00  0.00     0.290 C 
HETATM   11  C3  UNL     1      25.465   5.819  48.938  1.00  0.00     0.108 A 
HETATM   12  C2  UNL     1      25.873   7.132  48.424  1.00  0.00     0.124 A 
HETATM   13  C19 UNL     1      26.764   5.069  48.937  1.00  0.00     0.046 A 
HETATM   14  N3  UNL     1      27.149   7.225  48.134  1.00  0.00    -0.182 NA
HETATM   15  N2  UNL     1      27.746   5.968  48.431  1.00  0.00    -0.232 N 
HETATM   16  C18 UNL     1      26.539   3.849  49.405  1.00  0.00     0.031 C 
HETATM   17  C17 UNL     1      25.136   3.532  49.794  1.00  0.00     0.303 C 
BRANCH  15  18
HETATM   18  C1  UNL     1      29.071   5.492  48.316  1.00  0.00     0.225 C 
HETATM   19  N1  UNL     1      30.116   5.539  49.063  1.00  0.00    -0.293 NA
HETATM   20  H1  UNL     1      30.109   6.004  49.979  1.00  0.00     0.187 HD
ENDBRANCH  15  18
ENDBRANCH   1   9
BRANCH   7  21
HETATM   21  C10 UNL     1      23.976   1.529  53.337  1.00  0.00     0.157 C 
BRANCH  21  22
HETATM   22  N7  UNL     1      25.172   0.824  53.113  1.00  0.00    -0.408 N 
HETATM   23  C11 UNL     1      26.118   1.288  52.187  1.00  0.00     0.119 C 
HETATM   24  C12 UNL     1      27.521   1.019  52.730  1.00  0.00     0.055 C 
HETATM   25  C13 UNL     1      27.480  -0.257  53.499  1.00  0.00     0.221 C 
HETATM   26  C14 UNL     1      26.395  -1.206  52.993  1.00  0.00     0.055 C 
HETATM   27  C15 UNL     1      25.028  -0.617  53.157  1.00  0.00     0.119 C 
BRANCH  25  28
HETATM   28  N8  UNL     1      27.246  -0.036  54.926  1.00  0.00     0.083 N 
HETATM   29  H18 UNL     1      27.032  -0.937  55.433  1.00  0.00     0.313 HD
HETATM   30  H19 UNL     1      28.085   0.423  55.348  1.00  0.00     0.313 HD
ENDBRANCH  25  28
ENDBRANCH  21  22
ENDBRANCH   7  21
TORSDOF 5
ENDMDL
MODEL 2
REMARK VINA RESULT:      -8.3      2.225      6.234
REMARK  5 active torsions:
REMARK  status: ('A' for Active; 'I' for Inactive)
REMARK    1  A    between atoms: C1_2  and  N2_3 
REMARK    2  A    between atoms: N4_8  and  C5_9 
REMARK    3  A    between atoms: C9_15  and  C10_16 
REMARK    4  A    between atoms: C10_16  and  N7_17 
REMARK    5  A    between atoms: C13_20  and  N8_21 
ROOT
HETATM    1  C5  UNL     1      23.218   1.313  51.598  1.00  0.00     0.317 A 
HETATM    2  C6  UNL     1      22.411   0.821  52.766  1.00  0.00     0.154 A 
HETATM    3  N5  UNL     1      21.473   1.656  53.050  1.00  0.00    -0.182 NA
HETATM    4  N6  UNL     1      21.522   2.748  52.167  1.00  0.00    -0.247 N 
HETATM    5  C7  UNL     1      20.845   3.897  51.978  1.00  0.00     0.119 A 
HETATM    6  C8  UNL     1      21.508   4.468  50.903  1.00  0.00     0.030 A 
HETATM    7  C9  UNL     1      22.569   3.659  50.461  1.00  0.00    -0.012 A 
HETATM    8  C16 UNL     1      22.544   2.568  51.295  1.00  0.00     0.082 A 
ENDROOT
BRANCH   1   9
HETATM    9  N4  UNL     1      24.591   1.554  52.002  1.00  0.00     0.108 N 
HETATM   10  C4  UNL     1      25.366   0.331  51.870  1.00  0.00     0.290 C 
HETATM   11  C3  UNL     1      25.959  -0.092  53.169  1.00  0.00     0.108 A 
HETATM   12  C2  UNL     1      26.900  -1.217  53.109  1.00  0.00     0.124 A 
HETATM   13  C19 UNL     1      26.805   0.987  53.776  1.00  0.00     0.046 A 
HETATM   14  N3  UNL     1      28.093  -0.947  53.583  1.00  0.00    -0.182 NA
HETATM   15  N2  UNL     1      28.084   0.409  54.013  1.00  0.00    -0.232 N 
HETATM   16  C18 UNL     1      26.069   2.087  53.871  1.00  0.00     0.031 C 
HETATM   17  C17 UNL     1      24.663   1.993  53.386  1.00  0.00     0.303 C 
BRANCH  15  18
HETATM   18  C1  UNL     1      29.073   1.228  54.601  1.00  0.00     0.225 C 
HETATM   19  N1  UNL     1      29.515   2.414  54.376  1.00  0.00    -0.293 NA
HETATM   20  H1  UNL     1      29.141   2.999  53.619  1.00  0.00     0.187 HD
ENDBRANCH  15  18
ENDBRANCH   1   9
BRANCH   7  21
HETATM   21  C10 UNL     1      23.332   4.144  49.304  1.00  0.00     0.157 C 
BRANCH  21  22
HETATM   22  N7  UNL     1      23.905   5.410  49.526  1.00  0.00    -0.408 N 
HETATM   23  C11 UNL     1      23.448   6.538  48.829  1.00  0.00     0.119 C 
HETATM   24  C12 UNL     1      23.468   7.745  49.768  1.00  0.00     0.055 C 
HETATM   25  C13 UNL     1      24.630   7.593  50.687  1.00  0.00     0.221 C 
HETATM   26  C14 UNL     1      25.764   6.783  50.062  1.00  0.00     0.055 C 
HETATM   27  C15 UNL     1      25.335   5.381  49.755  1.00  0.00     0.119 C 
BRANCH  25  28
HETATM   28  N8  UNL     1      24.260   6.943  51.944  1.00  0.00     0.083 N 
HETATM   29  H18 UNL     1      25.047   6.350  52.326  1.00  0.00     0.313 HD
HETATM   30  H19 UNL     1      23.988   7.670  52.644  1.00  0.00     0.313 HD
ENDBRANCH  25  28
ENDBRANCH  21  22
ENDBRANCH   7  21
TORSDOF 5
ENDMDL
MODEL 3
REMARK VINA RESULT:      -8.2      2.923      6.293
REMARK  5 active torsions:
REMARK  status: ('A' for Active; 'I' for Inactive)
REMARK    1  A    between atoms: C1_2  and  N2_3 
REMARK    2  A    between atoms: N4_8  and  C5_9 
REMARK    3  A    between atoms: C9_15  and  C10_16 
REMARK    4  A    between atoms: C10_16  and  N7_17 
REMARK    5  A    between atoms: C13_20  and  N8_21 
ROOT
HETATM    1  C5  UNL     1      23.380  -0.892  53.455  1.00  0.00     0.317 A 
HETATM    2  C6  UNL     1      22.948  -1.393  54.804  1.00  0.00     0.154 A 
HETATM    3  N5  UNL     1      21.812  -0.883  55.132  1.00  0.00    -0.182 NA
HETATM    4  N6  UNL     1      21.360  -0.028  54.113  1.00  0.00    -0.247 N 
HETATM    5  C7  UNL     1      20.297   0.769  53.890  1.00  0.00     0.119 A 
HETATM    6  C8  UNL     1      20.578   1.312  52.647  1.00  0.00     0.030 A 
HETATM    7  C9  UNL     1      21.799   0.836  52.139  1.00  0.00    -0.012 A 
HETATM    8  C16 UNL     1      22.268  -0.019  53.106  1.00  0.00     0.082 A 
ENDROOT
BRANCH   1   9
HETATM    9  N4  UNL     1      24.611  -0.132  53.572  1.00  0.00     0.108 N 
HETATM   10  C4  UNL     1      25.644  -0.737  52.747  1.00  0.00     0.290 C 
HETATM   11  C3  UNL     1      26.826  -1.149  53.553  1.00  0.00     0.108 A 
HETATM   12  C2  UNL     1      27.993  -1.611  52.793  1.00  0.00     0.124 A 
HETATM   13  C19 UNL     1      27.399  -0.003  54.332  1.00  0.00     0.046 A 
HETATM   14  N3  UNL     1      29.092  -0.934  53.027  1.00  0.00    -0.182 NA
HETATM   15  N2  UNL     1      28.776   0.075  53.979  1.00  0.00    -0.232 N 
HETATM   16  C18 UNL     1      26.427   0.528  55.063  1.00  0.00     0.031 C 
HETATM   17  C17 UNL     1      25.083  -0.104  54.946  1.00  0.00     0.303 C 
BRANCH  15  18
HETATM   18  C1  UNL     1      29.554   1.080  54.596  1.00  0.00     0.225 C 
HETATM   19  N1  UNL     1      29.560   2.365  54.564  1.00  0.00    -0.293 NA
HETATM   20  H1  UNL     1      28.893   2.897  53.992  1.00  0.00     0.187 HD
ENDBRANCH  15  18
ENDBRANCH   1   9
BRANCH   7  21
HETATM   21  C10 UNL     1      22.195   1.318  50.809  1.00  0.00     0.157 C 
BRANCH  21  22
HETATM   22  N7  UNL     1      22.767   2.602  50.847  1.00  0.00    -0.408 N 
HETATM   23  C11 UNL     1      22.041   3.725  50.424  1.00  0.00     0.119 C 
HETATM   24  C12 UNL     1      22.379   4.908  51.332  1.00  0.00     0.055 C 
HETATM   25  C13 UNL     1      23.809   4.787  51.732  1.00  0.00     0.221 C 
HETATM   26  C14 UNL     1      24.644   4.045  50.690  1.00  0.00     0.055 C 
HETATM   27  C15 UNL     1      24.176   2.634  50.513  1.00  0.00     0.119 C 
BRANCH  25  28
HETATM   28  N8  UNL     1      23.969   4.090  53.008  1.00  0.00     0.083 N 
HETATM   29  H18 UNL     1      24.348   3.113  52.876  1.00  0.00     0.313 HD
HETATM   30  H19 UNL     1      24.606   4.641  53.627  1.00  0.00     0.313 HD
ENDBRANCH  25  28
ENDBRANCH  21  22
ENDBRANCH   7  21
TORSDOF 5
ENDMDL
MODEL 4
REMARK VINA RESULT:      -8.1      3.045      6.139
REMARK  5 active torsions:
REMARK  status: ('A' for Active; 'I' for Inactive)
REMARK    1  A    between atoms: C1_2  and  N2_3 
REMARK    2  A    between atoms: N4_8  and  C5_9 
REMARK    3  A    between atoms: C9_15  and  C10_16 
REMARK    4  A    between atoms: C10_16  and  N7_17 
REMARK    5  A    between atoms: C13_20  and  N8_21 
ROOT
HETATM    1  C5  UNL     1      23.103  -1.057  53.487  1.00  0.00     0.317 A 
HETATM    2  C6  UNL     1      22.523  -1.645  54.742  1.00  0.00     0.154 A 
HETATM    3  N5  UNL     1      21.268  -1.371  54.831  1.00  0.00    -0.182 NA
HETATM    4  N6  UNL     1      20.864  -0.613  53.719  1.00  0.00    -0.247 N 
HETATM    5  C7  UNL     1      19.731  -0.038  53.273  1.00  0.00     0.119 A 
HETATM    6  C8  UNL     1      20.137   0.560  52.091  1.00  0.00     0.030 A 
HETATM    7  C9  UNL     1      21.502   0.338  51.842  1.00  0.00    -0.012 A 
HETATM    8  C16 UNL     1      21.931  -0.416  52.905  1.00  0.00     0.082 A 
ENDROOT
BRANCH   1   9
HETATM    9  N4  UNL     1      24.116  -0.070  53.815  1.00  0.00     0.108 N 
HETATM   10  C4  UNL     1      24.414   0.740  52.646  1.00  0.00     0.290 C 
HETATM   11  C3  UNL     1      25.849   0.648  52.259  1.00  0.00     0.108 A 
HETATM   12  C2  UNL     1      26.288   1.562  51.197  1.00  0.00     0.124 A 
HETATM   13  C19 UNL     1      26.758   1.028  53.390  1.00  0.00     0.046 A 
HETATM   14  N3  UNL     1      27.273   2.356  51.543  1.00  0.00    -0.182 NA
HETATM   15  N2  UNL     1      27.604   2.061  52.895  1.00  0.00    -0.232 N 
HETATM   16  C18 UNL     1      26.450   0.277  54.439  1.00  0.00     0.031 C 
HETATM   17  C17 UNL     1      25.347  -0.707  54.255  1.00  0.00     0.303 C 
BRANCH  15  18
HETATM   18  C1  UNL     1      28.573   2.590  53.776  1.00  0.00     0.225 C 
HETATM   19  N1  UNL     1      29.504   2.084  54.505  1.00  0.00    -0.293 NA
HETATM   20  H1  UNL     1      29.678   1.072  54.538  1.00  0.00     0.187 HD
ENDBRANCH  15  18
ENDBRANCH   1   9
BRANCH   7  21
HETATM   21  C10 UNL     1      22.047   0.901  50.599  1.00  0.00     0.157 C 
BRANCH  21  22
HETATM   22  N7  UNL     1      21.554   2.190  50.327  1.00  0.00    -0.408 N 
HETATM   23  C11 UNL     1      20.964   2.488  49.089  1.00  0.00     0.119 C 
HETATM   24  C12 UNL     1      19.791   3.442  49.313  1.00  0.00     0.055 C 
HETATM   25  C13 UNL     1      20.139   4.341  50.449  1.00  0.00     0.221 C 
HETATM   26  C14 UNL     1      21.646   4.546  50.587  1.00  0.00     0.055 C 
HETATM   27  C15 UNL     1      22.352   3.261  50.888  1.00  0.00     0.119 C 
BRANCH  25  28
HETATM   28  N8  UNL     1      19.641   3.834  51.728  1.00  0.00     0.083 N 
HETATM   29  H18 UNL     1      20.336   3.988  52.509  1.00  0.00     0.313 HD
HETATM   30  H19 UNL     1      18.736   4.302  51.958  1.00  0.00     0.313 HD
ENDBRANCH  25  28
ENDBRANCH  21  22
ENDBRANCH   7  21
TORSDOF 5
ENDMDL
MODEL 5
REMARK VINA RESULT:      -8.1      2.599      6.318
REMARK  5 active torsions:
REMARK  status: ('A' for Active; 'I' for Inactive)
REMARK    1  A    between atoms: C1_2  and  N2_3 
REMARK    2  A    between atoms: N4_8  and  C5_9 
REMARK    3  A    between atoms: C9_15  and  C10_16 
REMARK    4  A    between atoms: C10_16  and  N7_17 
REMARK    5  A    between atoms: C13_20  and  N8_21 
ROOT
HETATM    1  C5  UNL     1      23.724   3.002  51.195  1.00  0.00     0.317 A 
HETATM    2  C6  UNL     1      24.562   4.247  51.284  1.00  0.00     0.154 A 
HETATM    3  N5  UNL     1      24.434   4.954  50.216  1.00  0.00    -0.182 NA
HETATM    4  N6  UNL     1      23.550   4.320  49.326  1.00  0.00    -0.247 N 
HETATM    5  C7  UNL     1      23.051   4.551  48.096  1.00  0.00     0.119 A 
HETATM    6  C8  UNL     1      22.244   3.445  47.883  1.00  0.00     0.030 A 
HETATM    7  C9  UNL     1      22.266   2.569  48.981  1.00  0.00    -0.012 A 
HETATM    8  C16 UNL     1      23.113   3.164  49.883  1.00  0.00     0.082 A 
ENDROOT
BRANCH   1   9
HETATM    9  N4  UNL     1      24.571   1.824  51.223  1.00  0.00     0.108 N 
HETATM   10  C4  UNL     1      24.134   0.927  52.281  1.00  0.00     0.290 C 
HETATM   11  C3  UNL     1      25.212   0.677  53.276  1.00  0.00     0.108 A 
HETATM   12  C2  UNL     1      24.928  -0.349  54.287  1.00  0.00     0.124 A 
HETATM   13  C19 UNL     1      26.455   0.140  52.631  1.00  0.00     0.046 A 
HETATM   14  N3  UNL     1      25.795  -1.334  54.314  1.00  0.00    -0.182 NA
HETATM   15  N2  UNL     1      26.765  -1.074  53.306  1.00  0.00    -0.232 N 
HETATM   16  C18 UNL     1      26.817   0.978  51.668  1.00  0.00     0.031 C 
HETATM   17  C17 UNL     1      25.959   2.179  51.471  1.00  0.00     0.303 C 
BRANCH  15  18
HETATM   18  C1  UNL     1      27.917  -1.779  52.890  1.00  0.00     0.225 C 
HETATM   19  N1  UNL     1      28.264  -3.016  52.877  1.00  0.00    -0.293 NA
HETATM   20  H1  UNL     1      27.644  -3.758  53.227  1.00  0.00     0.187 HD
ENDBRANCH  15  18
ENDBRANCH   1   9
BRANCH   7  21
HETATM   21  C10 UNL     1      21.424   1.369  48.887  1.00  0.00     0.157 C 
BRANCH  21  22
HETATM   22  N7  UNL     1      20.553   1.232  49.983  1.00  0.00    -0.408 N 
HETATM   23  C11 UNL     1      20.798   0.278  50.982  1.00  0.00     0.119 C 
HETATM   24  C12 UNL     1      20.407   0.865  52.338  1.00  0.00     0.055 C 
HETATM   25  C13 UNL     1      19.230   1.754  52.132  1.00  0.00     0.221 C 
HETATM   26  C14 UNL     1      18.382   1.328  50.935  1.00  0.00     0.055 C 
HETATM   27  C15 UNL     1      19.154   1.415  49.655  1.00  0.00     0.119 C 
BRANCH  25  28
HETATM   28  N8  UNL     1      19.619   3.149  51.927  1.00  0.00     0.083 N 
HETATM   29  H18 UNL     1      20.232   3.505  52.711  1.00  0.00     0.313 HD
HETATM   30  H19 UNL     1      20.117   3.240  51.013  1.00  0.00     0.313 HD
ENDBRANCH  25  28
ENDBRANCH  21  22
ENDBRANCH   7  21
TORSDOF 5
ENDMDL
MODEL 6
REMARK VINA RESULT:      -8.0      4.138      8.567
REMARK  5 active torsions:
REMARK  status: ('A' for Active; 'I' for Inactive)
REMARK    1  A    between atoms: C1_2  and  N2_3 
REMARK    2  A    between atoms: N4_8  and  C5_9 
REMARK    3  A    between atoms: C9_15  and  C10_16 
REMARK    4  A    between atoms: C10_16  and  N7_17 
REMARK    5  A    between atoms: C13_20  and  N8_21 
ROOT
HETATM    1  C5  UNL     1      29.733   7.675  47.043  1.00  0.00     0.317 A 
HETATM    2  C6  UNL     1      29.542   8.974  46.312  1.00  0.00     0.154 A 
HETATM    3  N5  UNL     1      30.593   9.710  46.418  1.00  0.00    -0.182 NA
HETATM    4  N6  UNL     1      31.566   9.046  47.183  1.00  0.00    -0.247 N 
HETATM    5  C7  UNL     1      32.810   9.297  47.634  1.00  0.00     0.119 A 
HETATM    6  C8  UNL     1      33.113   8.149  48.348  1.00  0.00     0.030 A 
HETATM    7  C9  UNL     1      32.054   7.226  48.317  1.00  0.00    -0.012 A 
HETATM    8  C16 UNL     1      31.083   7.837  47.562  1.00  0.00     0.082 A 
ENDROOT
BRANCH   1   9
HETATM    9  N4  UNL     1      28.776   7.564  48.128  1.00  0.00     0.108 N 
HETATM   10  C4  UNL     1      28.664   6.177  48.548  1.00  0.00     0.290 C 
HETATM   11  C3  UNL     1      27.272   5.666  48.408  1.00  0.00     0.108 A 
HETATM   12  C2  UNL     1      27.018   4.333  48.966  1.00  0.00     0.124 A 
HETATM   13  C19 UNL     1      26.289   6.510  49.163  1.00  0.00     0.046 A 
HETATM   14  N3  UNL     1      26.071   4.300  49.874  1.00  0.00    -0.182 NA
HETATM   15  N2  UNL     1      25.584   5.627  50.029  1.00  0.00    -0.232 N 
HETATM   16  C18 UNL     1      26.427   7.767  48.761  1.00  0.00     0.031 C 
HETATM   17  C17 UNL     1      27.459   8.024  47.719  1.00  0.00     0.303 C 
BRANCH  15  18
HETATM   18  C1  UNL     1      24.578   6.182  50.851  1.00  0.00     0.225 C 
HETATM   19  N1  UNL     1      24.574   6.943  51.887  1.00  0.00    -0.293 NA
HETATM   20  H1  UNL     1      25.445   7.293  52.307  1.00  0.00     0.187 HD
ENDBRANCH  15  18
ENDBRANCH   1   9
BRANCH   7  21
HETATM   21  C10 UNL     1      32.266   5.952  49.017  1.00  0.00     0.157 C 
BRANCH  21  22
HETATM   22  N7  UNL     1      32.783   4.952  48.174  1.00  0.00    -0.408 N 
HETATM   23  C11 UNL     1      34.031   5.108  47.553  1.00  0.00     0.119 C 
HETATM   24  C12 UNL     1      34.746   3.757  47.522  1.00  0.00     0.055 C 
HETATM   25  C13 UNL     1      33.715   2.696  47.346  1.00  0.00     0.221 C 
HETATM   26  C14 UNL     1      32.481   3.202  46.600  1.00  0.00     0.055 C 
HETATM   27  C15 UNL     1      31.785   4.287  47.361  1.00  0.00     0.119 C 
BRANCH  25  28
HETATM   28  N8  UNL     1      33.266   2.142  48.623  1.00  0.00     0.083 N 
HETATM   29  H18 UNL     1      33.288   1.086  48.622  1.00  0.00     0.313 HD
HETATM   30  H19 UNL     1      33.868   2.512  49.393  1.00  0.00     0.313 HD
ENDBRANCH  25  28
ENDBRANCH  21  22
ENDBRANCH   7  21
TORSDOF 5
ENDMDL
MODEL 7
REMARK VINA RESULT:      -7.8      7.811     11.147
REMARK  5 active torsions:
REMARK  status: ('A' for Active; 'I' for Inactive)
REMARK    1  A    between atoms: C1_2  and  N2_3 
REMARK    2  A    between atoms: N4_8  and  C5_9 
REMARK    3  A    between atoms: C9_15  and  C10_16 
REMARK    4  A    between atoms: C10_16  and  N7_17 
REMARK    5  A    between atoms: C13_20  and  N8_21 
ROOT
HETATM    1  C5  UNL     1      33.870   6.905  47.264  1.00  0.00     0.317 A 
HETATM    2  C6  UNL     1      34.700   6.996  48.513  1.00  0.00     0.154 A 
HETATM    3  N5  UNL     1      35.213   5.850  48.798  1.00  0.00    -0.182 NA
HETATM    4  N6  UNL     1      34.821   4.899  47.841  1.00  0.00    -0.247 N 
HETATM    5  C7  UNL     1      35.013   3.585  47.616  1.00  0.00     0.119 A 
HETATM    6  C8  UNL     1      34.277   3.362  46.464  1.00  0.00     0.030 A 
HETATM    7  C9  UNL     1      33.656   4.539  46.011  1.00  0.00    -0.012 A 
HETATM    8  C16 UNL     1      34.029   5.500  46.919  1.00  0.00     0.082 A 
ENDROOT
BRANCH   1   9
HETATM    9  N4  UNL     1      32.482   7.206  47.561  1.00  0.00     0.108 N 
HETATM   10  C4  UNL     1      32.175   8.569  47.158  1.00  0.00     0.290 C 
HETATM   11  C3  UNL     1      31.709   9.395  48.306  1.00  0.00     0.108 A 
HETATM   12  C2  UNL     1      31.211  10.735  47.974  1.00  0.00     0.124 A 
HETATM   13  C19 UNL     1      30.522   8.783  48.989  1.00  0.00     0.046 A 
HETATM   14  N3  UNL     1      29.978  10.963  48.362  1.00  0.00    -0.182 NA
HETATM   15  N2  UNL     1      29.507   9.782  49.001  1.00  0.00    -0.232 N 
HETATM   16  C18 UNL     1      30.835   7.541  49.332  1.00  0.00     0.031 C 
HETATM   17  C17 UNL     1      32.207   7.078  48.983  1.00  0.00     0.303 C 
BRANCH  15  18
HETATM   18  C1  UNL     1      28.275   9.455  49.609  1.00  0.00     0.225 C 
HETATM   19  N1  UNL     1      27.824   9.489  50.812  1.00  0.00    -0.293 NA
HETATM   20  H1  UNL     1      28.402   9.808  51.600  1.00  0.00     0.187 HD
ENDBRANCH  15  18
ENDBRANCH   1   9
BRANCH   7  21
HETATM   21  C10 UNL     1      32.867   4.437  44.776  1.00  0.00     0.157 C 
BRANCH  21  22
HETATM   22  N7  UNL     1      33.328   5.303  43.768  1.00  0.00    -0.408 N 
HETATM   23  C11 UNL     1      32.822   6.607  43.652  1.00  0.00     0.119 C 
HETATM   24  C12 UNL     1      33.956   7.547  43.246  1.00  0.00     0.055 C 
HETATM   25  C13 UNL     1      34.878   6.796  42.349  1.00  0.00     0.221 C 
HETATM   26  C14 UNL     1      34.164   5.685  41.580  1.00  0.00     0.055 C 
HETATM   27  C15 UNL     1      33.602   4.649  42.504  1.00  0.00     0.119 C 
BRANCH  25  28
HETATM   28  N8  UNL     1      35.988   6.186  43.081  1.00  0.00     0.083 N 
HETATM   29  H18 UNL     1      36.925   6.505  42.710  1.00  0.00     0.313 HD
HETATM   30  H19 UNL     1      35.905   6.421  44.095  1.00  0.00     0.313 HD
ENDBRANCH  25  28
ENDBRANCH  21  22
ENDBRANCH   7  21
TORSDOF 5
ENDMDL
MODEL 8
REMARK VINA RESULT:      -7.8      2.668      6.658
REMARK  5 active torsions:
REMARK  status: ('A' for Active; 'I' for Inactive)
REMARK    1  A    between atoms: C1_2  and  N2_3 
REMARK    2  A    between atoms: N4_8  and  C5_9 
REMARK    3  A    between atoms: C9_15  and  C10_16 
REMARK    4  A    between atoms: C10_16  and  N7_17 
REMARK    5  A    between atoms: C13_20  and  N8_21 
ROOT
HETATM    1  C5  UNL     1      21.458   1.021  53.202  1.00  0.00     0.317 A 
HETATM    2  C6  UNL     1      20.983  -0.385  53.441  1.00  0.00     0.154 A 
HETATM    3  N5  UNL     1      21.983  -1.186  53.552  1.00  0.00    -0.182 NA
HETATM    4  N6  UNL     1      23.185  -0.473  53.413  1.00  0.00    -0.247 N 
HETATM    5  C7  UNL     1      24.504  -0.747  53.417  1.00  0.00     0.119 A 
HETATM    6  C8  UNL     1      25.075   0.496  53.195  1.00  0.00     0.030 A 
HETATM    7  C9  UNL     1      24.098   1.497  53.063  1.00  0.00    -0.012 A 
HETATM    8  C16 UNL     1      22.902   0.837  53.209  1.00  0.00     0.082 A 
ENDROOT
BRANCH   1   9
HETATM    9  N4  UNL     1      21.007   1.490  51.905  1.00  0.00     0.108 N 
HETATM   10  C4  UNL     1      20.247   2.720  52.061  1.00  0.00     0.290 C 
HETATM   11  C3  UNL     1      18.859   2.584  51.542  1.00  0.00     0.108 A 
HETATM   12  C2  UNL     1      18.066   3.818  51.495  1.00  0.00     0.124 A 
HETATM   13  C19 UNL     1      18.839   2.148  50.106  1.00  0.00     0.046 A 
HETATM   14  N3  UNL     1      17.613   4.123  50.302  1.00  0.00    -0.182 NA
HETATM   15  N2  UNL     1      18.063   3.114  49.405  1.00  0.00    -0.232 N 
HETATM   16  C18 UNL     1      19.548   1.032  50.002  1.00  0.00     0.031 C 
HETATM   17  C17 UNL     1      20.154   0.507  51.257  1.00  0.00     0.303 C 
BRANCH  15  18
HETATM   18  C1  UNL     1      17.878   2.923  48.018  1.00  0.00     0.225 C 
HETATM   19  N1  UNL     1      18.666   2.818  47.007  1.00  0.00    -0.293 NA
HETATM   20  H1  UNL     1      19.688   2.871  47.107  1.00  0.00     0.187 HD
ENDBRANCH  15  18
ENDBRANCH   1   9
BRANCH   7  21
HETATM   21  C10 UNL     1      24.581   2.868  52.853  1.00  0.00     0.157 C 
BRANCH  21  22
HETATM   22  N7  UNL     1      24.927   3.121  51.513  1.00  0.00    -0.408 N 
HETATM   23  C11 UNL     1      24.029   2.838  50.473  1.00  0.00     0.119 C 
HETATM   24  C12 UNL     1      24.147   3.925  49.404  1.00  0.00     0.055 C 
HETATM   25  C13 UNL     1      25.569   4.363  49.348  1.00  0.00     0.221 C 
HETATM   26  C14 UNL     1      26.535   3.258  49.774  1.00  0.00     0.055 C 
HETATM   27  C15 UNL     1      26.316   2.854  51.199  1.00  0.00     0.119 C 
BRANCH  25  28
HETATM   28  N8  UNL     1      25.825   5.527  50.197  1.00  0.00     0.083 N 
HETATM   29  H18 UNL     1      25.451   5.389  51.175  1.00  0.00     0.313 HD
HETATM   30  H19 UNL     1      26.852   5.715  50.229  1.00  0.00     0.313 HD
ENDBRANCH  25  28
ENDBRANCH  21  22
ENDBRANCH   7  21
TORSDOF 5
ENDMDL
MODEL 9
REMARK VINA RESULT:      -7.7      3.357      6.855
REMARK  5 active torsions:
REMARK  status: ('A' for Active; 'I' for Inactive)
REMARK    1  A    between atoms: C1_2  and  N2_3 
REMARK    2  A    between atoms: N4_8  and  C5_9 
REMARK    3  A    between atoms: C9_15  and  C10_16 
REMARK    4  A    between atoms: C10_16  and  N7_17 
REMARK    5  A    between atoms: C13_20  and  N8_21 
ROOT
HETATM    1  C5  UNL     1      22.562   1.379  50.457  1.00  0.00     0.317 A 
HETATM    2  C6  UNL     1      22.036   2.646  49.843  1.00  0.00     0.154 A 
HETATM    3  N5  UNL     1      22.415   3.669  50.525  1.00  0.00    -0.182 NA
HETATM    4  N6  UNL     1      23.196   3.254  51.617  1.00  0.00    -0.247 N 
HETATM    5  C7  UNL     1      23.835   3.831  52.652  1.00  0.00     0.119 A 
HETATM    6  C8  UNL     1      24.374   2.745  53.322  1.00  0.00     0.030 A 
HETATM    7  C9  UNL     1      24.055   1.534  52.684  1.00  0.00    -0.012 A 
HETATM    8  C16 UNL     1      23.301   1.902  51.598  1.00  0.00     0.082 A 
ENDROOT
BRANCH   1   9
HETATM    9  N4  UNL     1      21.462   0.542  50.900  1.00  0.00     0.108 N 
HETATM   10  C4  UNL     1      20.318   0.724  50.021  1.00  0.00     0.290 C 
HETATM   11  C3  UNL     1      19.122   1.211  50.761  1.00  0.00     0.108 A 
HETATM   12  C2  UNL     1      17.870   1.261  49.997  1.00  0.00     0.124 A 
HETATM   13  C19 UNL     1      18.757   0.299  51.894  1.00  0.00     0.046 A 
HETATM   14  N3  UNL     1      16.893   0.554  50.515  1.00  0.00    -0.182 NA
HETATM   15  N2  UNL     1      17.393  -0.060  51.697  1.00  0.00    -0.232 N 
HETATM   16  C18 UNL     1      19.824   0.149  52.667  1.00  0.00     0.031 C 
HETATM   17  C17 UNL     1      21.054   0.880  52.254  1.00  0.00     0.303 C 
BRANCH  15  18
HETATM   18  C1  UNL     1      16.797  -0.915  52.651  1.00  0.00     0.225 C 
HETATM   19  N1  UNL     1      17.121  -1.324  53.825  1.00  0.00    -0.293 NA
HETATM   20  H1  UNL     1      17.994  -1.030  54.281  1.00  0.00     0.187 HD
ENDBRANCH  15  18
ENDBRANCH   1   9
BRANCH   7  21
HETATM   21  C10 UNL     1      24.596   0.308  53.285  1.00  0.00     0.157 C 
BRANCH  21  22
HETATM   22  N7  UNL     1      25.989   0.367  53.475  1.00  0.00    -0.408 N 
HETATM   23  C11 UNL     1      26.870  -0.091  52.484  1.00  0.00     0.119 C 
HETATM   24  C12 UNL     1      28.091   0.828  52.440  1.00  0.00     0.055 C 
HETATM   25  C13 UNL     1      28.369   1.291  53.829  1.00  0.00     0.221 C 
HETATM   26  C14 UNL     1      27.899   0.287  54.880  1.00  0.00     0.055 C 
HETATM   27  C15 UNL     1      26.415   0.094  54.833  1.00  0.00     0.119 C 
BRANCH  25  28
HETATM   28  N8  UNL     1      27.732   2.574  54.123  1.00  0.00     0.083 N 
HETATM   29  H18 UNL     1      26.891   2.745  53.507  1.00  0.00     0.313 HD
HETATM   30  H19 UNL     1      27.451   2.599  55.128  1.00  0.00     0.313 HD
ENDBRANCH  25  28
ENDBRANCH  21  22
ENDBRANCH   7  21
TORSDOF 5
ENDMDL
