MODEL 1
REMARK VINA RESULT:      -8.7      0.000      0.000
REMARK  5 active torsions:
REMARK  status: ('A' for Active; 'I' for Inactive)
REMARK    1  A    between atoms: C6_6  and  C7_7 
REMARK    2  A    between atoms: N1_15  and  C14_16 
REMARK    3  A    between atoms: C14_16  and  C15_17 
REMARK    4  A    between atoms: C15_17  and  C16_18 
REMARK    5  A    between atoms: C16_18  and  N2_19 
ROOT
HETATM    1  C7  UNL     1      20.734   1.775  51.479  1.00  0.00     0.088 C 
HETATM    2  C8  UNL     1      22.056   1.717  50.601  1.00  0.00     0.060 C 
HETATM    3  C9  UNL     1      21.658   2.935  50.433  1.00  0.00     0.058 A 
HETATM    4  C10 UNL     1      21.233   4.322  50.338  1.00  0.00     0.036 A 
HETATM    5  C11 UNL     1      21.598   4.175  51.622  1.00  0.00     0.026 A 
HETATM    6  C12 UNL     1      22.761   5.093  51.871  1.00  0.00     0.117 C 
HETATM    7  C13 UNL     1      23.917   4.412  51.051  1.00  0.00     0.221 C 
HETATM    8  O1  UNL     1      24.962   4.979  50.734  1.00  0.00    -0.273 OA
HETATM    9  N1  UNL     1      23.309   3.008  50.849  1.00  0.00    -0.341 N 
HETATM   10  C21 UNL     1      20.737   3.088  52.290  1.00  0.00     0.154 C 
HETATM   11  N3  UNL     1      19.346   3.465  52.302  1.00  0.00    -0.276 NA
HETATM   12  C22 UNL     1      18.710   2.778  51.380  1.00  0.00     0.197 C 
HETATM   13  N4  UNL     1      19.571   1.876  50.652  1.00  0.00    -0.369 N 
HETATM   14  H27 UNL     1      19.125   1.566  49.765  1.00  0.00     0.161 HD
ENDROOT
BRANCH   9  15
HETATM   15  C14 UNL     1      24.550   2.123  50.982  1.00  0.00     0.128 C 
BRANCH  15  16
HETATM   16  C15 UNL     1      24.983   2.105  52.416  1.00  0.00     0.039 C 
BRANCH  16  17
HETATM   17  C16 UNL     1      25.547   0.822  52.924  1.00  0.00     0.118 C 
BRANCH  17  18
HETATM   18  N2  UNL     1      26.993   0.815  52.694  1.00  0.00    -0.408 N 
HETATM   19  C17 UNL     1      27.657  -0.230  53.375  1.00  0.00     0.143 C 
HETATM   20  C18 UNL     1      28.903   0.132  54.121  1.00  0.00     0.187 C 
HETATM   21  O2  UNL     1      28.722   1.364  54.752  1.00  0.00    -0.388 OA
HETATM   22  C19 UNL     1      28.641   2.336  53.760  1.00  0.00     0.187 C 
HETATM   23  C20 UNL     1      27.603   2.088  52.725  1.00  0.00     0.143 C 
ENDBRANCH  17  18
ENDBRANCH  16  17
ENDBRANCH  15  16
ENDBRANCH   9  15
BRANCH   1  24
HETATM   24  C6  UNL     1      20.611   0.668  52.388  1.00  0.00    -0.027 A 
HETATM   25  C5  UNL     1      19.547  -0.168  52.656  1.00  0.00     0.010 A 
HETATM   26  C4  UNL     1      19.513  -1.215  53.548  1.00  0.00     0.001 A 
HETATM   27  C3  UNL     1      20.682  -1.472  54.271  1.00  0.00     0.007 A 
HETATM   28  C2  UNL     1      21.774  -0.663  54.039  1.00  0.00    -0.061 A 
HETATM   29  C1  UNL     1      22.944  -1.063  54.885  1.00  0.00     0.048 C 
HETATM   30  C23 UNL     1      21.748   0.378  53.128  1.00  0.00     0.016 A 
ENDBRANCH   1  24
TORSDOF 5
ENDMDL
MODEL 2
REMARK VINA RESULT:      -8.7      2.479      5.388
REMARK  5 active torsions:
REMARK  status: ('A' for Active; 'I' for Inactive)
REMARK    1  A    between atoms: C6_6  and  C7_7 
REMARK    2  A    between atoms: N1_15  and  C14_16 
REMARK    3  A    between atoms: C14_16  and  C15_17 
REMARK    4  A    between atoms: C15_17  and  C16_18 
REMARK    5  A    between atoms: C16_18  and  N2_19 
ROOT
HETATM    1  C7  UNL     1      23.028   5.480  51.314  1.00  0.00     0.088 C 
HETATM    2  C8  UNL     1      23.469   4.692  52.621  1.00  0.00     0.060 C 
HETATM    3  C9  UNL     1      22.312   4.178  52.356  1.00  0.00     0.058 A 
HETATM    4  C10 UNL     1      21.051   3.560  51.981  1.00  0.00     0.036 A 
HETATM    5  C11 UNL     1      21.896   3.211  50.998  1.00  0.00     0.026 A 
HETATM    6  C12 UNL     1      22.025   1.714  51.019  1.00  0.00     0.117 C 
HETATM    7  C13 UNL     1      22.832   1.458  52.345  1.00  0.00     0.221 C 
HETATM    8  O1  UNL     1      22.905   0.366  52.905  1.00  0.00    -0.273 OA
HETATM    9  N1  UNL     1      23.386   2.877  52.597  1.00  0.00    -0.341 N 
HETATM   10  C21 UNL     1      22.441   4.472  50.303  1.00  0.00     0.154 C 
HETATM   11  N3  UNL     1      21.378   5.220  49.681  1.00  0.00    -0.276 NA
HETATM   12  C22 UNL     1      21.113   6.276  50.415  1.00  0.00     0.197 C 
HETATM   13  N4  UNL     1      21.943   6.370  51.593  1.00  0.00    -0.369 N 
HETATM   14  H27 UNL     1      21.538   7.029  52.286  1.00  0.00     0.161 HD
ENDROOT
BRANCH   9  15
HETATM   15  C14 UNL     1      24.780   2.561  53.141  1.00  0.00     0.128 C 
BRANCH  15  16
HETATM   16  C15 UNL     1      25.671   2.173  52.002  1.00  0.00     0.039 C 
BRANCH  16  17
HETATM   17  C16 UNL     1      27.140   2.263  52.245  1.00  0.00     0.118 C 
BRANCH  17  18
HETATM   18  N2  UNL     1      27.628   0.954  52.682  1.00  0.00    -0.408 N 
HETATM   19  C17 UNL     1      26.864  -0.121  52.174  1.00  0.00     0.143 C 
HETATM   20  C18 UNL     1      26.467  -1.188  53.144  1.00  0.00     0.187 C 
HETATM   21  O2  UNL     1      26.110  -0.599  54.359  1.00  0.00    -0.388 OA
HETATM   22  C19 UNL     1      27.265  -0.060  54.920  1.00  0.00     0.187 C 
HETATM   23  C20 UNL     1      28.003   0.886  54.042  1.00  0.00     0.143 C 
ENDBRANCH  17  18
ENDBRANCH  16  17
ENDBRANCH  15  16
ENDBRANCH   9  15
BRANCH   1  24
HETATM   24  C6  UNL     1      24.112   6.187  50.689  1.00  0.00    -0.027 A 
HETATM   25  C5  UNL     1      24.390   7.536  50.616  1.00  0.00     0.010 A 
HETATM   26  C4  UNL     1      25.460   8.136  49.994  1.00  0.00     0.001 A 
HETATM   27  C3  UNL     1      26.379   7.294  49.360  1.00  0.00     0.007 A 
HETATM   28  C2  UNL     1      26.146   5.936  49.404  1.00  0.00    -0.061 A 
HETATM   29  C1  UNL     1      27.215   5.171  48.684  1.00  0.00     0.048 C 
HETATM   30  C23 UNL     1      25.049   5.390  50.046  1.00  0.00     0.016 A 
ENDBRANCH   1  24
TORSDOF 5
ENDMDL
MODEL 3
REMARK VINA RESULT:      -8.7      2.585      5.625
REMARK  5 active torsions:
REMARK  status: ('A' for Active; 'I' for Inactive)
REMARK    1  A    between atoms: C6_6  and  C7_7 
REMARK    2  A    between atoms: N1_15  and  C14_16 
REMARK    3  A    between atoms: C14_16  and  C15_17 
REMARK    4  A    between atoms: C15_17  and  C16_18 
REMARK    5  A    between atoms: C16_18  and  N2_19 
ROOT
HETATM    1  C7  UNL     1      23.748   4.449  49.800  1.00  0.00     0.088 C 
HETATM    2  C8  UNL     1      23.599   4.464  51.381  1.00  0.00     0.060 C 
HETATM    3  C9  UNL     1      22.536   3.833  51.002  1.00  0.00     0.058 A 
HETATM    4  C10 UNL     1      21.398   3.050  50.550  1.00  0.00     0.036 A 
HETATM    5  C11 UNL     1      22.463   2.288  50.255  1.00  0.00     0.026 A 
HETATM    6  C12 UNL     1      22.351   1.022  51.056  1.00  0.00     0.117 C 
HETATM    7  C13 UNL     1      22.617   1.521  52.524  1.00  0.00     0.221 C 
HETATM    8  O1  UNL     1      22.333   0.875  53.531  1.00  0.00    -0.273 OA
HETATM    9  N1  UNL     1      23.259   2.892  52.226  1.00  0.00    -0.341 N 
HETATM   10  C21 UNL     1      23.391   3.038  49.284  1.00  0.00     0.154 C 
HETATM   11  N3  UNL     1      22.724   3.309  48.035  1.00  0.00    -0.276 NA
HETATM   12  C22 UNL     1      22.389   4.579  47.997  1.00  0.00     0.197 C 
HETATM   13  N4  UNL     1      22.778   5.303  49.185  1.00  0.00    -0.369 N 
HETATM   14  H27 UNL     1      22.266   6.204  49.259  1.00  0.00     0.161 HD
ENDROOT
BRANCH   9  15
HETATM   15  C14 UNL     1      24.325   2.967  53.321  1.00  0.00     0.128 C 
BRANCH  15  16
HETATM   16  C15 UNL     1      25.350   1.904  53.076  1.00  0.00     0.039 C 
BRANCH  16  17
HETATM   17  C16 UNL     1      26.660   2.357  52.525  1.00  0.00     0.118 C 
BRANCH  17  18
HETATM   18  N2  UNL     1      27.581   1.220  52.498  1.00  0.00    -0.408 N 
HETATM   19  C17 UNL     1      26.944  -0.003  52.188  1.00  0.00     0.143 C 
HETATM   20  C18 UNL     1      27.282  -1.180  53.048  1.00  0.00     0.187 C 
HETATM   21  O2  UNL     1      27.380  -0.768  54.378  1.00  0.00    -0.388 OA
HETATM   22  C19 UNL     1      28.503   0.048  54.484  1.00  0.00     0.187 C 
HETATM   23  C20 UNL     1      28.528   1.200  53.545  1.00  0.00     0.143 C 
ENDBRANCH  17  18
ENDBRANCH  16  17
ENDBRANCH  15  16
ENDBRANCH   9  15
BRANCH   1  24
HETATM   24  C6  UNL     1      25.072   4.787  49.353  1.00  0.00    -0.027 A 
HETATM   25  C5  UNL     1      26.235   4.047  49.331  1.00  0.00     0.010 A 
HETATM   26  C4  UNL     1      27.472   4.449  48.881  1.00  0.00     0.001 A 
HETATM   27  C3  UNL     1      27.574   5.754  48.388  1.00  0.00     0.007 A 
HETATM   28  C2  UNL     1      26.438   6.534  48.388  1.00  0.00    -0.061 A 
HETATM   29  C1  UNL     1      26.708   7.898  47.830  1.00  0.00     0.048 C 
HETATM   30  C23 UNL     1      25.219   6.073  48.855  1.00  0.00     0.016 A 
ENDBRANCH   1  24
TORSDOF 5
ENDMDL
MODEL 4
REMARK VINA RESULT:      -8.6      2.150      5.758
REMARK  5 active torsions:
REMARK  status: ('A' for Active; 'I' for Inactive)
REMARK    1  A    between atoms: C6_6  and  C7_7 
REMARK    2  A    between atoms: N1_15  and  C14_16 
REMARK    3  A    between atoms: C14_16  and  C15_17 
REMARK    4  A    between atoms: C15_17  and  C16_18 
REMARK    5  A    between atoms: C16_18  and  N2_19 
ROOT
HETATM    1  C7  UNL     1      24.989   0.924  53.372  1.00  0.00     0.088 C 
HETATM    2  C8  UNL     1      24.782   2.497  53.428  1.00  0.00     0.060 C 
HETATM    3  C9  UNL     1      25.947   2.384  52.880  1.00  0.00     0.058 A 
HETATM    4  C10 UNL     1      27.214   2.221  52.186  1.00  0.00     0.036 A 
HETATM    5  C11 UNL     1      26.303   1.727  51.333  1.00  0.00     0.026 A 
HETATM    6  C12 UNL     1      26.331   2.578  50.095  1.00  0.00     0.117 C 
HETATM    7  C13 UNL     1      25.709   3.933  50.597  1.00  0.00     0.221 C 
HETATM    8  O1  UNL     1      25.812   5.000  49.995  1.00  0.00    -0.273 OA
HETATM    9  N1  UNL     1      25.045   3.452  51.905  1.00  0.00    -0.341 N 
HETATM   10  C21 UNL     1      25.557   0.549  51.986  1.00  0.00     0.154 C 
HETATM   11  N3  UNL     1      26.462  -0.532  52.289  1.00  0.00    -0.276 NA
HETATM   12  C22 UNL     1      26.699  -0.540  53.581  1.00  0.00     0.197 C 
HETATM   13  N4  UNL     1      26.001   0.506  54.292  1.00  0.00    -0.369 N 
HETATM   14  H27 UNL     1      26.414   0.659  55.234  1.00  0.00     0.161 HD
ENDROOT
BRANCH   9  15
HETATM   15  C14 UNL     1      23.762   4.283  51.911  1.00  0.00     0.128 C 
BRANCH  15  16
HETATM   16  C15 UNL     1      22.824   3.740  50.878  1.00  0.00     0.039 C 
BRANCH  16  17
HETATM   17  C16 UNL     1      22.135   4.739  50.012  1.00  0.00     0.118 C 
BRANCH  17  18
HETATM   18  N2  UNL     1      21.500   4.040  48.894  1.00  0.00    -0.408 N 
HETATM   19  C17 UNL     1      20.484   3.147  49.303  1.00  0.00     0.143 C 
HETATM   20  C18 UNL     1      20.498   1.780  48.695  1.00  0.00     0.187 C 
HETATM   21  O2  UNL     1      21.816   1.330  48.599  1.00  0.00    -0.388 OA
HETATM   22  C19 UNL     1      22.460   2.118  47.649  1.00  0.00     0.187 C 
HETATM   23  C20 UNL     1      22.392   3.582  47.900  1.00  0.00     0.143 C 
ENDBRANCH  17  18
ENDBRANCH  16  17
ENDBRANCH  15  16
ENDBRANCH   9  15
BRANCH   1  24
HETATM   24  C6  UNL     1      23.774   0.186  53.591  1.00  0.00    -0.027 A 
HETATM   25  C5  UNL     1      23.463  -0.791  54.513  1.00  0.00     0.010 A 
HETATM   26  C4  UNL     1      22.265  -1.451  54.658  1.00  0.00     0.001 A 
HETATM   27  C3  UNL     1      21.237  -1.101  53.776  1.00  0.00     0.007 A 
HETATM   28  C2  UNL     1      21.498  -0.129  52.835  1.00  0.00    -0.061 A 
HETATM   29  C1  UNL     1      20.303   0.135  51.970  1.00  0.00     0.048 C 
HETATM   30  C23 UNL     1      22.727   0.501  52.737  1.00  0.00     0.016 A 
ENDBRANCH   1  24
TORSDOF 5
ENDMDL
MODEL 5
REMARK VINA RESULT:      -8.4      2.128      5.848
REMARK  5 active torsions:
REMARK  status: ('A' for Active; 'I' for Inactive)
REMARK    1  A    between atoms: C6_6  and  C7_7 
REMARK    2  A    between atoms: N1_15  and  C14_16 
REMARK    3  A    between atoms: C14_16  and  C15_17 
REMARK    4  A    between atoms: C15_17  and  C16_18 
REMARK    5  A    between atoms: C16_18  and  N2_19 
ROOT
HETATM    1  C7  UNL     1      24.993   0.896  53.385  1.00  0.00     0.088 C 
HETATM    2  C8  UNL     1      24.790   2.470  53.407  1.00  0.00     0.060 C 
HETATM    3  C9  UNL     1      25.969   2.344  52.892  1.00  0.00     0.058 A 
HETATM    4  C10 UNL     1      27.252   2.164  52.235  1.00  0.00     0.036 A 
HETATM    5  C11 UNL     1      26.362   1.657  51.367  1.00  0.00     0.026 A 
HETATM    6  C12 UNL     1      26.425   2.485  50.115  1.00  0.00     0.117 C 
HETATM    7  C13 UNL     1      25.795   3.851  50.575  1.00  0.00     0.221 C 
HETATM    8  O1  UNL     1      25.917   4.907  49.957  1.00  0.00    -0.273 OA
HETATM    9  N1  UNL     1      25.096   3.397  51.874  1.00  0.00    -0.341 N 
HETATM   10  C21 UNL     1      25.596   0.494  52.022  1.00  0.00     0.154 C 
HETATM   11  N3  UNL     1      26.489  -0.583  52.368  1.00  0.00    -0.276 NA
HETATM   12  C22 UNL     1      26.693  -0.569  53.666  1.00  0.00     0.197 C 
HETATM   13  N4  UNL     1      25.980   0.492  54.339  1.00  0.00    -0.369 N 
HETATM   14  H27 UNL     1      26.369   0.661  55.288  1.00  0.00     0.161 HD
ENDROOT
BRANCH   9  15
HETATM   15  C14 UNL     1      23.815   4.231  51.832  1.00  0.00     0.128 C 
BRANCH  15  16
HETATM   16  C15 UNL     1      22.915   3.689  50.765  1.00  0.00     0.039 C 
BRANCH  16  17
HETATM   17  C16 UNL     1      21.503   4.167  50.778  1.00  0.00     0.118 C 
BRANCH  17  18
HETATM   18  N2  UNL     1      21.384   5.317  49.880  1.00  0.00    -0.408 N 
HETATM   19  C17 UNL     1      22.290   5.271  48.797  1.00  0.00     0.143 C 
HETATM   20  C18 UNL     1      23.045   6.525  48.491  1.00  0.00     0.187 C 
HETATM   21  O2  UNL     1      23.427   7.138  49.686  1.00  0.00    -0.388 OA
HETATM   22  C19 UNL     1      22.270   7.596  50.311  1.00  0.00     0.187 C 
HETATM   23  C20 UNL     1      21.226   6.561  50.530  1.00  0.00     0.143 C 
ENDBRANCH  17  18
ENDBRANCH  16  17
ENDBRANCH  15  16
ENDBRANCH   9  15
BRANCH   1  24
HETATM   24  C6  UNL     1      23.771   0.165  53.586  1.00  0.00    -0.027 A 
HETATM   25  C5  UNL     1      23.440  -0.809  54.504  1.00  0.00     0.010 A 
HETATM   26  C4  UNL     1      22.236  -1.462  54.631  1.00  0.00     0.001 A 
HETATM   27  C3  UNL     1      21.224  -1.106  53.734  1.00  0.00     0.007 A 
HETATM   28  C2  UNL     1      21.505  -0.136  52.797  1.00  0.00    -0.061 A 
HETATM   29  C1  UNL     1      20.324   0.135  51.914  1.00  0.00     0.048 C 
HETATM   30  C23 UNL     1      22.739   0.487  52.717  1.00  0.00     0.016 A 
ENDBRANCH   1  24
TORSDOF 5
ENDMDL
MODEL 6
REMARK VINA RESULT:      -8.1      1.720      2.473
REMARK  5 active torsions:
REMARK  status: ('A' for Active; 'I' for Inactive)
REMARK    1  A    between atoms: C6_6  and  C7_7 
REMARK    2  A    between atoms: N1_15  and  C14_16 
REMARK    3  A    between atoms: C14_16  and  C15_17 
REMARK    4  A    between atoms: C15_17  and  C16_18 
REMARK    5  A    between atoms: C16_18  and  N2_19 
ROOT
HETATM    1  C7  UNL     1      22.374   3.303  50.362  1.00  0.00     0.088 C 
HETATM    2  C8  UNL     1      23.588   2.764  49.492  1.00  0.00     0.060 C 
HETATM    3  C9  UNL     1      23.496   3.998  49.117  1.00  0.00     0.058 A 
HETATM    4  C10 UNL     1      23.424   5.411  48.784  1.00  0.00     0.036 A 
HETATM    5  C11 UNL     1      23.814   5.393  50.069  1.00  0.00     0.026 A 
HETATM    6  C12 UNL     1      25.180   6.013  50.139  1.00  0.00     0.117 C 
HETATM    7  C13 UNL     1      26.083   4.933  49.437  1.00  0.00     0.221 C 
HETATM    8  O1  UNL     1      27.216   5.155  49.013  1.00  0.00    -0.273 OA
HETATM    9  N1  UNL     1      25.135   3.717  49.494  1.00  0.00    -0.341 N 
HETATM   10  C21 UNL     1      22.749   4.689  50.929  1.00  0.00     0.154 C 
HETATM   11  N3  UNL     1      21.498   5.403  50.891  1.00  0.00    -0.276 NA
HETATM   12  C22 UNL     1      20.660   4.757  50.113  1.00  0.00     0.197 C 
HETATM   13  N4  UNL     1      21.228   3.556  49.544  1.00  0.00    -0.369 N 
HETATM   14  H27 UNL     1      20.670   3.226  48.732  1.00  0.00     0.161 HD
ENDROOT
BRANCH   9  15
HETATM   15  C14 UNL     1      26.122   2.581  49.765  1.00  0.00     0.128 C 
BRANCH  15  16
HETATM   16  C15 UNL     1      26.507   2.606  51.212  1.00  0.00     0.039 C 
BRANCH  16  17
HETATM   17  C16 UNL     1      26.753   1.285  51.859  1.00  0.00     0.118 C 
BRANCH  17  18
HETATM   18  N2  UNL     1      27.159   1.506  53.248  1.00  0.00    -0.408 N 
HETATM   19  C17 UNL     1      28.239   2.409  53.374  1.00  0.00     0.143 C 
HETATM   20  C18 UNL     1      29.357   2.006  54.282  1.00  0.00     0.187 C 
HETATM   21  O2  UNL     1      29.610   0.641  54.127  1.00  0.00    -0.388 OA
HETATM   22  C19 UNL     1      28.512  -0.050  54.631  1.00  0.00     0.187 C 
HETATM   23  C20 UNL     1      27.204   0.340  54.044  1.00  0.00     0.143 C 
ENDBRANCH  17  18
ENDBRANCH  16  17
ENDBRANCH  15  16
ENDBRANCH   9  15
BRANCH   1  24
HETATM   24  C6  UNL     1      22.031   2.432  51.453  1.00  0.00    -0.027 A 
HETATM   25  C5  UNL     1      20.895   2.361  52.231  1.00  0.00     0.010 A 
HETATM   26  C4  UNL     1      20.643   1.487  53.264  1.00  0.00     0.001 A 
HETATM   27  C3  UNL     1      21.646   0.561  53.570  1.00  0.00     0.007 A 
HETATM   28  C2  UNL     1      22.801   0.591  52.821  1.00  0.00    -0.061 A 
HETATM   29  C1  UNL     1      23.774  -0.458  53.267  1.00  0.00     0.048 C 
HETATM   30  C23 UNL     1      22.998   1.496  51.792  1.00  0.00     0.016 A 
ENDBRANCH   1  24
TORSDOF 5
ENDMDL
MODEL 7
REMARK VINA RESULT:      -8.1      2.361      4.917
REMARK  5 active torsions:
REMARK  status: ('A' for Active; 'I' for Inactive)
REMARK    1  A    between atoms: C6_6  and  C7_7 
REMARK    2  A    between atoms: N1_15  and  C14_16 
REMARK    3  A    between atoms: C14_16  and  C15_17 
REMARK    4  A    between atoms: C15_17  and  C16_18 
REMARK    5  A    between atoms: C16_18  and  N2_19 
ROOT
HETATM    1  C7  UNL     1      22.027   0.353  52.481  1.00  0.00     0.088 C 
HETATM    2  C8  UNL     1      21.756   0.214  50.923  1.00  0.00     0.060 C 
HETATM    3  C9  UNL     1      20.571   0.104  51.427  1.00  0.00     0.058 A 
HETATM    4  C10 UNL     1      19.244   0.073  52.019  1.00  0.00     0.036 A 
HETATM    5  C11 UNL     1      19.676   1.325  52.240  1.00  0.00     0.026 A 
HETATM    6  C12 UNL     1      18.758   2.260  51.505  1.00  0.00     0.117 C 
HETATM    7  C13 UNL     1      19.116   1.979  50.000  1.00  0.00     0.221 C 
HETATM    8  O1  UNL     1      18.405   2.306  49.051  1.00  0.00    -0.273 OA
HETATM    9  N1  UNL     1      20.470   1.260  50.178  1.00  0.00    -0.341 N 
HETATM   10  C21 UNL     1      20.962   1.293  53.086  1.00  0.00     0.154 C 
HETATM   11  N3  UNL     1      20.714   0.711  54.381  1.00  0.00    -0.276 NA
HETATM   12  C22 UNL     1      21.199  -0.510  54.400  1.00  0.00     0.197 C 
HETATM   13  N4  UNL     1      21.818  -0.893  53.152  1.00  0.00    -0.369 N 
HETATM   14  H27 UNL     1      21.932  -1.924  53.091  1.00  0.00     0.161 HD
ENDROOT
BRANCH   9  15
HETATM   15  C14 UNL     1      21.256   1.802  48.984  1.00  0.00     0.128 C 
BRANCH  15  16
HETATM   16  C15 UNL     1      21.831   3.137  49.345  1.00  0.00     0.039 C 
BRANCH  16  17
HETATM   17  C16 UNL     1      23.119   3.506  48.689  1.00  0.00     0.118 C 
BRANCH  17  18
HETATM   18  N2  UNL     1      24.072   3.922  49.719  1.00  0.00    -0.408 N 
HETATM   19  C17 UNL     1      24.093   5.320  49.923  1.00  0.00     0.143 C 
HETATM   20  C18 UNL     1      25.436   5.975  49.995  1.00  0.00     0.187 C 
HETATM   21  O2  UNL     1      26.281   5.403  49.042  1.00  0.00    -0.388 OA
HETATM   22  C19 UNL     1      26.533   4.092  49.438  1.00  0.00     0.187 C 
HETATM   23  C20 UNL     1      25.321   3.264  49.670  1.00  0.00     0.143 C 
ENDBRANCH  17  18
ENDBRANCH  16  17
ENDBRANCH  15  16
ENDBRANCH   9  15
BRANCH   1  24
HETATM   24  C6  UNL     1      23.332   0.875  52.784  1.00  0.00    -0.027 A 
HETATM   25  C5  UNL     1      23.763   2.167  52.997  1.00  0.00     0.010 A 
HETATM   26  C4  UNL     1      25.042   2.583  53.286  1.00  0.00     0.001 A 
HETATM   27  C3  UNL     1      26.026   1.594  53.376  1.00  0.00     0.007 A 
HETATM   28  C2  UNL     1      25.646   0.286  53.172  1.00  0.00    -0.061 A 
HETATM   29  C1  UNL     1      26.808  -0.652  53.303  1.00  0.00     0.048 C 
HETATM   30  C23 UNL     1      24.341  -0.073  52.883  1.00  0.00     0.016 A 
ENDBRANCH   1  24
TORSDOF 5
ENDMDL
MODEL 8
REMARK VINA RESULT:      -8.1      3.066      6.099
REMARK  5 active torsions:
REMARK  status: ('A' for Active; 'I' for Inactive)
REMARK    1  A    between atoms: C6_6  and  C7_7 
REMARK    2  A    between atoms: N1_15  and  C14_16 
REMARK    3  A    between atoms: C14_16  and  C15_17 
REMARK    4  A    between atoms: C15_17  and  C16_18 
REMARK    5  A    between atoms: C16_18  and  N2_19 
ROOT
HETATM    1  C7  UNL     1      23.983   6.107  49.319  1.00  0.00     0.088 C 
HETATM    2  C8  UNL     1      23.665   6.213  50.871  1.00  0.00     0.060 C 
HETATM    3  C9  UNL     1      22.487   6.134  50.345  1.00  0.00     0.058 A 
HETATM    4  C10 UNL     1      21.182   5.952  49.731  1.00  0.00     0.036 A 
HETATM    5  C11 UNL     1      21.808   4.782  49.529  1.00  0.00     0.026 A 
HETATM    6  C12 UNL     1      21.034   3.721  50.258  1.00  0.00     0.117 C 
HETATM    7  C13 UNL     1      21.315   4.065  51.766  1.00  0.00     0.221 C 
HETATM    8  O1  UNL     1      20.646   3.638  52.705  1.00  0.00    -0.273 OA
HETATM    9  N1  UNL     1      22.544   4.985  51.604  1.00  0.00    -0.341 N 
HETATM   10  C21 UNL     1      23.089   5.008  48.706  1.00  0.00     0.154 C 
HETATM   11  N3  UNL     1      22.778   5.535  47.400  1.00  0.00    -0.276 NA
HETATM   12  C22 UNL     1      23.066   6.816  47.378  1.00  0.00     0.197 C 
HETATM   13  N4  UNL     1      23.594   7.300  48.632  1.00  0.00    -0.369 N 
HETATM   14  H27 UNL     1      23.545   8.337  48.685  1.00  0.00     0.161 HD
ENDROOT
BRANCH   9  15
HETATM   15  C14 UNL     1      23.382   4.581  52.817  1.00  0.00     0.128 C 
BRANCH  15  16
HETATM   16  C15 UNL     1      23.749   3.134  52.696  1.00  0.00     0.039 C 
BRANCH  16  17
HETATM   17  C16 UNL     1      24.626   2.764  51.548  1.00  0.00     0.118 C 
BRANCH  17  18
HETATM   18  N2  UNL     1      25.584   1.750  51.992  1.00  0.00    -0.408 N 
HETATM   19  C17 UNL     1      25.209   1.125  53.203  1.00  0.00     0.143 C 
HETATM   20  C18 UNL     1      26.270   0.980  54.248  1.00  0.00     0.187 C 
HETATM   21  O2  UNL     1      27.049   2.139  54.280  1.00  0.00    -0.388 OA
HETATM   22  C19 UNL     1      27.767   2.195  53.089  1.00  0.00     0.187 C 
HETATM   23  C20 UNL     1      26.940   2.118  51.855  1.00  0.00     0.143 C 
ENDBRANCH  17  18
ENDBRANCH  16  17
ENDBRANCH  15  16
ENDBRANCH   9  15
BRANCH   1  24
HETATM   24  C6  UNL     1      25.359   5.793  49.045  1.00  0.00    -0.027 A 
HETATM   25  C5  UNL     1      26.058   4.611  49.163  1.00  0.00     0.010 A 
HETATM   26  C4  UNL     1      27.386   4.394  48.874  1.00  0.00     0.001 A 
HETATM   27  C3  UNL     1      28.121   5.488  48.407  1.00  0.00     0.007 A 
HETATM   28  C2  UNL     1      27.467   6.693  48.271  1.00  0.00    -0.061 A 
HETATM   29  C1  UNL     1      28.384   7.763  47.762  1.00  0.00     0.048 C 
HETATM   30  C23 UNL     1      26.126   6.851  48.579  1.00  0.00     0.016 A 
ENDBRANCH   1  24
TORSDOF 5
ENDMDL
MODEL 9
REMARK VINA RESULT:      -7.7      2.004      4.308
REMARK  5 active torsions:
REMARK  status: ('A' for Active; 'I' for Inactive)
REMARK    1  A    between atoms: C6_6  and  C7_7 
REMARK    2  A    between atoms: N1_15  and  C14_16 
REMARK    3  A    between atoms: C14_16  and  C15_17 
REMARK    4  A    between atoms: C15_17  and  C16_18 
REMARK    5  A    between atoms: C16_18  and  N2_19 
ROOT
HETATM    1  C7  UNL     1      20.687   2.069  51.631  1.00  0.00     0.088 C 
HETATM    2  C8  UNL     1      21.826   2.435  52.675  1.00  0.00     0.060 C 
HETATM    3  C9  UNL     1      21.275   1.395  53.210  1.00  0.00     0.058 A 
HETATM    4  C10 UNL     1      20.693   0.173  53.739  1.00  0.00     0.036 A 
HETATM    5  C11 UNL     1      21.298  -0.213  52.605  1.00  0.00     0.026 A 
HETATM    6  C12 UNL     1      22.381  -1.186  52.976  1.00  0.00     0.117 C 
HETATM    7  C13 UNL     1      23.436  -0.268  53.694  1.00  0.00     0.221 C 
HETATM    8  O1  UNL     1      24.338  -0.691  54.415  1.00  0.00    -0.273 OA
HETATM    9  N1  UNL     1      22.957   1.117  53.210  1.00  0.00    -0.341 N 
HETATM   10  C21 UNL     1      20.695   0.542  51.407  1.00  0.00     0.154 C 
HETATM   11  N3  UNL     1      19.297   0.230  51.250  1.00  0.00    -0.276 NA
HETATM   12  C22 UNL     1      18.583   1.244  51.682  1.00  0.00     0.197 C 
HETATM   13  N4  UNL     1      19.390   2.338  52.171  1.00  0.00    -0.369 N 
HETATM   14  H27 UNL     1      18.827   2.987  52.756  1.00  0.00     0.161 HD
ENDROOT
BRANCH   9  15
HETATM   15  C14 UNL     1      24.289   1.841  53.010  1.00  0.00     0.128 C 
BRANCH  15  16
HETATM   16  C15 UNL     1      25.030   1.195  51.880  1.00  0.00     0.039 C 
BRANCH  16  17
HETATM   17  C16 UNL     1      26.509   1.383  51.860  1.00  0.00     0.118 C 
BRANCH  17  18
HETATM   18  N2  UNL     1      27.060   0.941  53.142  1.00  0.00    -0.408 N 
HETATM   19  C17 UNL     1      27.935   1.885  53.725  1.00  0.00     0.143 C 
HETATM   20  C18 UNL     1      29.234   1.368  54.257  1.00  0.00     0.187 C 
HETATM   21  O2  UNL     1      29.740   0.403  53.383  1.00  0.00    -0.388 OA
HETATM   22  C19 UNL     1      28.896  -0.703  53.445  1.00  0.00     0.187 C 
HETATM   23  C20 UNL     1      27.463  -0.412  53.178  1.00  0.00     0.143 C 
ENDBRANCH  17  18
ENDBRANCH  16  17
ENDBRANCH  15  16
ENDBRANCH   9  15
BRANCH   1  24
HETATM   24  C6  UNL     1      20.851   2.726  50.363  1.00  0.00    -0.027 A 
HETATM   25  C5  UNL     1      20.282   3.877  49.861  1.00  0.00     0.010 A 
HETATM   26  C4  UNL     1      20.496   4.444  48.626  1.00  0.00     0.001 A 
HETATM   27  C3  UNL     1      21.390   3.789  47.773  1.00  0.00     0.007 A 
HETATM   28  C2  UNL     1      21.986   2.633  48.229  1.00  0.00    -0.061 A 
HETATM   29  C1  UNL     1      22.914   2.052  47.206  1.00  0.00     0.048 C 
HETATM   30  C23 UNL     1      21.730   2.109  49.485  1.00  0.00     0.016 A 
ENDBRANCH   1  24
TORSDOF 5
ENDMDL
