MODEL 1
REMARK VINA RESULT:      -8.2      0.000      0.000
REMARK  7 active torsions:
REMARK  status: ('A' for Active; 'I' for Inactive)
REMARK    1  A    between atoms: C2_2  and  C3_3 
REMARK    2  A    between atoms: C3_3  and  C4_5 
REMARK    3  A    between atoms: C4_5  and  C5_6 
REMARK    4  A    between atoms: C5_6  and  O3_25 
REMARK    5  A    between atoms: C6_7  and  C7_8 
REMARK    6  A    between atoms: C11_13  and  O2_14 
REMARK    7  A    between atoms: O2_14  and  C12_15 
ROOT
HETATM    1  C7  UNL     1      25.498   1.792  52.183  1.00  0.00     0.061 C 
HETATM    2  N1  UNL     1      26.035   2.298  51.127  1.00  0.00    -0.247 NA
HETATM    3  C8  UNL     1      25.913   3.534  50.455  1.00  0.00     0.082 A 
HETATM    4  C9  UNL     1      24.940   4.405  50.634  1.00  0.00     0.044 A 
HETATM    5  C10 UNL     1      25.229   5.538  49.721  1.00  0.00     0.124 A 
HETATM    6  C11 UNL     1      26.488   5.146  49.039  1.00  0.00     0.061 A 
HETATM    7  C17 UNL     1      26.895   3.963  49.467  1.00  0.00     0.066 A 
HETATM    8  N3  UNL     1      23.808   4.367  51.497  1.00  0.00    -0.367 N 
HETATM    9  C18 UNL     1      23.798   3.621  52.732  1.00  0.00     0.090 C 
HETATM   10  C19 UNL     1      24.533   2.524  52.992  1.00  0.00     0.048 C 
HETATM   11  H16 UNL     1      22.969   4.892  51.234  1.00  0.00     0.165 HD
ENDROOT
BRANCH   1  12
HETATM   12  C6  UNL     1      25.862   0.458  52.599  1.00  0.00     0.064 C 
HETATM   13  C5  UNL     1      26.591  -0.090  53.552  1.00  0.00     0.055 C 
BRANCH  13  14
HETATM   14  C4  UNL     1      27.447   0.098  54.718  1.00  0.00     0.142 C 
BRANCH  14  15
HETATM   15  C3  UNL     1      28.722   0.849  54.426  1.00  0.00     0.132 C 
HETATM   16  O1  UNL     1      29.125   1.914  54.855  1.00  0.00    -0.298 OA
BRANCH  15  17
HETATM   17  C2  UNL     1      29.719   0.289  53.477  1.00  0.00     0.074 C 
HETATM   18  C1  UNL     1      30.090  -1.139  53.818  1.00  0.00     0.013 C 
ENDBRANCH  15  17
ENDBRANCH  14  15
ENDBRANCH  13  14
BRANCH  13  19
HETATM   19  O3  UNL     1      26.653  -1.503  53.548  1.00  0.00    -0.360 OA
HETATM   20  C20 UNL     1      26.880  -2.263  52.406  1.00  0.00     0.209 C 
ENDBRANCH  13  19
ENDBRANCH   1  12
BRANCH   6  21
HETATM   21  O2  UNL     1      27.220   5.825  48.083  1.00  0.00    -0.313 OA
BRANCH  21  22
HETATM   22  C12 UNL     1      28.341   6.576  48.286  1.00  0.00     0.093 A 
HETATM   23  C13 UNL     1      29.484   5.799  48.048  1.00  0.00     0.040 A 
HETATM   24  C14 UNL     1      30.769   6.335  48.188  1.00  0.00     0.022 A 
HETATM   25  C15 UNL     1      30.864   7.655  48.567  1.00  0.00     0.116 A 
HETATM   26  N2  UNL     1      29.757   8.412  48.798  1.00  0.00    -0.270 NA
HETATM   27  C16 UNL     1      28.525   7.890  48.661  1.00  0.00     0.153 A 
ENDBRANCH  21  22
ENDBRANCH   6  21
TORSDOF 7
ENDMDL
MODEL 2
REMARK VINA RESULT:      -7.8      1.310      1.820
REMARK  7 active torsions:
REMARK  status: ('A' for Active; 'I' for Inactive)
REMARK    1  A    between atoms: C2_2  and  C3_3 
REMARK    2  A    between atoms: C3_3  and  C4_5 
REMARK    3  A    between atoms: C4_5  and  C5_6 
REMARK    4  A    between atoms: C5_6  and  O3_25 
REMARK    5  A    between atoms: C6_7  and  C7_8 
REMARK    6  A    between atoms: C11_13  and  O2_14 
REMARK    7  A    between atoms: O2_14  and  C12_15 
ROOT
HETATM    1  C7  UNL     1      24.333   2.586  52.280  1.00  0.00     0.061 C 
HETATM    2  N1  UNL     1      25.160   2.689  51.298  1.00  0.00    -0.247 NA
HETATM    3  C8  UNL     1      25.599   3.759  50.487  1.00  0.00     0.082 A 
HETATM    4  C9  UNL     1      25.004   4.931  50.386  1.00  0.00     0.044 A 
HETATM    5  C10 UNL     1      25.815   5.723  49.429  1.00  0.00     0.124 A 
HETATM    6  C11 UNL     1      26.920   4.809  49.043  1.00  0.00     0.061 A 
HETATM    7  C17 UNL     1      26.796   3.648  49.663  1.00  0.00     0.066 A 
HETATM    8  N3  UNL     1      23.831   5.434  51.018  1.00  0.00    -0.367 N 
HETATM    9  C18 UNL     1      23.376   4.956  52.301  1.00  0.00     0.090 C 
HETATM   10  C19 UNL     1      23.607   3.733  52.810  1.00  0.00     0.048 C 
HETATM   11  H16 UNL     1      23.292   6.166  50.547  1.00  0.00     0.165 HD
ENDROOT
BRANCH   1  12
HETATM   12  C6  UNL     1      24.115   1.299  52.896  1.00  0.00     0.064 C 
HETATM   13  C5  UNL     1      24.805   0.189  53.083  1.00  0.00     0.055 C 
BRANCH  13  14
HETATM   14  C4  UNL     1      26.056  -0.537  52.893  1.00  0.00     0.142 C 
BRANCH  14  15
HETATM   15  C3  UNL     1      27.188  -0.042  53.758  1.00  0.00     0.132 C 
HETATM   16  O1  UNL     1      27.423  -0.235  54.936  1.00  0.00    -0.298 OA
BRANCH  15  17
HETATM   17  C2  UNL     1      28.246   0.827  53.179  1.00  0.00     0.074 C 
HETATM   18  C1  UNL     1      28.039   2.286  53.528  1.00  0.00     0.013 C 
ENDBRANCH  15  17
ENDBRANCH  14  15
ENDBRANCH  13  14
BRANCH  13  19
HETATM   19  O3  UNL     1      24.133  -0.848  53.770  1.00  0.00    -0.360 OA
HETATM   20  C20 UNL     1      22.822  -0.751  54.225  1.00  0.00     0.209 C 
ENDBRANCH  13  19
ENDBRANCH   1  12
BRANCH   6  21
HETATM   21  O2  UNL     1      27.976   5.021  48.176  1.00  0.00    -0.313 OA
BRANCH  21  22
HETATM   22  C12 UNL     1      28.802   6.106  48.136  1.00  0.00     0.093 A 
HETATM   23  C13 UNL     1      30.125   5.705  48.368  1.00  0.00     0.040 A 
HETATM   24  C14 UNL     1      31.173   6.632  48.381  1.00  0.00     0.022 A 
HETATM   25  C15 UNL     1      30.852   7.951  48.156  1.00  0.00     0.116 A 
HETATM   26  N2  UNL     1      29.568   8.343  47.929  1.00  0.00    -0.270 NA
HETATM   27  C16 UNL     1      28.566   7.447  47.919  1.00  0.00     0.153 A 
ENDBRANCH  21  22
ENDBRANCH   6  21
TORSDOF 7
ENDMDL
MODEL 3
REMARK VINA RESULT:      -7.8      3.042      7.602
REMARK  7 active torsions:
REMARK  status: ('A' for Active; 'I' for Inactive)
REMARK    1  A    between atoms: C2_2  and  C3_3 
REMARK    2  A    between atoms: C3_3  and  C4_5 
REMARK    3  A    between atoms: C4_5  and  C5_6 
REMARK    4  A    between atoms: C5_6  and  O3_25 
REMARK    5  A    between atoms: C6_7  and  C7_8 
REMARK    6  A    between atoms: C11_13  and  O2_14 
REMARK    7  A    between atoms: O2_14  and  C12_15 
ROOT
HETATM    1  C7  UNL     1      21.760   4.044  51.741  1.00  0.00     0.061 C 
HETATM    2  N1  UNL     1      22.776   3.340  52.101  1.00  0.00    -0.247 NA
HETATM    3  C8  UNL     1      22.947   2.009  52.545  1.00  0.00     0.082 A 
HETATM    4  C9  UNL     1      21.981   1.220  52.972  1.00  0.00     0.044 A 
HETATM    5  C10 UNL     1      22.629  -0.067  53.327  1.00  0.00     0.124 A 
HETATM    6  C11 UNL     1      24.067   0.153  53.026  1.00  0.00     0.061 A 
HETATM    7  C17 UNL     1      24.260   1.377  52.566  1.00  0.00     0.066 A 
HETATM    8  N3  UNL     1      20.582   1.451  53.101  1.00  0.00    -0.367 N 
HETATM    9  C18 UNL     1      19.874   2.404  52.280  1.00  0.00     0.090 C 
HETATM   10  C19 UNL     1      20.408   3.502  51.715  1.00  0.00     0.048 C 
HETATM   11  H16 UNL     1      20.057   0.919  53.800  1.00  0.00     0.165 HD
ENDROOT
BRANCH   1  12
HETATM   12  C6  UNL     1      21.951   5.416  51.335  1.00  0.00     0.064 C 
HETATM   13  C5  UNL     1      22.971   6.217  51.092  1.00  0.00     0.055 C 
BRANCH  13  14
HETATM   14  C4  UNL     1      24.417   6.395  51.031  1.00  0.00     0.142 C 
BRANCH  14  15
HETATM   15  C3  UNL     1      25.074   5.679  49.878  1.00  0.00     0.132 C 
HETATM   16  O1  UNL     1      25.240   6.028  48.725  1.00  0.00    -0.298 OA
BRANCH  15  17
HETATM   17  C2  UNL     1      25.647   4.321  50.071  1.00  0.00     0.074 C 
HETATM   18  C1  UNL     1      26.888   4.102  49.231  1.00  0.00     0.013 C 
ENDBRANCH  15  17
ENDBRANCH  14  15
ENDBRANCH  13  14
BRANCH  13  19
HETATM   19  O3  UNL     1      22.642   7.538  50.708  1.00  0.00    -0.360 OA
HETATM   20  C20 UNL     1      21.424   7.896  50.139  1.00  0.00     0.209 C 
ENDBRANCH  13  19
ENDBRANCH   1  12
BRANCH   6  21
HETATM   21  O2  UNL     1      25.138  -0.711  53.165  1.00  0.00    -0.313 OA
BRANCH  21  22
HETATM   22  C12 UNL     1      26.363  -0.424  53.690  1.00  0.00     0.093 A 
HETATM   23  C13 UNL     1      27.361  -1.075  52.952  1.00  0.00     0.040 A 
HETATM   24  C14 UNL     1      28.714  -0.946  53.287  1.00  0.00     0.022 A 
HETATM   25  C15 UNL     1      29.023  -0.152  54.369  1.00  0.00     0.116 A 
HETATM   26  N2  UNL     1      28.056   0.482  55.086  1.00  0.00    -0.270 NA
HETATM   27  C16 UNL     1      26.759   0.353  54.759  1.00  0.00     0.153 A 
ENDBRANCH  21  22
ENDBRANCH   6  21
TORSDOF 7
ENDMDL
MODEL 4
REMARK VINA RESULT:      -7.5      5.627      9.006
REMARK  7 active torsions:
REMARK  status: ('A' for Active; 'I' for Inactive)
REMARK    1  A    between atoms: C2_2  and  C3_3 
REMARK    2  A    between atoms: C3_3  and  C4_5 
REMARK    3  A    between atoms: C4_5  and  C5_6 
REMARK    4  A    between atoms: C5_6  and  O3_25 
REMARK    5  A    between atoms: C6_7  and  C7_8 
REMARK    6  A    between atoms: C11_13  and  O2_14 
REMARK    7  A    between atoms: O2_14  and  C12_15 
ROOT
HETATM    1  C7  UNL     1      23.124   0.232  52.887  1.00  0.00     0.061 C 
HETATM    2  N1  UNL     1      22.049   0.351  52.187  1.00  0.00    -0.247 NA
HETATM    3  C8  UNL     1      20.687   0.049  52.412  1.00  0.00     0.082 A 
HETATM    4  C9  UNL     1      20.229  -0.732  53.371  1.00  0.00     0.044 A 
HETATM    5  C10 UNL     1      18.754  -0.753  53.215  1.00  0.00     0.124 A 
HETATM    6  C11 UNL     1      18.498   0.126  52.044  1.00  0.00     0.061 A 
HETATM    7  C17 UNL     1      19.636   0.600  51.566  1.00  0.00     0.066 A 
HETATM    8  N3  UNL     1      20.916  -1.447  54.392  1.00  0.00    -0.367 N 
HETATM    9  C18 UNL     1      22.195  -1.024  54.910  1.00  0.00     0.090 C 
HETATM   10  C19 UNL     1      23.115  -0.308  54.240  1.00  0.00     0.048 C 
HETATM   11  H16 UNL     1      20.486  -2.292  54.778  1.00  0.00     0.165 HD
ENDROOT
BRANCH   1  12
HETATM   12  C6  UNL     1      24.387   0.654  52.330  1.00  0.00     0.064 C 
HETATM   13  C5  UNL     1      25.647   0.267  52.394  1.00  0.00     0.055 C 
BRANCH  13  14
HETATM   14  C4  UNL     1      26.628  -0.669  52.931  1.00  0.00     0.142 C 
BRANCH  14  15
HETATM   15  C3  UNL     1      27.135  -0.304  54.303  1.00  0.00     0.132 C 
HETATM   16  O1  UNL     1      26.553  -0.247  55.370  1.00  0.00    -0.298 OA
BRANCH  15  17
HETATM   17  C2  UNL     1      28.562   0.062  54.499  1.00  0.00     0.074 C 
HETATM   18  C1  UNL     1      29.483  -0.733  53.598  1.00  0.00     0.013 C 
ENDBRANCH  15  17
ENDBRANCH  14  15
ENDBRANCH  13  14
BRANCH  13  19
HETATM   19  O3  UNL     1      26.567   1.032  51.641  1.00  0.00    -0.360 OA
HETATM   20  C20 UNL     1      26.637   2.420  51.686  1.00  0.00     0.209 C 
ENDBRANCH  13  19
ENDBRANCH   1  12
BRANCH   6  21
HETATM   21  O2  UNL     1      17.299   0.472  51.449  1.00  0.00    -0.313 OA
BRANCH  21  22
HETATM   22  C12 UNL     1      16.509   1.542  51.752  1.00  0.00     0.093 A 
HETATM   23  C13 UNL     1      15.299   1.098  52.303  1.00  0.00     0.040 A 
HETATM   24  C14 UNL     1      14.307   2.002  52.701  1.00  0.00     0.022 A 
HETATM   25  C15 UNL     1      14.570   3.343  52.530  1.00  0.00     0.116 A 
HETATM   26  N2  UNL     1      15.745   3.776  51.997  1.00  0.00    -0.270 NA
HETATM   27  C16 UNL     1      16.693   2.902  51.617  1.00  0.00     0.153 A 
ENDBRANCH  21  22
ENDBRANCH   6  21
TORSDOF 7
ENDMDL
MODEL 5
REMARK VINA RESULT:      -7.4      4.090      5.575
REMARK  7 active torsions:
REMARK  status: ('A' for Active; 'I' for Inactive)
REMARK    1  A    between atoms: C2_2  and  C3_3 
REMARK    2  A    between atoms: C3_3  and  C4_5 
REMARK    3  A    between atoms: C4_5  and  C5_6 
REMARK    4  A    between atoms: C5_6  and  O3_25 
REMARK    5  A    between atoms: C6_7  and  C7_8 
REMARK    6  A    between atoms: C11_13  and  O2_14 
REMARK    7  A    between atoms: O2_14  and  C12_15 
ROOT
HETATM    1  C7  UNL     1      23.667  -0.254  53.864  1.00  0.00     0.061 C 
HETATM    2  N1  UNL     1      23.371   0.772  53.143  1.00  0.00    -0.247 NA
HETATM    3  C8  UNL     1      22.166   1.430  52.811  1.00  0.00     0.082 A 
HETATM    4  C9  UNL     1      20.957   0.929  52.972  1.00  0.00     0.044 A 
HETATM    5  C10 UNL     1      20.014   1.968  52.488  1.00  0.00     0.124 A 
HETATM    6  C11 UNL     1      20.893   3.084  52.053  1.00  0.00     0.061 A 
HETATM    7  C17 UNL     1      22.163   2.771  52.241  1.00  0.00     0.066 A 
HETATM    8  N3  UNL     1      20.534  -0.327  53.492  1.00  0.00    -0.367 N 
HETATM    9  C18 UNL     1      21.317  -1.075  54.446  1.00  0.00     0.090 C 
HETATM   10  C19 UNL     1      22.654  -1.020  54.578  1.00  0.00     0.048 C 
HETATM   11  H16 UNL     1      19.638  -0.714  53.181  1.00  0.00     0.165 HD
ENDROOT
BRANCH   1  12
HETATM   12  C6  UNL     1      25.045  -0.664  53.989  1.00  0.00     0.064 C 
HETATM   13  C5  UNL     1      26.159  -0.528  53.295  1.00  0.00     0.055 C 
BRANCH  13  14
HETATM   14  C4  UNL     1      26.820   0.006  52.110  1.00  0.00     0.142 C 
BRANCH  14  15
HETATM   15  C3  UNL     1      26.987   1.505  52.125  1.00  0.00     0.132 C 
HETATM   16  O1  UNL     1      26.969   2.309  51.213  1.00  0.00    -0.298 OA
BRANCH  15  17
HETATM   17  C2  UNL     1      27.213   2.219  53.409  1.00  0.00     0.074 C 
HETATM   18  C1  UNL     1      28.686   2.402  53.707  1.00  0.00     0.013 C 
ENDBRANCH  15  17
ENDBRANCH  14  15
ENDBRANCH  13  14
BRANCH  13  19
HETATM   19  O3  UNL     1      27.309  -1.137  53.846  1.00  0.00    -0.360 OA
HETATM   20  C20 UNL     1      28.435  -1.478  53.104  1.00  0.00     0.209 C 
ENDBRANCH  13  19
ENDBRANCH   1  12
BRANCH   6  21
HETATM   21  O2  UNL     1      20.554   4.313  51.518  1.00  0.00    -0.313 OA
BRANCH  21  22
HETATM   22  C12 UNL     1      21.260   5.031  50.597  1.00  0.00     0.093 A 
HETATM   23  C13 UNL     1      21.711   6.228  51.171  1.00  0.00     0.040 A 
HETATM   24  C14 UNL     1      22.462   7.149  50.433  1.00  0.00     0.022 A 
HETATM   25  C15 UNL     1      22.741   6.831  49.123  1.00  0.00     0.116 A 
HETATM   26  N2  UNL     1      22.306   5.670  48.563  1.00  0.00    -0.270 NA
HETATM   27  C16 UNL     1      21.584   4.789  49.278  1.00  0.00     0.153 A 
ENDBRANCH  21  22
ENDBRANCH   6  21
TORSDOF 7
ENDMDL
MODEL 6
REMARK VINA RESULT:      -7.4      6.412     10.232
REMARK  7 active torsions:
REMARK  status: ('A' for Active; 'I' for Inactive)
REMARK    1  A    between atoms: C2_2  and  C3_3 
REMARK    2  A    between atoms: C3_3  and  C4_5 
REMARK    3  A    between atoms: C4_5  and  C5_6 
REMARK    4  A    between atoms: C5_6  and  O3_25 
REMARK    5  A    between atoms: C6_7  and  C7_8 
REMARK    6  A    between atoms: C11_13  and  O2_14 
REMARK    7  A    between atoms: O2_14  and  C12_15 
ROOT
HETATM    1  C7  UNL     1      22.454   1.435  51.230  1.00  0.00     0.061 C 
HETATM    2  N1  UNL     1      21.532   1.065  52.051  1.00  0.00    -0.247 NA
HETATM    3  C8  UNL     1      20.213   0.581  51.901  1.00  0.00     0.082 A 
HETATM    4  C9  UNL     1      19.494   0.661  50.798  1.00  0.00     0.044 A 
HETATM    5  C10 UNL     1      18.191   0.026  51.111  1.00  0.00     0.124 A 
HETATM    6  C11 UNL     1      18.323  -0.402  52.527  1.00  0.00     0.061 A 
HETATM    7  C17 UNL     1      19.514  -0.076  52.998  1.00  0.00     0.066 A 
HETATM    8  N3  UNL     1      19.807   1.215  49.525  1.00  0.00    -0.367 N 
HETATM    9  C18 UNL     1      21.160   1.307  49.029  1.00  0.00     0.090 C 
HETATM   10  C19 UNL     1      22.268   1.400  49.786  1.00  0.00     0.048 C 
HETATM   11  H16 UNL     1      19.044   1.559  48.935  1.00  0.00     0.165 HD
ENDROOT
BRANCH   1  12
HETATM   12  C6  UNL     1      23.723   1.891  51.743  1.00  0.00     0.064 C 
HETATM   13  C5  UNL     1      24.808   1.344  52.259  1.00  0.00     0.055 C 
BRANCH  13  14
HETATM   14  C4  UNL     1      25.509   0.132  52.664  1.00  0.00     0.142 C 
BRANCH  14  15
HETATM   15  C3  UNL     1      24.936  -0.525  53.895  1.00  0.00     0.132 C 
HETATM   16  O1  UNL     1      25.467  -0.832  54.945  1.00  0.00    -0.298 OA
BRANCH  15  17
HETATM   17  C2  UNL     1      23.498  -0.898  53.941  1.00  0.00     0.074 C 
HETATM   18  C1  UNL     1      23.044  -1.247  55.343  1.00  0.00     0.013 C 
ENDBRANCH  15  17
ENDBRANCH  14  15
ENDBRANCH  13  14
BRANCH  13  19
HETATM   19  O3  UNL     1      25.834   2.242  52.633  1.00  0.00    -0.360 OA
HETATM   20  C20 UNL     1      27.189   1.986  52.453  1.00  0.00     0.209 C 
ENDBRANCH  13  19
ENDBRANCH   1  12
BRANCH   6  21
HETATM   21  O2  UNL     1      17.411  -1.050  53.340  1.00  0.00    -0.313 OA
BRANCH  21  22
HETATM   22  C12 UNL     1      16.713  -2.186  53.050  1.00  0.00     0.093 A 
HETATM   23  C13 UNL     1      17.372  -3.299  53.589  1.00  0.00     0.040 A 
HETATM   24  C14 UNL     1      16.861  -4.592  53.431  1.00  0.00     0.022 A 
HETATM   25  C15 UNL     1      15.685  -4.725  52.727  1.00  0.00     0.116 A 
HETATM   26  N2  UNL     1      15.043  -3.645  52.203  1.00  0.00    -0.270 NA
HETATM   27  C16 UNL     1      15.540  -2.406  52.358  1.00  0.00     0.153 A 
ENDBRANCH  21  22
ENDBRANCH   6  21
TORSDOF 7
ENDMDL
MODEL 7
REMARK VINA RESULT:      -7.3      6.123      9.419
REMARK  7 active torsions:
REMARK  status: ('A' for Active; 'I' for Inactive)
REMARK    1  A    between atoms: C2_2  and  C3_3 
REMARK    2  A    between atoms: C3_3  and  C4_5 
REMARK    3  A    between atoms: C4_5  and  C5_6 
REMARK    4  A    between atoms: C5_6  and  O3_25 
REMARK    5  A    between atoms: C6_7  and  C7_8 
REMARK    6  A    between atoms: C11_13  and  O2_14 
REMARK    7  A    between atoms: O2_14  and  C12_15 
ROOT
HETATM    1  C7  UNL     1      23.175   0.172  53.001  1.00  0.00     0.061 C 
HETATM    2  N1  UNL     1      22.085   0.296  52.325  1.00  0.00    -0.247 NA
HETATM    3  C8  UNL     1      20.734  -0.038  52.562  1.00  0.00     0.082 A 
HETATM    4  C9  UNL     1      20.307  -0.860  53.501  1.00  0.00     0.044 A 
HETATM    5  C10 UNL     1      18.830  -0.902  53.370  1.00  0.00     0.124 A 
HETATM    6  C11 UNL     1      18.537   0.012  52.236  1.00  0.00     0.061 A 
HETATM    7  C17 UNL     1      19.658   0.523  51.755  1.00  0.00     0.066 A 
HETATM    8  N3  UNL     1      21.024  -1.598  54.485  1.00  0.00    -0.367 N 
HETATM    9  C18 UNL     1      22.305  -1.170  54.995  1.00  0.00     0.090 C 
HETATM   10  C19 UNL     1      23.200  -0.415  54.334  1.00  0.00     0.048 C 
HETATM   11  H16 UNL     1      20.615  -2.464  54.848  1.00  0.00     0.165 HD
ENDROOT
BRANCH   1  12
HETATM   12  C6  UNL     1      24.420   0.635  52.437  1.00  0.00     0.064 C 
HETATM   13  C5  UNL     1      25.695   0.297  52.504  1.00  0.00     0.055 C 
BRANCH  13  14
HETATM   14  C4  UNL     1      26.711  -0.595  53.050  1.00  0.00     0.142 C 
BRANCH  14  15
HETATM   15  C3  UNL     1      27.531   0.018  54.157  1.00  0.00     0.132 C 
HETATM   16  O1  UNL     1      27.189   0.687  55.114  1.00  0.00    -0.298 OA
BRANCH  15  17
HETATM   17  C2  UNL     1      29.006  -0.164  54.183  1.00  0.00     0.074 C 
HETATM   18  C1  UNL     1      29.445  -1.372  53.383  1.00  0.00     0.013 C 
ENDBRANCH  15  17
ENDBRANCH  14  15
ENDBRANCH  13  14
BRANCH  13  19
HETATM   19  O3  UNL     1      26.584   1.088  51.741  1.00  0.00    -0.360 OA
HETATM   20  C20 UNL     1      26.317   2.398  51.355  1.00  0.00     0.209 C 
ENDBRANCH  13  19
ENDBRANCH   1  12
BRANCH   6  21
HETATM   21  O2  UNL     1      17.322   0.358  51.674  1.00  0.00    -0.313 OA
BRANCH  21  22
HETATM   22  C12 UNL     1      16.595  -0.369  50.778  1.00  0.00     0.093 A 
HETATM   23  C13 UNL     1      15.711  -1.217  51.459  1.00  0.00     0.040 A 
HETATM   24  C14 UNL     1      14.847  -2.074  50.767  1.00  0.00     0.022 A 
HETATM   25  C15 UNL     1      14.902  -2.049  49.392  1.00  0.00     0.116 A 
HETATM   26  N2  UNL     1      15.758  -1.226  48.728  1.00  0.00    -0.270 NA
HETATM   27  C16 UNL     1      16.585  -0.405  49.399  1.00  0.00     0.153 A 
ENDBRANCH  21  22
ENDBRANCH   6  21
TORSDOF 7
ENDMDL
MODEL 8
REMARK VINA RESULT:      -7.3      4.856      8.126
REMARK  7 active torsions:
REMARK  status: ('A' for Active; 'I' for Inactive)
REMARK    1  A    between atoms: C2_2  and  C3_3 
REMARK    2  A    between atoms: C3_3  and  C4_5 
REMARK    3  A    between atoms: C4_5  and  C5_6 
REMARK    4  A    between atoms: C5_6  and  O3_25 
REMARK    5  A    between atoms: C6_7  and  C7_8 
REMARK    6  A    between atoms: C11_13  and  O2_14 
REMARK    7  A    between atoms: O2_14  and  C12_15 
ROOT
HETATM    1  C7  UNL     1      20.621   1.248  52.876  1.00  0.00     0.061 C 
HETATM    2  N1  UNL     1      21.888   1.454  52.757  1.00  0.00    -0.247 NA
HETATM    3  C8  UNL     1      23.043   0.694  53.046  1.00  0.00     0.082 A 
HETATM    4  C9  UNL     1      23.075  -0.380  53.811  1.00  0.00     0.044 A 
HETATM    5  C10 UNL     1      24.487  -0.834  53.823  1.00  0.00     0.124 A 
HETATM    6  C11 UNL     1      25.193   0.146  52.957  1.00  0.00     0.061 A 
HETATM    7  C17 UNL     1      24.345   1.050  52.498  1.00  0.00     0.066 A 
HETATM    8  N3  UNL     1      22.035  -1.046  54.519  1.00  0.00    -0.367 N 
HETATM    9  C18 UNL     1      20.655  -0.997  54.099  1.00  0.00     0.090 C 
HETATM   10  C19 UNL     1      20.083  -0.001  53.398  1.00  0.00     0.048 C 
HETATM   11  H16 UNL     1      22.274  -1.586  55.356  1.00  0.00     0.165 HD
ENDROOT
BRANCH   1  12
HETATM   12  C6  UNL     1      19.691   2.274  52.471  1.00  0.00     0.064 C 
HETATM   13  C5  UNL     1      19.636   3.219  51.551  1.00  0.00     0.055 C 
BRANCH  13  14
HETATM   14  C4  UNL     1      20.280   3.892  50.430  1.00  0.00     0.142 C 
BRANCH  14  15
HETATM   15  C3  UNL     1      21.704   4.308  50.702  1.00  0.00     0.132 C 
HETATM   16  O1  UNL     1      22.724   4.086  50.077  1.00  0.00    -0.298 OA
BRANCH  15  17
HETATM   17  C2  UNL     1      22.027   5.128  51.899  1.00  0.00     0.074 C 
HETATM   18  C1  UNL     1      23.309   4.679  52.568  1.00  0.00     0.013 C 
ENDBRANCH  15  17
ENDBRANCH  14  15
ENDBRANCH  13  14
BRANCH  13  19
HETATM   19  O3  UNL     1      18.467   4.013  51.551  1.00  0.00    -0.360 OA
HETATM   20  C20 UNL     1      17.179   3.494  51.631  1.00  0.00     0.209 C 
ENDBRANCH  13  19
ENDBRANCH   1  12
BRANCH   6  21
HETATM   21  O2  UNL     1      26.530   0.210  52.609  1.00  0.00    -0.313 OA
BRANCH  21  22
HETATM   22  C12 UNL     1      27.497  -0.712  52.885  1.00  0.00     0.093 A 
HETATM   23  C13 UNL     1      28.644  -0.067  53.369  1.00  0.00     0.040 A 
HETATM   24  C14 UNL     1      29.787  -0.790  53.727  1.00  0.00     0.022 A 
HETATM   25  C15 UNL     1      29.737  -2.159  53.586  1.00  0.00     0.116 A 
HETATM   26  N2  UNL     1      28.625  -2.787  53.118  1.00  0.00    -0.270 NA
HETATM   27  C16 UNL     1      27.530  -2.086  52.775  1.00  0.00     0.153 A 
ENDBRANCH  21  22
ENDBRANCH   6  21
TORSDOF 7
ENDMDL
MODEL 9
REMARK VINA RESULT:      -7.3      3.353      7.913
REMARK  7 active torsions:
REMARK  status: ('A' for Active; 'I' for Inactive)
REMARK    1  A    between atoms: C2_2  and  C3_3 
REMARK    2  A    between atoms: C3_3  and  C4_5 
REMARK    3  A    between atoms: C4_5  and  C5_6 
REMARK    4  A    between atoms: C5_6  and  O3_25 
REMARK    5  A    between atoms: C6_7  and  C7_8 
REMARK    6  A    between atoms: C11_13  and  O2_14 
REMARK    7  A    between atoms: O2_14  and  C12_15 
ROOT
HETATM    1  C7  UNL     1      28.665   5.563  48.317  1.00  0.00     0.061 C 
HETATM    2  N1  UNL     1      27.923   4.614  48.776  1.00  0.00    -0.247 NA
HETATM    3  C8  UNL     1      26.632   4.560  49.348  1.00  0.00     0.082 A 
HETATM    4  C9  UNL     1      25.963   5.596  49.814  1.00  0.00     0.044 A 
HETATM    5  C10 UNL     1      24.671   5.061  50.309  1.00  0.00     0.124 A 
HETATM    6  C11 UNL     1      24.751   3.603  50.037  1.00  0.00     0.061 A 
HETATM    7  C17 UNL     1      25.907   3.302  49.471  1.00  0.00     0.066 A 
HETATM    8  N3  UNL     1      26.311   6.975  49.875  1.00  0.00    -0.367 N 
HETATM    9  C18 UNL     1      27.232   7.585  48.945  1.00  0.00     0.090 C 
HETATM   10  C19 UNL     1      28.227   6.952  48.298  1.00  0.00     0.048 C 
HETATM   11  H16 UNL     1      25.889   7.559  50.602  1.00  0.00     0.165 HD
ENDROOT
BRANCH   1  12
HETATM   12  C6  UNL     1      29.973   5.254  47.792  1.00  0.00     0.064 C 
HETATM   13  C5  UNL     1      31.227   5.402  48.175  1.00  0.00     0.055 C 
BRANCH  13  14
HETATM   14  C4  UNL     1      32.163   5.876  49.188  1.00  0.00     0.142 C 
BRANCH  14  15
HETATM   15  C3  UNL     1      32.496   7.342  49.074  1.00  0.00     0.132 C 
HETATM   16  O1  UNL     1      33.517   7.893  48.707  1.00  0.00    -0.298 OA
BRANCH  15  17
HETATM   17  C2  UNL     1      31.487   8.369  49.443  1.00  0.00     0.074 C 
HETATM   18  C1  UNL     1      31.195   9.318  48.299  1.00  0.00     0.013 C 
ENDBRANCH  15  17
ENDBRANCH  14  15
ENDBRANCH  13  14
BRANCH  13  19
HETATM   19  O3  UNL     1      32.208   4.922  47.278  1.00  0.00    -0.360 OA
HETATM   20  C20 UNL     1      32.302   3.596  46.871  1.00  0.00     0.209 C 
ENDBRANCH  13  19
ENDBRANCH   1  12
BRANCH   6  21
HETATM   21  O2  UNL     1      23.825   2.607  50.292  1.00  0.00    -0.313 OA
BRANCH  21  22
HETATM   22  C12 UNL     1      23.831   1.726  51.333  1.00  0.00     0.093 A 
HETATM   23  C13 UNL     1      22.561   1.150  51.475  1.00  0.00     0.040 A 
HETATM   24  C14 UNL     1      22.298   0.208  52.476  1.00  0.00     0.022 A 
HETATM   25  C15 UNL     1      23.338  -0.129  53.314  1.00  0.00     0.116 A 
HETATM   26  N2  UNL     1      24.571   0.429  53.178  1.00  0.00    -0.270 NA
HETATM   27  C16 UNL     1      24.816   1.333  52.214  1.00  0.00     0.153 A 
ENDBRANCH  21  22
ENDBRANCH   6  21
TORSDOF 7
ENDMDL
