MODEL 1
REMARK VINA RESULT:      -8.5      0.000      0.000
REMARK  6 active torsions:
REMARK  status: ('A' for Active; 'I' for Inactive)
REMARK    1  A    between atoms: C2_2  and  O1_3 
REMARK    2  A    between atoms: O1_3  and  C3_4 
REMARK    3  A    between atoms: C6_7  and  C7_8 
REMARK    4  A    between atoms: C7_8  and  C8_9 
REMARK    5  A    between atoms: C14_17  and  N3_18 
REMARK    6  A    between atoms: C19_24  and  O2_25 
ROOT
HETATM    1  C8  UNL     1      23.030   0.513  52.607  1.00  0.00    -0.041 C 
HETATM    2  C9  UNL     1      23.759   1.138  51.688  1.00  0.00     0.027 C 
HETATM    3  C10 UNL     1      23.957   2.238  50.734  1.00  0.00     0.116 C 
HETATM    4  N1  UNL     1      23.212   3.222  50.451  1.00  0.00    -0.241 NA
HETATM    5  C11 UNL     1      23.557   4.248  49.461  1.00  0.00     0.317 A 
HETATM    6  N2  UNL     1      22.693   3.497  48.671  1.00  0.00    -0.240 N 
HETATM    7  C12 UNL     1      21.468   3.402  49.453  1.00  0.00     0.127 A 
HETATM    8  C13 UNL     1      21.571   4.090  50.732  1.00  0.00     0.008 A 
HETATM    9  C14 UNL     1      22.586   4.852  51.449  1.00  0.00     0.129 A 
HETATM   10  N4  UNL     1      23.808   4.938  50.651  1.00  0.00    -0.211 NA
HETATM   11  C15 UNL     1      20.296   4.037  51.528  1.00  0.00     0.071 C 
HETATM   12  C16 UNL     1      20.171   2.931  52.444  1.00  0.00    -0.021 C 
HETATM   13  C17 UNL     1      20.769   1.872  52.906  1.00  0.00     0.010 C 
HETATM   14  C18 UNL     1      21.698   0.797  53.192  1.00  0.00    -0.008 C 
HETATM   15  C19 UNL     1      21.310  -0.114  54.114  1.00  0.00     0.143 C 
ENDROOT
BRANCH   1  16
HETATM   16  C7  UNL     1      23.719  -0.727  53.125  1.00  0.00     0.078 C 
BRANCH  16  17
HETATM   17  C6  UNL     1      25.165  -0.597  53.268  1.00  0.00    -0.054 A 
HETATM   18  C5  UNL     1      25.387   0.035  54.503  1.00  0.00     0.010 A 
HETATM   19  C4  UNL     1      26.682   0.337  54.952  1.00  0.00     0.037 A 
HETATM   20  C3  UNL     1      27.792   0.008  54.167  1.00  0.00     0.068 A 
HETATM   21  C21 UNL     1      27.576  -0.608  52.965  1.00  0.00     0.037 A 
HETATM   22  C20 UNL     1      26.298  -0.894  52.545  1.00  0.00     0.010 A 
BRANCH  20  23
HETATM   23  O1  UNL     1      29.097   0.276  54.549  1.00  0.00    -0.352 OA
BRANCH  23  24
HETATM   24  C2  UNL     1      29.570   1.583  54.731  1.00  0.00     0.171 C 
HETATM   25  C1  UNL     1      28.948   2.488  53.685  1.00  0.00     0.034 C 
ENDBRANCH  23  24
ENDBRANCH  20  23
ENDBRANCH  16  17
ENDBRANCH   1  16
BRANCH  15  26
HETATM   26  O2  UNL     1      20.085   0.031  54.744  1.00  0.00    -0.372 OA
HETATM   27  H20 UNL     1      19.445   0.816  54.640  1.00  0.00     0.216 HD
ENDBRANCH  15  26
BRANCH   9  28
HETATM   28  N3  UNL     1      22.342   5.392  52.721  1.00  0.00    -0.384 N 
HETATM   29  H13 UNL     1      22.253   6.428  52.882  1.00  0.00     0.157 HD
HETATM   30  H14 UNL     1      22.299   4.506  53.303  1.00  0.00     0.157 HD
ENDBRANCH   9  28
TORSDOF 6
ENDMDL
MODEL 2
REMARK VINA RESULT:      -8.3      2.047      2.873
REMARK  6 active torsions:
REMARK  status: ('A' for Active; 'I' for Inactive)
REMARK    1  A    between atoms: C2_2  and  O1_3 
REMARK    2  A    between atoms: O1_3  and  C3_4 
REMARK    3  A    between atoms: C6_7  and  C7_8 
REMARK    4  A    between atoms: C7_8  and  C8_9 
REMARK    5  A    between atoms: C14_17  and  N3_18 
REMARK    6  A    between atoms: C19_24  and  O2_25 
ROOT
HETATM    1  C8  UNL     1      23.196   2.793  50.986  1.00  0.00    -0.041 C 
HETATM    2  C9  UNL     1      24.194   3.225  50.222  1.00  0.00     0.027 C 
HETATM    3  C10 UNL     1      24.886   4.302  49.499  1.00  0.00     0.116 C 
HETATM    4  N1  UNL     1      24.597   5.530  49.385  1.00  0.00    -0.241 NA
HETATM    5  C11 UNL     1      25.400   6.487  48.616  1.00  0.00     0.317 A 
HETATM    6  N2  UNL     1      24.400   6.270  47.674  1.00  0.00    -0.240 N 
HETATM    7  C12 UNL     1      23.158   6.532  48.389  1.00  0.00     0.127 A 
HETATM    8  C13 UNL     1      23.384   6.908  49.776  1.00  0.00     0.008 A 
HETATM    9  C14 UNL     1      24.535   7.089  50.653  1.00  0.00     0.129 A 
HETATM   10  N4  UNL     1      25.773   6.823  49.921  1.00  0.00    -0.211 NA
HETATM   11  C15 UNL     1      22.111   7.225  50.511  1.00  0.00     0.071 C 
HETATM   12  C16 UNL     1      21.488   6.122  51.198  1.00  0.00    -0.021 C 
HETATM   13  C17 UNL     1      21.595   4.854  51.470  1.00  0.00     0.010 C 
HETATM   14  C18 UNL     1      22.018   3.472  51.575  1.00  0.00    -0.008 C 
HETATM   15  C19 UNL     1      21.226   2.646  52.298  1.00  0.00     0.143 C 
ENDROOT
BRANCH   1  16
HETATM   16  C7  UNL     1      23.312   1.315  51.281  1.00  0.00     0.078 C 
BRANCH  16  17
HETATM   17  C6  UNL     1      24.563   0.927  51.925  1.00  0.00    -0.054 A 
HETATM   18  C5  UNL     1      24.210   0.208  53.079  1.00  0.00     0.010 A 
HETATM   19  C4  UNL     1      25.182  -0.302  53.954  1.00  0.00     0.037 A 
HETATM   20  C3  UNL     1      26.541  -0.102  53.688  1.00  0.00     0.068 A 
HETATM   21  C21 UNL     1      26.884   0.598  52.564  1.00  0.00     0.037 A 
HETATM   22  C20 UNL     1      25.914   1.089  51.721  1.00  0.00     0.010 A 
BRANCH  20  23
HETATM   23  O1  UNL     1      27.551  -0.578  54.508  1.00  0.00    -0.352 OA
BRANCH  23  24
HETATM   24  C2  UNL     1      28.831  -0.006  54.526  1.00  0.00     0.171 C 
HETATM   25  C1  UNL     1      29.802  -0.934  53.820  1.00  0.00     0.034 C 
ENDBRANCH  23  24
ENDBRANCH  20  23
ENDBRANCH  16  17
ENDBRANCH   1  16
BRANCH  15  26
HETATM   26  O2  UNL     1      20.089   3.151  52.907  1.00  0.00    -0.372 OA
HETATM   27  H20 UNL     1      19.981   3.362  53.898  1.00  0.00     0.216 HD
ENDBRANCH  15  26
BRANCH   9  28
HETATM   28  N3  UNL     1      24.387   7.467  51.997  1.00  0.00    -0.384 N 
HETATM   29  H13 UNL     1      25.104   8.054  52.496  1.00  0.00     0.157 HD
HETATM   30  H14 UNL     1      23.457   7.009  52.225  1.00  0.00     0.157 HD
ENDBRANCH   9  28
TORSDOF 6
ENDMDL
MODEL 3
REMARK VINA RESULT:      -8.2      2.371      3.527
REMARK  6 active torsions:
REMARK  status: ('A' for Active; 'I' for Inactive)
REMARK    1  A    between atoms: C2_2  and  O1_3 
REMARK    2  A    between atoms: O1_3  and  C3_4 
REMARK    3  A    between atoms: C6_7  and  C7_8 
REMARK    4  A    between atoms: C7_8  and  C8_9 
REMARK    5  A    between atoms: C14_17  and  N3_18 
REMARK    6  A    between atoms: C19_24  and  O2_25 
ROOT
HETATM    1  C8  UNL     1      23.082   2.697  50.984  1.00  0.00    -0.041 C 
HETATM    2  C9  UNL     1      23.685   3.748  51.529  1.00  0.00     0.027 C 
HETATM    3  C10 UNL     1      24.158   5.138  51.459  1.00  0.00     0.116 C 
HETATM    4  N1  UNL     1      24.076   5.986  50.521  1.00  0.00    -0.241 NA
HETATM    5  C11 UNL     1      24.606   7.351  50.609  1.00  0.00     0.317 A 
HETATM    6  N2  UNL     1      25.641   6.786  49.869  1.00  0.00    -0.240 N 
HETATM    7  C12 UNL     1      24.981   6.166  48.728  1.00  0.00     0.127 A 
HETATM    8  C13 UNL     1      23.537   6.341  48.759  1.00  0.00     0.008 A 
HETATM    9  C14 UNL     1      22.562   6.973  49.640  1.00  0.00     0.129 A 
HETATM   10  N4  UNL     1      23.240   7.590  50.780  1.00  0.00    -0.211 NA
HETATM   11  C15 UNL     1      22.850   5.744  47.561  1.00  0.00     0.071 C 
HETATM   12  C16 UNL     1      22.413   4.378  47.702  1.00  0.00    -0.021 C 
HETATM   13  C17 UNL     1      22.360   3.367  48.518  1.00  0.00     0.010 C 
HETATM   14  C18 UNL     1      22.468   2.472  49.653  1.00  0.00    -0.008 C 
HETATM   15  C19 UNL     1      21.959   1.228  49.498  1.00  0.00     0.143 C 
ENDROOT
BRANCH   1  16
HETATM   16  C7  UNL     1      23.042   1.518  51.928  1.00  0.00     0.078 C 
BRANCH  16  17
HETATM   17  C6  UNL     1      24.353   0.979  52.271  1.00  0.00    -0.054 A 
HETATM   18  C5  UNL     1      24.179   0.230  53.447  1.00  0.00     0.010 A 
HETATM   19  C4  UNL     1      25.257  -0.418  54.073  1.00  0.00     0.037 A 
HETATM   20  C3  UNL     1      26.541  -0.331  53.527  1.00  0.00     0.068 A 
HETATM   21  C21 UNL     1      26.710   0.398  52.382  1.00  0.00     0.037 A 
HETATM   22  C20 UNL     1      25.640   1.025  51.787  1.00  0.00     0.010 A 
BRANCH  20  23
HETATM   23  O1  UNL     1      27.648  -0.945  54.091  1.00  0.00    -0.352 OA
BRANCH  23  24
HETATM   24  C2  UNL     1      28.813  -0.237  54.415  1.00  0.00     0.171 C 
HETATM   25  C1  UNL     1      29.975  -0.796  53.616  1.00  0.00     0.034 C 
ENDBRANCH  23  24
ENDBRANCH  20  23
ENDBRANCH  16  17
ENDBRANCH   1  16
BRANCH  15  26
HETATM   26  O2  UNL     1      21.353   0.882  48.302  1.00  0.00    -0.372 OA
HETATM   27  H20 UNL     1      20.466   0.392  48.197  1.00  0.00     0.216 HD
ENDBRANCH  15  26
BRANCH   9  28
HETATM   28  N3  UNL     1      21.187   6.947  49.359  1.00  0.00    -0.384 N 
HETATM   29  H13 UNL     1      20.808   7.134  48.396  1.00  0.00     0.157 HD
HETATM   30  H14 UNL     1      20.799   6.712  50.319  1.00  0.00     0.157 HD
ENDBRANCH   9  28
TORSDOF 6
ENDMDL
MODEL 4
REMARK VINA RESULT:      -8.2      1.710      2.072
REMARK  6 active torsions:
REMARK  status: ('A' for Active; 'I' for Inactive)
REMARK    1  A    between atoms: C2_2  and  O1_3 
REMARK    2  A    between atoms: O1_3  and  C3_4 
REMARK    3  A    between atoms: C6_7  and  C7_8 
REMARK    4  A    between atoms: C7_8  and  C8_9 
REMARK    5  A    between atoms: C14_17  and  N3_18 
REMARK    6  A    between atoms: C19_24  and  O2_25 
ROOT
HETATM    1  C8  UNL     1      22.617   0.237  52.966  1.00  0.00    -0.041 C 
HETATM    2  C9  UNL     1      23.189   1.098  52.129  1.00  0.00     0.027 C 
HETATM    3  C10 UNL     1      23.124   1.998  50.969  1.00  0.00     0.116 C 
HETATM    4  N1  UNL     1      22.156   2.280  50.203  1.00  0.00    -0.241 NA
HETATM    5  C11 UNL     1      22.256   3.210  49.073  1.00  0.00     0.317 A 
HETATM    6  N2  UNL     1      22.345   2.021  48.356  1.00  0.00    -0.240 N 
HETATM    7  C12 UNL     1      21.177   1.255  48.768  1.00  0.00     0.127 A 
HETATM    8  C13 UNL     1      20.364   1.964  49.745  1.00  0.00     0.008 A 
HETATM    9  C14 UNL     1      20.410   3.249  50.432  1.00  0.00     0.129 A 
HETATM   10  N4  UNL     1      21.587   4.006  50.008  1.00  0.00    -0.211 NA
HETATM   11  C15 UNL     1      19.130   1.201  50.144  1.00  0.00     0.071 C 
HETATM   12  C16 UNL     1      19.267   0.339  51.291  1.00  0.00    -0.021 C 
HETATM   13  C17 UNL     1      20.093  -0.078  52.204  1.00  0.00     0.010 C 
HETATM   14  C18 UNL     1      21.245  -0.316  53.051  1.00  0.00    -0.008 C 
HETATM   15  C19 UNL     1      21.079  -1.190  54.072  1.00  0.00     0.143 C 
ENDROOT
BRANCH   1  16
HETATM   16  C7  UNL     1      23.587  -0.260  54.012  1.00  0.00     0.078 C 
BRANCH  16  17
HETATM   17  C6  UNL     1      24.985  -0.233  53.596  1.00  0.00    -0.054 A 
HETATM   18  C5  UNL     1      25.740   0.009  54.756  1.00  0.00     0.010 A 
HETATM   19  C4  UNL     1      27.139   0.118  54.714  1.00  0.00     0.037 A 
HETATM   20  C3  UNL     1      27.818  -0.015  53.498  1.00  0.00     0.068 A 
HETATM   21  C21 UNL     1      27.083  -0.251  52.369  1.00  0.00     0.037 A 
HETATM   22  C20 UNL     1      25.713  -0.354  52.434  1.00  0.00     0.010 A 
BRANCH  20  23
HETATM   23  O1  UNL     1      29.196   0.080  53.385  1.00  0.00    -0.352 OA
BRANCH  23  24
HETATM   24  C2  UNL     1      30.057  -0.925  53.847  1.00  0.00     0.171 C 
HETATM   25  C1  UNL     1      29.582  -2.267  53.325  1.00  0.00     0.034 C 
ENDBRANCH  23  24
ENDBRANCH  20  23
ENDBRANCH  16  17
ENDBRANCH   1  16
BRANCH  15  26
HETATM   26  O2  UNL     1      19.843  -1.781  54.270  1.00  0.00    -0.372 OA
HETATM   27  H20 UNL     1      19.072  -1.397  54.813  1.00  0.00     0.216 HD
ENDBRANCH  15  26
BRANCH   9  28
HETATM   28  N3  UNL     1      19.423   3.628  51.356  1.00  0.00    -0.384 N 
HETATM   29  H13 UNL     1      19.623   4.292  52.148  1.00  0.00     0.157 HD
HETATM   30  H14 UNL     1      18.593   3.079  50.989  1.00  0.00     0.157 HD
ENDBRANCH   9  28
TORSDOF 6
ENDMDL
MODEL 5
REMARK VINA RESULT:      -8.2      4.309      5.931
REMARK  6 active torsions:
REMARK  status: ('A' for Active; 'I' for Inactive)
REMARK    1  A    between atoms: C2_2  and  O1_3 
REMARK    2  A    between atoms: O1_3  and  C3_4 
REMARK    3  A    between atoms: C6_7  and  C7_8 
REMARK    4  A    between atoms: C7_8  and  C8_9 
REMARK    5  A    between atoms: C14_17  and  N3_18 
REMARK    6  A    between atoms: C19_24  and  O2_25 
ROOT
HETATM    1  C8  UNL     1      25.137   5.206  49.653  1.00  0.00    -0.041 C 
HETATM    2  C9  UNL     1      26.305   5.257  49.021  1.00  0.00     0.027 C 
HETATM    3  C10 UNL     1      27.395   6.018  48.394  1.00  0.00     0.116 C 
HETATM    4  N1  UNL     1      27.546   7.268  48.251  1.00  0.00    -0.241 NA
HETATM    5  C11 UNL     1      28.707   7.878  47.593  1.00  0.00     0.317 A 
HETATM    6  N2  UNL     1      27.810   7.969  46.533  1.00  0.00    -0.240 N 
HETATM    7  C12 UNL     1      26.650   8.652  47.090  1.00  0.00     0.127 A 
HETATM    8  C13 UNL     1      26.822   8.982  48.497  1.00  0.00     0.008 A 
HETATM    9  C14 UNL     1      27.856   8.805  49.510  1.00  0.00     0.129 A 
HETATM   10  N4  UNL     1      29.013   8.118  48.935  1.00  0.00    -0.211 NA
HETATM   11  C15 UNL     1      25.649   9.728  49.070  1.00  0.00     0.071 C 
HETATM   12  C16 UNL     1      24.619   8.917  49.670  1.00  0.00    -0.021 C 
HETATM   13  C17 UNL     1      24.266   7.697  49.946  1.00  0.00     0.010 C 
HETATM   14  C18 UNL     1      24.191   6.257  50.096  1.00  0.00    -0.008 C 
HETATM   15  C19 UNL     1      23.089   5.766  50.710  1.00  0.00     0.143 C 
ENDROOT
BRANCH   1  16
HETATM   16  C7  UNL     1      24.721   3.785  49.952  1.00  0.00     0.078 C 
BRANCH  16  17
HETATM   17  C6  UNL     1      25.481   3.148  51.022  1.00  0.00    -0.054 A 
HETATM   18  C5  UNL     1      24.614   3.054  52.124  1.00  0.00     0.010 A 
HETATM   19  C4  UNL     1      25.034   2.502  53.345  1.00  0.00     0.037 A 
HETATM   20  C3  UNL     1      26.342   2.028  53.489  1.00  0.00     0.068 A 
HETATM   21  C21 UNL     1      27.186   2.120  52.416  1.00  0.00     0.037 A 
HETATM   22  C20 UNL     1      26.753   2.665  51.230  1.00  0.00     0.010 A 
BRANCH  20  23
HETATM   23  O1  UNL     1      26.822   1.472  54.664  1.00  0.00    -0.352 OA
BRANCH  23  24
HETATM   24  C2  UNL     1      27.195   0.124  54.756  1.00  0.00     0.171 C 
HETATM   25  C1  UNL     1      28.709   0.025  54.764  1.00  0.00     0.034 C 
ENDBRANCH  23  24
ENDBRANCH  20  23
ENDBRANCH  16  17
ENDBRANCH   1  16
BRANCH  15  26
HETATM   26  O2  UNL     1      22.122   6.639  51.177  1.00  0.00    -0.372 OA
HETATM   27  H20 UNL     1      21.620   7.332  50.625  1.00  0.00     0.216 HD
ENDBRANCH  15  26
BRANCH   9  28
HETATM   28  N3  UNL     1      27.684   9.259  50.827  1.00  0.00    -0.384 N 
HETATM   29  H13 UNL     1      28.496   9.550  51.430  1.00  0.00     0.157 HD
HETATM   30  H14 UNL     1      26.629   9.193  50.918  1.00  0.00     0.157 HD
ENDBRANCH   9  28
TORSDOF 6
ENDMDL
MODEL 6
REMARK VINA RESULT:      -7.8      3.985      6.058
REMARK  6 active torsions:
REMARK  status: ('A' for Active; 'I' for Inactive)
REMARK    1  A    between atoms: C2_2  and  O1_3 
REMARK    2  A    between atoms: O1_3  and  C3_4 
REMARK    3  A    between atoms: C6_7  and  C7_8 
REMARK    4  A    between atoms: C7_8  and  C8_9 
REMARK    5  A    between atoms: C14_17  and  N3_18 
REMARK    6  A    between atoms: C19_24  and  O2_25 
ROOT
HETATM    1  C8  UNL     1      25.366   2.959  49.961  1.00  0.00    -0.041 C 
HETATM    2  C9  UNL     1      24.328   3.140  49.150  1.00  0.00     0.027 C 
HETATM    3  C10 UNL     1      22.891   3.041  48.861  1.00  0.00     0.116 C 
HETATM    4  N1  UNL     1      21.940   2.600  49.573  1.00  0.00    -0.241 NA
HETATM    5  C11 UNL     1      20.541   2.569  49.133  1.00  0.00     0.317 A 
HETATM    6  N2  UNL     1      20.849   1.232  48.900  1.00  0.00    -0.240 N 
HETATM    7  C12 UNL     1      21.389   0.753  50.165  1.00  0.00     0.127 A 
HETATM    8  C13 UNL     1      21.420   1.791  51.184  1.00  0.00     0.008 A 
HETATM    9  C14 UNL     1      21.056   3.200  51.277  1.00  0.00     0.129 A 
HETATM   10  N4  UNL     1      20.517   3.665  49.999  1.00  0.00    -0.211 NA
HETATM   11  C15 UNL     1      21.933   1.294  52.508  1.00  0.00     0.071 C 
HETATM   12  C16 UNL     1      23.352   1.424  52.723  1.00  0.00    -0.021 C 
HETATM   13  C17 UNL     1      24.465   1.839  52.193  1.00  0.00     0.010 C 
HETATM   14  C18 UNL     1      25.485   2.393  51.325  1.00  0.00    -0.008 C 
HETATM   15  C19 UNL     1      26.754   2.386  51.796  1.00  0.00     0.143 C 
ENDROOT
BRANCH   1  16
HETATM   16  C7  UNL     1      26.659   3.423  49.332  1.00  0.00     0.078 C 
BRANCH  16  17
HETATM   17  C6  UNL     1      26.765   4.869  49.169  1.00  0.00    -0.054 A 
HETATM   18  C5  UNL     1      27.986   5.108  48.517  1.00  0.00     0.010 A 
HETATM   19  C4  UNL     1      28.418   6.410  48.218  1.00  0.00     0.037 A 
HETATM   20  C3  UNL     1      27.628   7.510  48.569  1.00  0.00     0.068 A 
HETATM   21  C21 UNL     1      26.439   7.277  49.204  1.00  0.00     0.037 A 
HETATM   22  C20 UNL     1      26.036   5.992  49.487  1.00  0.00     0.010 A 
BRANCH  20  23
HETATM   23  O1  UNL     1      27.993   8.820  48.304  1.00  0.00    -0.352 OA
BRANCH  23  24
HETATM   24  C2  UNL     1      28.466   9.682  49.303  1.00  0.00     0.171 C 
HETATM   25  C1  UNL     1      29.980   9.599  49.357  1.00  0.00     0.034 C 
ENDBRANCH  23  24
ENDBRANCH  20  23
ENDBRANCH  16  17
ENDBRANCH   1  16
BRANCH  15  26
HETATM   26  O2  UNL     1      27.009   1.885  53.062  1.00  0.00    -0.372 OA
HETATM   27  H20 UNL     1      26.848   0.929  53.374  1.00  0.00     0.216 HD
ENDBRANCH  15  26
BRANCH   9  28
HETATM   28  N3  UNL     1      21.232   3.932  52.461  1.00  0.00    -0.384 N 
HETATM   29  H13 UNL     1      20.773   3.652  53.366  1.00  0.00     0.157 HD
HETATM   30  H14 UNL     1      21.876   4.702  52.119  1.00  0.00     0.157 HD
ENDBRANCH   9  28
TORSDOF 6
ENDMDL
MODEL 7
REMARK VINA RESULT:      -7.7      3.852      6.644
REMARK  6 active torsions:
REMARK  status: ('A' for Active; 'I' for Inactive)
REMARK    1  A    between atoms: C2_2  and  O1_3 
REMARK    2  A    between atoms: O1_3  and  C3_4 
REMARK    3  A    between atoms: C6_7  and  C7_8 
REMARK    4  A    between atoms: C7_8  and  C8_9 
REMARK    5  A    between atoms: C14_17  and  N3_18 
REMARK    6  A    between atoms: C19_24  and  O2_25 
ROOT
HETATM    1  C8  UNL     1      24.524   2.189  50.995  1.00  0.00    -0.041 C 
HETATM    2  C9  UNL     1      25.832   2.307  51.205  1.00  0.00     0.027 C 
HETATM    3  C10 UNL     1      27.056   1.931  51.925  1.00  0.00     0.116 C 
HETATM    4  N1  UNL     1      27.233   1.097  52.862  1.00  0.00    -0.241 NA
HETATM    5  C11 UNL     1      28.536   0.833  53.483  1.00  0.00     0.317 A 
HETATM    6  N2  UNL     1      28.018   1.672  54.465  1.00  0.00    -0.240 N 
HETATM    7  C12 UNL     1      26.735   1.077  54.816  1.00  0.00     0.127 A 
HETATM    8  C13 UNL     1      26.453  -0.128  54.051  1.00  0.00     0.008 A 
HETATM    9  C14 UNL     1      27.117  -0.905  53.011  1.00  0.00     0.129 A 
HETATM   10  N4  UNL     1      28.402  -0.296  52.669  1.00  0.00    -0.211 NA
HETATM   11  C15 UNL     1      25.152  -0.776  54.439  1.00  0.00     0.071 C 
HETATM   12  C16 UNL     1      23.993  -0.359  53.690  1.00  0.00    -0.021 C 
HETATM   13  C17 UNL     1      23.582   0.411  52.727  1.00  0.00     0.010 C 
HETATM   14  C18 UNL     1      23.477   1.359  51.635  1.00  0.00    -0.008 C 
HETATM   15  C19 UNL     1      22.243   1.553  51.114  1.00  0.00     0.143 C 
ENDROOT
BRANCH   1  16
HETATM   16  C7  UNL     1      24.048   3.102  49.889  1.00  0.00     0.078 C 
BRANCH  16  17
HETATM   17  C6  UNL     1      24.708   4.403  49.856  1.00  0.00    -0.054 A 
HETATM   18  C5  UNL     1      24.000   5.230  50.744  1.00  0.00     0.010 A 
HETATM   19  C4  UNL     1      24.359   6.573  50.942  1.00  0.00     0.037 A 
HETATM   20  C3  UNL     1      25.446   7.119  50.251  1.00  0.00     0.068 A 
HETATM   21  C21 UNL     1      26.135   6.313  49.388  1.00  0.00     0.037 A 
HETATM   22  C20 UNL     1      25.765   5.000  49.208  1.00  0.00     0.010 A 
BRANCH  20  23
HETATM   23  O1  UNL     1      25.855   8.435  50.400  1.00  0.00    -0.352 OA
BRANCH  23  24
HETATM   24  C2  UNL     1      27.126   8.873  50.002  1.00  0.00     0.171 C 
HETATM   25  C1  UNL     1      26.972   9.986  48.982  1.00  0.00     0.034 C 
ENDBRANCH  23  24
ENDBRANCH  20  23
ENDBRANCH  16  17
ENDBRANCH   1  16
BRANCH  15  26
HETATM   26  O2  UNL     1      21.169   0.839  51.618  1.00  0.00    -0.372 OA
HETATM   27  H20 UNL     1      21.208  -0.087  52.042  1.00  0.00     0.216 HD
ENDBRANCH  15  26
BRANCH   9  28
HETATM   28  N3  UNL     1      26.535  -2.062  52.469  1.00  0.00    -0.384 N 
HETATM   29  H13 UNL     1      26.837  -2.459  51.543  1.00  0.00     0.157 HD
HETATM   30  H14 UNL     1      25.829  -2.296  53.226  1.00  0.00     0.157 HD
ENDBRANCH   9  28
TORSDOF 6
ENDMDL
MODEL 8
REMARK VINA RESULT:      -7.7      6.415      8.804
REMARK  6 active torsions:
REMARK  status: ('A' for Active; 'I' for Inactive)
REMARK    1  A    between atoms: C2_2  and  O1_3 
REMARK    2  A    between atoms: O1_3  and  C3_4 
REMARK    3  A    between atoms: C6_7  and  C7_8 
REMARK    4  A    between atoms: C7_8  and  C8_9 
REMARK    5  A    between atoms: C14_17  and  N3_18 
REMARK    6  A    between atoms: C19_24  and  O2_25 
ROOT
HETATM    1  C8  UNL     1      27.310   6.958  48.617  1.00  0.00    -0.041 C 
HETATM    2  C9  UNL     1      28.239   6.315  47.916  1.00  0.00     0.027 C 
HETATM    3  C10 UNL     1      29.605   6.210  47.385  1.00  0.00     0.116 C 
HETATM    4  N1  UNL     1      30.596   6.988  47.512  1.00  0.00    -0.241 NA
HETATM    5  C11 UNL     1      31.911   6.738  46.911  1.00  0.00     0.317 A 
HETATM    6  N2  UNL     1      31.440   7.657  45.977  1.00  0.00    -0.240 N 
HETATM    7  C12 UNL     1      31.036   8.811  46.768  1.00  0.00     0.127 A 
HETATM    8  C13 UNL     1      31.251   8.610  48.193  1.00  0.00     0.008 A 
HETATM    9  C14 UNL     1      31.763   7.548  49.051  1.00  0.00     0.129 A 
HETATM   10  N4  UNL     1      32.164   6.397  48.242  1.00  0.00    -0.211 NA
HETATM   11  C15 UNL     1      30.880   9.814  49.016  1.00  0.00     0.071 C 
HETATM   12  C16 UNL     1      29.524   9.849  49.504  1.00  0.00    -0.021 C 
HETATM   13  C17 UNL     1      28.396   9.203  49.530  1.00  0.00     0.010 C 
HETATM   14  C18 UNL     1      27.325   8.240  49.361  1.00  0.00    -0.008 C 
HETATM   15  C19 UNL     1      26.140   8.540  49.941  1.00  0.00     0.143 C 
ENDROOT
BRANCH   1  16
HETATM   16  C7  UNL     1      25.995   6.214  48.626  1.00  0.00     0.078 C 
BRANCH  16  17
HETATM   17  C6  UNL     1      26.018   4.963  49.377  1.00  0.00    -0.054 A 
HETATM   18  C5  UNL     1      24.923   5.007  50.256  1.00  0.00     0.010 A 
HETATM   19  C4  UNL     1      24.656   3.959  51.152  1.00  0.00     0.037 A 
HETATM   20  C3  UNL     1      25.486   2.834  51.183  1.00  0.00     0.068 A 
HETATM   21  C21 UNL     1      26.552   2.791  50.327  1.00  0.00     0.037 A 
HETATM   22  C20 UNL     1      26.795   3.830  49.459  1.00  0.00     0.010 A 
BRANCH  20  23
HETATM   23  O1  UNL     1      25.281   1.765  52.040  1.00  0.00    -0.352 OA
BRANCH  23  24
HETATM   24  C2  UNL     1      26.228   0.745  52.205  1.00  0.00     0.171 C 
HETATM   25  C1  UNL     1      25.586  -0.418  52.937  1.00  0.00     0.034 C 
ENDBRANCH  23  24
ENDBRANCH  20  23
ENDBRANCH  16  17
ENDBRANCH   1  16
BRANCH  15  26
HETATM   26  O2  UNL     1      26.014   9.710  50.671  1.00  0.00    -0.372 OA
HETATM   27  H20 UNL     1      25.347   9.881  51.422  1.00  0.00     0.216 HD
ENDBRANCH  15  26
BRANCH   9  28
HETATM   28  N3  UNL     1      31.828   7.692  50.446  1.00  0.00    -0.384 N 
HETATM   29  H13 UNL     1      31.766   8.631  50.916  1.00  0.00     0.157 HD
HETATM   30  H14 UNL     1      31.939   6.678  50.740  1.00  0.00     0.157 HD
ENDBRANCH   9  28
TORSDOF 6
ENDMDL
MODEL 9
REMARK VINA RESULT:      -7.7      3.105      6.741
REMARK  6 active torsions:
REMARK  status: ('A' for Active; 'I' for Inactive)
REMARK    1  A    between atoms: C2_2  and  O1_3 
REMARK    2  A    between atoms: O1_3  and  C3_4 
REMARK    3  A    between atoms: C6_7  and  C7_8 
REMARK    4  A    between atoms: C7_8  and  C8_9 
REMARK    5  A    between atoms: C14_17  and  N3_18 
REMARK    6  A    between atoms: C19_24  and  O2_25 
ROOT
HETATM    1  C8  UNL     1      22.279   0.343  52.350  1.00  0.00    -0.041 C 
HETATM    2  C9  UNL     1      23.275   1.006  51.771  1.00  0.00     0.027 C 
HETATM    3  C10 UNL     1      24.688   1.407  51.711  1.00  0.00     0.116 C 
HETATM    4  N1  UNL     1      25.657   1.112  52.471  1.00  0.00    -0.241 NA
HETATM    5  C11 UNL     1      27.026   1.601  52.273  1.00  0.00     0.317 A 
HETATM    6  N2  UNL     1      26.644   2.489  53.275  1.00  0.00    -0.240 N 
HETATM    7  C12 UNL     1      26.157   1.639  54.353  1.00  0.00     0.127 A 
HETATM    8  C13 UNL     1      26.232   0.224  54.022  1.00  0.00     0.008 A 
HETATM    9  C14 UNL     1      26.664  -0.579  52.884  1.00  0.00     0.129 A 
HETATM   10  N4  UNL     1      27.149   0.288  51.811  1.00  0.00    -0.211 NA
HETATM   11  C15 UNL     1      25.774  -0.665  55.146  1.00  0.00     0.071 C 
HETATM   12  C16 UNL     1      24.377  -1.018  55.141  1.00  0.00    -0.021 C 
HETATM   13  C17 UNL     1      23.256  -0.874  54.498  1.00  0.00     0.010 C 
HETATM   14  C18 UNL     1      22.213  -0.513  53.558  1.00  0.00    -0.008 C 
HETATM   15  C19 UNL     1      20.974  -0.999  53.807  1.00  0.00     0.143 C 
ENDROOT
BRANCH   1  16
HETATM   16  C7  UNL     1      20.974   0.531  51.612  1.00  0.00     0.078 C 
BRANCH  16  17
HETATM   17  C6  UNL     1      21.099   1.229  50.337  1.00  0.00    -0.054 A 
HETATM   18  C5  UNL     1      20.621   2.533  50.548  1.00  0.00     0.010 A 
HETATM   19  C4  UNL     1      20.579   3.478  49.511  1.00  0.00     0.037 A 
HETATM   20  C3  UNL     1      21.021   3.134  48.229  1.00  0.00     0.068 A 
HETATM   21  C21 UNL     1      21.487   1.865  48.024  1.00  0.00     0.037 A 
HETATM   22  C20 UNL     1      21.518   0.955  49.055  1.00  0.00     0.010 A 
BRANCH  20  23
HETATM   23  O1  UNL     1      21.008   4.017  47.161  1.00  0.00    -0.352 OA
BRANCH  23  24
HETATM   24  C2  UNL     1      21.634   3.725  45.941  1.00  0.00     0.171 C 
HETATM   25  C1  UNL     1      21.948   5.021  45.219  1.00  0.00     0.034 C 
ENDBRANCH  23  24
ENDBRANCH  20  23
ENDBRANCH  16  17
ENDBRANCH   1  16
BRANCH  15  26
HETATM   26  O2  UNL     1      20.770  -1.817  54.905  1.00  0.00    -0.372 OA
HETATM   27  H20 UNL     1      19.901  -1.917  55.427  1.00  0.00     0.216 HD
ENDBRANCH  15  26
BRANCH   9  28
HETATM   28  N3  UNL     1      26.590  -1.981  52.899  1.00  0.00    -0.384 N 
HETATM   29  H13 UNL     1      26.193  -2.512  53.716  1.00  0.00     0.157 HD
HETATM   30  H14 UNL     1      27.010  -2.206  51.951  1.00  0.00     0.157 HD
ENDBRANCH   9  28
TORSDOF 6
ENDMDL
