MODEL 1
REMARK VINA RESULT:      -7.7      0.000      0.000
REMARK  5 active torsions:
REMARK  status: ('A' for Active; 'I' for Inactive)
REMARK    1  A    between atoms: C2_2  and  C3_3 
REMARK    2  A    between atoms: C3_3  and  N1_4 
REMARK    3  A    between atoms: C4_5  and  O1_6 
REMARK    4  A    between atoms: C9_11  and  C10_12 
REMARK       I    between atoms: C10_12  and  N2_14 
REMARK    5  A    between atoms: N2_14  and  C11_15 
ROOT
HETATM    1  N1  UNL     1      22.994   1.041  52.036  1.00  0.00    -0.345 N 
HETATM    2  C4  UNL     1      22.958   1.619  50.741  1.00  0.00     0.145 A 
HETATM    3  C5  UNL     1      23.715   2.665  50.464  1.00  0.00    -0.011 A 
HETATM    4  C6  UNL     1      23.579   3.177  49.060  1.00  0.00     0.052 C 
HETATM    5  C7  UNL     1      24.603   3.256  51.455  1.00  0.00     0.009 A 
HETATM    6  C8  UNL     1      24.644   2.720  52.663  1.00  0.00     0.008 A 
HETATM    7  C9  UNL     1      23.845   1.549  53.097  1.00  0.00     0.202 A 
ENDROOT
BRANCH   7   8
HETATM    8  C10 UNL     1      24.833   0.511  53.564  1.00  0.00     0.248 C 
HETATM    9  O2  UNL     1      25.116  -0.388  54.427  1.00  0.00    -0.271 OA
HETATM   10  N2  UNL     1      25.968   0.497  52.675  1.00  0.00    -0.325 N 
HETATM   11  H15 UNL     1      26.234   1.044  51.803  1.00  0.00     0.169 HD
BRANCH  10  12
HETATM   12  C11 UNL     1      27.064  -0.383  52.865  1.00  0.00     0.040 A 
HETATM   13  C12 UNL     1      26.831  -1.706  52.526  1.00  0.00     0.030 A 
HETATM   14  C13 UNL     1      27.907  -2.576  52.712  1.00  0.00     0.002 A 
HETATM   15  C14 UNL     1      29.103  -2.107  53.203  1.00  0.00     0.001 A 
HETATM   16  C15 UNL     1      29.302  -0.782  53.531  1.00  0.00     0.009 A 
HETATM   17  C16 UNL     1      28.264   0.098  53.360  1.00  0.00    -0.035 A 
HETATM   18  C17 UNL     1      28.441   1.532  53.702  1.00  0.00     0.050 C 
ENDBRANCH  10  12
ENDBRANCH   7   8
BRANCH   1  19
HETATM   19  C3  UNL     1      22.299  -0.077  52.635  1.00  0.00     0.126 C 
BRANCH  19  20
HETATM   20  C2  UNL     1      21.259   0.341  53.634  1.00  0.00     0.015 C 
HETATM   21  C1  UNL     1      21.429  -0.569  54.843  1.00  0.00     0.006 C 
ENDBRANCH  19  20
ENDBRANCH   1  19
BRANCH   2  22
HETATM   22  O1  UNL     1      22.072   0.950  49.910  1.00  0.00    -0.346 OA
HETATM   23  H8  UNL     1      22.384   0.193  49.321  1.00  0.00     0.219 HD
ENDBRANCH   2  22
TORSDOF 5
ENDMDL
MODEL 2
REMARK VINA RESULT:      -7.1      1.961      3.800
REMARK  5 active torsions:
REMARK  status: ('A' for Active; 'I' for Inactive)
REMARK    1  A    between atoms: C2_2  and  C3_3 
REMARK    2  A    between atoms: C3_3  and  N1_4 
REMARK    3  A    between atoms: C4_5  and  O1_6 
REMARK    4  A    between atoms: C9_11  and  C10_12 
REMARK       I    between atoms: C10_12  and  N2_14 
REMARK    5  A    between atoms: N2_14  and  C11_15 
ROOT
HETATM    1  N1  UNL     1      23.302   3.320  51.227  1.00  0.00    -0.345 N 
HETATM    2  C4  UNL     1      21.937   3.659  51.412  1.00  0.00     0.145 A 
HETATM    3  C5  UNL     1      21.049   2.712  51.655  1.00  0.00    -0.011 A 
HETATM    4  C6  UNL     1      19.644   3.207  51.830  1.00  0.00     0.052 C 
HETATM    5  C7  UNL     1      21.427   1.308  51.743  1.00  0.00     0.009 A 
HETATM    6  C8  UNL     1      22.698   0.986  51.574  1.00  0.00     0.008 A 
HETATM    7  C9  UNL     1      23.786   1.953  51.297  1.00  0.00     0.202 A 
ENDROOT
BRANCH   7   8
HETATM    8  C10 UNL     1      24.801   1.777  52.398  1.00  0.00     0.248 C 
HETATM    9  O2  UNL     1      25.062   1.891  53.643  1.00  0.00    -0.271 OA
HETATM   10  N2  UNL     1      26.024   1.256  51.841  1.00  0.00    -0.325 N 
HETATM   11  H15 UNL     1      26.336   0.984  50.861  1.00  0.00     0.169 HD
BRANCH  10  12
HETATM   12  C11 UNL     1      27.163   0.987  52.643  1.00  0.00     0.040 A 
HETATM   13  C12 UNL     1      27.869   2.100  53.066  1.00  0.00     0.030 A 
HETATM   14  C13 UNL     1      28.991   1.839  53.856  1.00  0.00     0.002 A 
HETATM   15  C14 UNL     1      29.336   0.545  54.167  1.00  0.00     0.001 A 
HETATM   16  C15 UNL     1      28.610  -0.542  53.728  1.00  0.00     0.009 A 
HETATM   17  C16 UNL     1      27.502  -0.319  52.951  1.00  0.00    -0.035 A 
HETATM   18  C17 UNL     1      26.695  -1.466  52.460  1.00  0.00     0.050 C 
ENDBRANCH  10  12
ENDBRANCH   7   8
BRANCH   1  19
HETATM   19  C3  UNL     1      24.483   4.107  50.949  1.00  0.00     0.126 C 
BRANCH  19  20
HETATM   20  C2  UNL     1      24.907   4.048  49.511  1.00  0.00     0.015 C 
HETATM   21  C1  UNL     1      26.427   3.946  49.511  1.00  0.00     0.006 C 
ENDBRANCH  19  20
ENDBRANCH   1  19
BRANCH   2  22
HETATM   22  O1  UNL     1      21.733   5.026  51.302  1.00  0.00    -0.346 OA
HETATM   23  H8  UNL     1      22.419   5.682  51.645  1.00  0.00     0.219 HD
ENDBRANCH   2  22
TORSDOF 5
ENDMDL
MODEL 3
REMARK VINA RESULT:      -6.9      1.579      2.199
REMARK  5 active torsions:
REMARK  status: ('A' for Active; 'I' for Inactive)
REMARK    1  A    between atoms: C2_2  and  C3_3 
REMARK    2  A    between atoms: C3_3  and  N1_4 
REMARK    3  A    between atoms: C4_5  and  O1_6 
REMARK    4  A    between atoms: C9_11  and  C10_12 
REMARK       I    between atoms: C10_12  and  N2_14 
REMARK    5  A    between atoms: N2_14  and  C11_15 
ROOT
HETATM    1  N1  UNL     1      22.967   1.834  52.213  1.00  0.00    -0.345 N 
HETATM    2  C4  UNL     1      22.141   2.716  51.469  1.00  0.00     0.145 A 
HETATM    3  C5  UNL     1      22.316   4.022  51.566  1.00  0.00    -0.011 A 
HETATM    4  C6  UNL     1      21.376   4.839  50.730  1.00  0.00     0.052 C 
HETATM    5  C7  UNL     1      23.345   4.600  52.420  1.00  0.00     0.009 A 
HETATM    6  C8  UNL     1      24.120   3.783  53.112  1.00  0.00     0.008 A 
HETATM    7  C9  UNL     1      24.024   2.304  53.090  1.00  0.00     0.202 A 
ENDROOT
BRANCH   7   8
HETATM    8  C10 UNL     1      25.375   1.797  52.656  1.00  0.00     0.248 C 
HETATM    9  O2  UNL     1      26.220   1.677  51.705  1.00  0.00    -0.271 OA
HETATM   10  N2  UNL     1      26.030   1.163  53.773  1.00  0.00    -0.325 N 
HETATM   11  H15 UNL     1      25.764   0.992  54.789  1.00  0.00     0.169 HD
BRANCH  10  12
HETATM   12  C11 UNL     1      27.322   0.589  53.664  1.00  0.00     0.040 A 
HETATM   13  C12 UNL     1      28.376   1.429  53.986  1.00  0.00     0.030 A 
HETATM   14  C13 UNL     1      29.650   0.868  53.879  1.00  0.00     0.002 A 
HETATM   15  C14 UNL     1      29.802  -0.438  53.476  1.00  0.00     0.001 A 
HETATM   16  C15 UNL     1      28.730  -1.247  53.162  1.00  0.00     0.009 A 
HETATM   17  C16 UNL     1      27.466  -0.725  53.257  1.00  0.00    -0.035 A 
HETATM   18  C17 UNL     1      26.288  -1.568  52.927  1.00  0.00     0.050 C 
ENDBRANCH  10  12
ENDBRANCH   7   8
BRANCH   1  19
HETATM   19  C3  UNL     1      23.020   0.394  52.322  1.00  0.00     0.126 C 
BRANCH  19  20
HETATM   20  C2  UNL     1      22.051  -0.158  53.328  1.00  0.00     0.015 C 
HETATM   21  C1  UNL     1      22.880  -0.897  54.369  1.00  0.00     0.006 C 
ENDBRANCH  19  20
ENDBRANCH   1  19
BRANCH   2  22
HETATM   22  O1  UNL     1      21.215   2.024  50.706  1.00  0.00    -0.346 OA
HETATM   23  H8  UNL     1      21.019   2.298  49.755  1.00  0.00     0.219 HD
ENDBRANCH   2  22
TORSDOF 5
ENDMDL
MODEL 4
REMARK VINA RESULT:      -6.9      8.672     10.083
REMARK  5 active torsions:
REMARK  status: ('A' for Active; 'I' for Inactive)
REMARK    1  A    between atoms: C2_2  and  C3_3 
REMARK    2  A    between atoms: C3_3  and  N1_4 
REMARK    3  A    between atoms: C4_5  and  O1_6 
REMARK    4  A    between atoms: C9_11  and  C10_12 
REMARK       I    between atoms: C10_12  and  N2_14 
REMARK    5  A    between atoms: N2_14  and  C11_15 
ROOT
HETATM    1  N1  UNL     1      29.586   8.463  48.994  1.00  0.00    -0.345 N 
HETATM    2  C4  UNL     1      28.305   8.745  49.537  1.00  0.00     0.145 A 
HETATM    3  C5  UNL     1      27.249   8.071  49.119  1.00  0.00    -0.011 A 
HETATM    4  C6  UNL     1      25.959   8.468  49.772  1.00  0.00     0.052 C 
HETATM    5  C7  UNL     1      27.353   7.029  48.106  1.00  0.00     0.009 A 
HETATM    6  C8  UNL     1      28.544   6.761  47.599  1.00  0.00     0.008 A 
HETATM    7  C9  UNL     1      29.801   7.444  47.984  1.00  0.00     0.202 A 
ENDROOT
BRANCH   7   8
HETATM    8  C10 UNL     1      30.739   6.368  48.468  1.00  0.00     0.248 C 
HETATM    9  O2  UNL     1      31.066   5.579  49.419  1.00  0.00    -0.271 OA
HETATM   10  N2  UNL     1      31.703   6.075  47.437  1.00  0.00    -0.325 N 
HETATM   11  H15 UNL     1      31.876   6.447  46.456  1.00  0.00     0.169 HD
BRANCH  10  12
HETATM   12  C11 UNL     1      32.718   5.098  47.609  1.00  0.00     0.040 A 
HETATM   13  C12 UNL     1      32.355   3.801  47.289  1.00  0.00     0.030 A 
HETATM   14  C13 UNL     1      33.351   2.837  47.457  1.00  0.00     0.002 A 
HETATM   15  C14 UNL     1      34.597   3.196  47.914  1.00  0.00     0.001 A 
HETATM   16  C15 UNL     1      34.925   4.500  48.224  1.00  0.00     0.009 A 
HETATM   17  C16 UNL     1      33.968   5.470  48.069  1.00  0.00    -0.035 A 
HETATM   18  C17 UNL     1      34.286   6.885  48.394  1.00  0.00     0.050 C 
ENDBRANCH  10  12
ENDBRANCH   7   8
BRANCH   1  19
HETATM   19  C3  UNL     1      30.899   9.017  49.236  1.00  0.00     0.126 C 
BRANCH  19  20
HETATM   20  C2  UNL     1      31.332   9.994  48.181  1.00  0.00     0.015 C 
HETATM   21  C1  UNL     1      30.905  11.373  48.666  1.00  0.00     0.006 C 
ENDBRANCH  19  20
ENDBRANCH   1  19
BRANCH   2  22
HETATM   22  O1  UNL     1      28.365   9.753  50.486  1.00  0.00    -0.346 OA
HETATM   23  H8  UNL     1      27.551  10.307  50.706  1.00  0.00     0.219 HD
ENDBRANCH   2  22
TORSDOF 5
ENDMDL
MODEL 5
REMARK VINA RESULT:      -6.8      2.536      5.725
REMARK  5 active torsions:
REMARK  status: ('A' for Active; 'I' for Inactive)
REMARK    1  A    between atoms: C2_2  and  C3_3 
REMARK    2  A    between atoms: C3_3  and  N1_4 
REMARK    3  A    between atoms: C4_5  and  O1_6 
REMARK    4  A    between atoms: C9_11  and  C10_12 
REMARK       I    between atoms: C10_12  and  N2_14 
REMARK    5  A    between atoms: N2_14  and  C11_15 
ROOT
HETATM    1  N1  UNL     1      24.621   3.585  50.398  1.00  0.00    -0.345 N 
HETATM    2  C4  UNL     1      24.807   4.860  49.804  1.00  0.00     0.145 A 
HETATM    3  C5  UNL     1      24.054   5.229  48.783  1.00  0.00    -0.011 A 
HETATM    4  C6  UNL     1      24.355   6.598  48.251  1.00  0.00     0.052 C 
HETATM    5  C7  UNL     1      23.021   4.360  48.236  1.00  0.00     0.009 A 
HETATM    6  C8  UNL     1      22.841   3.172  48.787  1.00  0.00     0.008 A 
HETATM    7  C9  UNL     1      23.618   2.644  49.933  1.00  0.00     0.202 A 
ENDROOT
BRANCH   7   8
HETATM    8  C10 UNL     1      22.617   2.318  51.012  1.00  0.00     0.248 C 
HETATM    9  O2  UNL     1      21.924   2.748  51.996  1.00  0.00    -0.271 OA
HETATM   10  N2  UNL     1      22.264   0.923  50.931  1.00  0.00    -0.325 N 
HETATM   11  H15 UNL     1      22.553   0.120  50.296  1.00  0.00     0.169 HD
BRANCH  10  12
HETATM   12  C11 UNL     1      21.336   0.327  51.824  1.00  0.00     0.040 A 
HETATM   13  C12 UNL     1      20.005   0.429  51.454  1.00  0.00     0.030 A 
HETATM   14  C13 UNL     1      19.089  -0.157  52.331  1.00  0.00     0.002 A 
HETATM   15  C14 UNL     1      19.525  -0.783  53.475  1.00  0.00     0.001 A 
HETATM   16  C15 UNL     1      20.859  -0.867  53.813  1.00  0.00     0.009 A 
HETATM   17  C16 UNL     1      21.783  -0.301  52.972  1.00  0.00    -0.035 A 
HETATM   18  C17 UNL     1      23.230  -0.372  53.304  1.00  0.00     0.050 C 
ENDBRANCH  10  12
ENDBRANCH   7   8
BRANCH   1  19
HETATM   19  C3  UNL     1      25.272   2.907  51.496  1.00  0.00     0.126 C 
BRANCH  19  20
HETATM   20  C2  UNL     1      26.516   2.174  51.084  1.00  0.00     0.015 C 
HETATM   21  C1  UNL     1      26.513   0.854  51.842  1.00  0.00     0.006 C 
ENDBRANCH  19  20
ENDBRANCH   1  19
BRANCH   2  22
HETATM   22  O1  UNL     1      25.819   5.570  50.431  1.00  0.00    -0.346 OA
HETATM   23  H8  UNL     1      26.784   5.433  50.172  1.00  0.00     0.219 HD
ENDBRANCH   2  22
TORSDOF 5
ENDMDL
MODEL 6
REMARK VINA RESULT:      -6.6      2.103      3.535
REMARK  5 active torsions:
REMARK  status: ('A' for Active; 'I' for Inactive)
REMARK    1  A    between atoms: C2_2  and  C3_3 
REMARK    2  A    between atoms: C3_3  and  N1_4 
REMARK    3  A    between atoms: C4_5  and  O1_6 
REMARK    4  A    between atoms: C9_11  and  C10_12 
REMARK       I    between atoms: C10_12  and  N2_14 
REMARK    5  A    between atoms: N2_14  and  C11_15 
ROOT
HETATM    1  N1  UNL     1      24.816   3.128  51.351  1.00  0.00    -0.345 N 
HETATM    2  C4  UNL     1      23.830   4.115  51.607  1.00  0.00     0.145 A 
HETATM    3  C5  UNL     1      22.615   3.753  51.978  1.00  0.00    -0.011 A 
HETATM    4  C6  UNL     1      21.671   4.894  52.215  1.00  0.00     0.052 C 
HETATM    5  C7  UNL     1      22.245   2.354  52.140  1.00  0.00     0.009 A 
HETATM    6  C8  UNL     1      23.161   1.429  51.905  1.00  0.00     0.008 A 
HETATM    7  C9  UNL     1      24.555   1.706  51.485  1.00  0.00     0.202 A 
ENDROOT
BRANCH   7   8
HETATM    8  C10 UNL     1      25.446   1.071  52.521  1.00  0.00     0.248 C 
HETATM    9  O2  UNL     1      25.586   0.711  53.739  1.00  0.00    -0.271 OA
HETATM   10  N2  UNL     1      26.694   0.690  51.908  1.00  0.00    -0.325 N 
HETATM   11  H15 UNL     1      27.090   0.764  50.924  1.00  0.00     0.169 HD
BRANCH  10  12
HETATM   12  C11 UNL     1      27.734   0.065  52.643  1.00  0.00     0.040 A 
HETATM   13  C12 UNL     1      27.744  -1.320  52.601  1.00  0.00     0.030 A 
HETATM   14  C13 UNL     1      28.766  -1.938  53.323  1.00  0.00     0.002 A 
HETATM   15  C14 UNL     1      29.683  -1.183  54.017  1.00  0.00     0.001 A 
HETATM   16  C15 UNL     1      29.644   0.196  54.037  1.00  0.00     0.009 A 
HETATM   17  C16 UNL     1      28.652   0.833  53.338  1.00  0.00    -0.035 A 
HETATM   18  C17 UNL     1      28.579   2.317  53.337  1.00  0.00     0.050 C 
ENDBRANCH  10  12
ENDBRANCH   7   8
BRANCH   1  19
HETATM   19  C3  UNL     1      26.199   3.203  50.935  1.00  0.00     0.126 C 
BRANCH  19  20
HETATM   20  C2  UNL     1      26.368   3.200  49.443  1.00  0.00     0.015 C 
HETATM   21  C1  UNL     1      27.012   4.530  49.076  1.00  0.00     0.006 C 
ENDBRANCH  19  20
ENDBRANCH   1  19
BRANCH   2  22
HETATM   22  O1  UNL     1      24.328   5.394  51.414  1.00  0.00    -0.346 OA
HETATM   23  H8  UNL     1      24.990   5.587  50.677  1.00  0.00     0.219 HD
ENDBRANCH   2  22
TORSDOF 5
ENDMDL
MODEL 7
REMARK VINA RESULT:      -6.6      1.926      2.982
REMARK  5 active torsions:
REMARK  status: ('A' for Active; 'I' for Inactive)
REMARK    1  A    between atoms: C2_2  and  C3_3 
REMARK    2  A    between atoms: C3_3  and  N1_4 
REMARK    3  A    between atoms: C4_5  and  O1_6 
REMARK    4  A    between atoms: C9_11  and  C10_12 
REMARK       I    between atoms: C10_12  and  N2_14 
REMARK    5  A    between atoms: N2_14  and  C11_15 
ROOT
HETATM    1  N1  UNL     1      23.577   2.921  50.312  1.00  0.00    -0.345 N 
HETATM    2  C4  UNL     1      23.068   3.508  49.124  1.00  0.00     0.145 A 
HETATM    3  C5  UNL     1      23.438   4.729  48.782  1.00  0.00    -0.011 A 
HETATM    4  C6  UNL     1      22.826   5.230  47.507  1.00  0.00     0.052 C 
HETATM    5  C7  UNL     1      24.366   5.507  49.591  1.00  0.00     0.009 A 
HETATM    6  C8  UNL     1      24.845   4.964  50.696  1.00  0.00     0.008 A 
HETATM    7  C9  UNL     1      24.509   3.607  51.187  1.00  0.00     0.202 A 
ENDROOT
BRANCH   7   8
HETATM    8  C10 UNL     1      25.814   2.862  51.305  1.00  0.00     0.248 C 
HETATM    9  O2  UNL     1      26.858   2.428  50.710  1.00  0.00    -0.271 OA
HETATM   10  N2  UNL     1      26.000   2.437  52.670  1.00  0.00    -0.325 N 
HETATM   11  H15 UNL     1      25.431   2.539  53.563  1.00  0.00     0.169 HD
BRANCH  10  12
HETATM   12  C11 UNL     1      27.146   1.710  53.084  1.00  0.00     0.040 A 
HETATM   13  C12 UNL     1      28.224   2.478  53.491  1.00  0.00     0.030 A 
HETATM   14  C13 UNL     1      29.353   1.766  53.899  1.00  0.00     0.002 A 
HETATM   15  C14 UNL     1      29.352   0.391  53.881  1.00  0.00     0.001 A 
HETATM   16  C15 UNL     1      28.260  -0.344  53.469  1.00  0.00     0.009 A 
HETATM   17  C16 UNL     1      27.135   0.326  53.063  1.00  0.00    -0.035 A 
HETATM   18  C17 UNL     1      25.940  -0.433  52.612  1.00  0.00     0.050 C 
ENDBRANCH  10  12
ENDBRANCH   7   8
BRANCH   1  19
HETATM   19  C3  UNL     1      23.365   1.638  50.943  1.00  0.00     0.126 C 
BRANCH  19  20
HETATM   20  C2  UNL     1      22.340   1.681  52.039  1.00  0.00     0.015 C 
HETATM   21  C1  UNL     1      21.784   0.269  52.170  1.00  0.00     0.006 C 
ENDBRANCH  19  20
ENDBRANCH   1  19
BRANCH   2  22
HETATM   22  O1  UNL     1      22.203   2.651  48.463  1.00  0.00    -0.346 OA
HETATM   23  H8  UNL     1      22.383   1.659  48.425  1.00  0.00     0.219 HD
ENDBRANCH   2  22
TORSDOF 5
ENDMDL
MODEL 8
REMARK VINA RESULT:      -6.6      8.970     11.421
REMARK  5 active torsions:
REMARK  status: ('A' for Active; 'I' for Inactive)
REMARK    1  A    between atoms: C2_2  and  C3_3 
REMARK    2  A    between atoms: C3_3  and  N1_4 
REMARK    3  A    between atoms: C4_5  and  O1_6 
REMARK    4  A    between atoms: C9_11  and  C10_12 
REMARK       I    between atoms: C10_12  and  N2_14 
REMARK    5  A    between atoms: N2_14  and  C11_15 
ROOT
HETATM    1  N1  UNL     1      33.507   5.881  47.075  1.00  0.00    -0.345 N 
HETATM    2  C4  UNL     1      33.684   5.716  45.677  1.00  0.00     0.145 A 
HETATM    3  C5  UNL     1      33.308   4.593  45.092  1.00  0.00    -0.011 A 
HETATM    4  C6  UNL     1      33.552   4.549  43.613  1.00  0.00     0.052 C 
HETATM    5  C7  UNL     1      32.706   3.500  45.843  1.00  0.00     0.009 A 
HETATM    6  C8  UNL     1      32.536   3.649  47.145  1.00  0.00     0.008 A 
HETATM    7  C9  UNL     1      32.915   4.857  47.915  1.00  0.00     0.202 A 
ENDROOT
BRANCH   7   8
HETATM    8  C10 UNL     1      31.657   5.345  48.586  1.00  0.00     0.248 C 
HETATM    9  O2  UNL     1      31.090   5.695  49.677  1.00  0.00    -0.271 OA
HETATM   10  N2  UNL     1      30.617   5.495  47.600  1.00  0.00    -0.325 N 
HETATM   11  H15 UNL     1      30.562   5.338  46.549  1.00  0.00     0.169 HD
BRANCH  10  12
HETATM   12  C11 UNL     1      29.314   5.943  47.940  1.00  0.00     0.040 A 
HETATM   13  C12 UNL     1      28.443   4.960  48.382  1.00  0.00     0.030 A 
HETATM   14  C13 UNL     1      27.160   5.397  48.717  1.00  0.00     0.002 A 
HETATM   15  C14 UNL     1      26.826   6.726  48.601  1.00  0.00     0.001 A 
HETATM   16  C15 UNL     1      27.718   7.679  48.156  1.00  0.00     0.009 A 
HETATM   17  C16 UNL     1      28.986   7.281  47.819  1.00  0.00    -0.035 A 
HETATM   18  C17 UNL     1      29.975   8.281  47.337  1.00  0.00     0.050 C 
ENDBRANCH  10  12
ENDBRANCH   7   8
BRANCH   1  19
HETATM   19  C3  UNL     1      33.813   6.963  47.984  1.00  0.00     0.126 C 
BRANCH  19  20
HETATM   20  C2  UNL     1      35.208   6.895  48.535  1.00  0.00     0.015 C 
HETATM   21  C1  UNL     1      35.836   8.262  48.297  1.00  0.00     0.006 C 
ENDBRANCH  19  20
ENDBRANCH   1  19
BRANCH   2  22
HETATM   22  O1  UNL     1      34.264   6.836  45.101  1.00  0.00    -0.346 OA
HETATM   23  H8  UNL     1      34.700   7.545  45.671  1.00  0.00     0.219 HD
ENDBRANCH   2  22
TORSDOF 5
ENDMDL
MODEL 9
REMARK VINA RESULT:      -6.5      2.302      6.088
REMARK  5 active torsions:
REMARK  status: ('A' for Active; 'I' for Inactive)
REMARK    1  A    between atoms: C2_2  and  C3_3 
REMARK    2  A    between atoms: C3_3  and  N1_4 
REMARK    3  A    between atoms: C4_5  and  O1_6 
REMARK    4  A    between atoms: C9_11  and  C10_12 
REMARK       I    between atoms: C10_12  and  N2_14 
REMARK    5  A    between atoms: N2_14  and  C11_15 
ROOT
HETATM    1  N1  UNL     1      24.975   0.466  53.487  1.00  0.00    -0.345 N 
HETATM    2  C4  UNL     1      26.135   0.025  54.174  1.00  0.00     0.145 A 
HETATM    3  C5  UNL     1      27.333   0.292  53.685  1.00  0.00    -0.011 A 
HETATM    4  C6  UNL     1      28.472  -0.232  54.509  1.00  0.00     0.052 C 
HETATM    5  C7  UNL     1      27.510   1.037  52.446  1.00  0.00     0.009 A 
HETATM    6  C8  UNL     1      26.432   1.453  51.803  1.00  0.00     0.008 A 
HETATM    7  C9  UNL     1      25.038   1.218  52.247  1.00  0.00     0.202 A 
ENDROOT
BRANCH   7   8
HETATM    8  C10 UNL     1      24.402   2.578  52.387  1.00  0.00     0.248 C 
HETATM    9  O2  UNL     1      24.113   3.551  53.162  1.00  0.00    -0.271 OA
HETATM   10  N2  UNL     1      23.879   2.994  51.110  1.00  0.00    -0.325 N 
HETATM   11  H15 UNL     1      23.853   2.557  50.140  1.00  0.00     0.169 HD
BRANCH  10  12
HETATM   12  C11 UNL     1      23.221   4.238  50.934  1.00  0.00     0.040 A 
HETATM   13  C12 UNL     1      21.886   4.264  51.302  1.00  0.00     0.030 A 
HETATM   14  C13 UNL     1      21.235   5.487  51.131  1.00  0.00     0.002 A 
HETATM   15  C14 UNL     1      21.914   6.571  50.624  1.00  0.00     0.001 A 
HETATM   16  C15 UNL     1      23.245   6.511  50.267  1.00  0.00     0.009 A 
HETATM   17  C16 UNL     1      23.912   5.323  50.424  1.00  0.00    -0.035 A 
HETATM   18  C17 UNL     1      25.347   5.222  50.050  1.00  0.00     0.050 C 
ENDBRANCH  10  12
ENDBRANCH   7   8
BRANCH   1  19
HETATM   19  C3  UNL     1      23.561   0.331  53.757  1.00  0.00     0.126 C 
BRANCH  19  20
HETATM   20  C2  UNL     1      22.981  -0.953  53.239  1.00  0.00     0.015 C 
HETATM   21  C1  UNL     1      21.955  -1.411  54.267  1.00  0.00     0.006 C 
ENDBRANCH  19  20
ENDBRANCH   1  19
BRANCH   2  22
HETATM   22  O1  UNL     1      25.810  -0.665  55.332  1.00  0.00    -0.346 OA
HETATM   23  H8  UNL     1      24.898  -0.571  55.752  1.00  0.00     0.219 HD
ENDBRANCH   2  22
TORSDOF 5
ENDMDL
