MODEL 1
REMARK VINA RESULT:      -8.3      0.000      0.000
REMARK  4 active torsions:
REMARK  status: ('A' for Active; 'I' for Inactive)
REMARK    1  A    between atoms: C2_2  and  O1_3 
REMARK    2  A    between atoms: O1_3  and  C3_4 
REMARK    3  A    between atoms: N3_10  and  C7_11 
REMARK    4  A    between atoms: C11_15  and  O2_16 
ROOT
HETATM    1  C3  UNL     1      20.867   1.520  52.556  1.00  0.00     0.081 A 
HETATM    2  C4  UNL     1      20.534   0.610  53.454  1.00  0.00     0.069 A 
HETATM    3  C5  UNL     1      21.675  -0.060  54.040  1.00  0.00     0.089 A 
HETATM    4  N1  UNL     1      21.530  -0.979  54.930  1.00  0.00    -0.238 NA
HETATM    5  C6  UNL     1      22.691  -1.616  55.481  1.00  0.00     0.256 A 
HETATM    6  N2  UNL     1      23.887  -1.311  55.124  1.00  0.00    -0.160 NA
HETATM    7  N3  UNL     1      24.120  -0.307  54.150  1.00  0.00    -0.230 N 
HETATM    8  C14 UNL     1      22.993   0.317  53.612  1.00  0.00     0.093 A 
HETATM    9  C15 UNL     1      23.326   1.231  52.717  1.00  0.00    -0.014 A 
HETATM   10  C16 UNL     1      24.668   1.647  52.257  1.00  0.00     0.042 C 
HETATM   11  C17 UNL     1      24.336   2.591  51.070  1.00  0.00     0.031 C 
HETATM   12  C18 UNL     1      23.455   3.707  51.530  1.00  0.00     0.169 C 
HETATM   13  O3  UNL     1      22.385   3.288  52.336  1.00  0.00    -0.375 OA
HETATM   14  C19 UNL     1      22.177   1.943  52.063  1.00  0.00     0.209 A 
ENDROOT
BRANCH   7  15
HETATM   15  C7  UNL     1      25.522  -0.197  53.944  1.00  0.00     0.061 A 
HETATM   16  C8  UNL     1      25.901  -1.278  53.107  1.00  0.00     0.032 A 
HETATM   17  C9  UNL     1      27.227  -1.519  52.734  1.00  0.00     0.005 A 
HETATM   18  C10 UNL     1      28.221  -0.680  53.186  1.00  0.00     0.037 A 
HETATM   19  C11 UNL     1      27.890   0.378  53.999  1.00  0.00     0.070 A 
HETATM   20  C13 UNL     1      26.596   0.602  54.358  1.00  0.00     0.068 A 
BRANCH  19  21
HETATM   21  O2  UNL     1      28.708   1.344  54.570  1.00  0.00    -0.356 OA
HETATM   22  C12 UNL     1      28.954   2.488  53.773  1.00  0.00     0.210 C 
ENDBRANCH  19  21
ENDBRANCH   7  15
BRANCH   1  23
HETATM   23  O1  UNL     1      19.897   2.256  51.903  1.00  0.00    -0.353 OA
BRANCH  23  24
HETATM   24  C2  UNL     1      19.725   2.150  50.496  1.00  0.00     0.171 C 
HETATM   25  C1  UNL     1      18.859   0.969  50.158  1.00  0.00     0.034 C 
ENDBRANCH  23  24
ENDBRANCH   1  23
TORSDOF 4
ENDMDL
MODEL 2
REMARK VINA RESULT:      -8.1      2.266      3.915
REMARK  4 active torsions:
REMARK  status: ('A' for Active; 'I' for Inactive)
REMARK    1  A    between atoms: C2_2  and  O1_3 
REMARK    2  A    between atoms: O1_3  and  C3_4 
REMARK    3  A    between atoms: N3_10  and  C7_11 
REMARK    4  A    between atoms: C11_15  and  O2_16 
ROOT
HETATM    1  C3  UNL     1      22.023   1.767  51.730  1.00  0.00     0.081 A 
HETATM    2  C4  UNL     1      22.522   2.602  50.836  1.00  0.00     0.069 A 
HETATM    3  C5  UNL     1      23.969   2.619  50.815  1.00  0.00     0.089 A 
HETATM    4  N1  UNL     1      24.620   3.381  50.006  1.00  0.00    -0.238 NA
HETATM    5  C6  UNL     1      26.054   3.364  50.023  1.00  0.00     0.256 A 
HETATM    6  N2  UNL     1      26.732   2.617  50.818  1.00  0.00    -0.160 NA
HETATM    7  N3  UNL     1      26.080   1.752  51.734  1.00  0.00    -0.230 N 
HETATM    8  C14 UNL     1      24.684   1.764  51.720  1.00  0.00     0.093 A 
HETATM    9  C15 UNL     1      24.183   0.925  52.612  1.00  0.00    -0.014 A 
HETATM   10  C16 UNL     1      24.888   0.029  53.554  1.00  0.00     0.042 C 
HETATM   11  C17 UNL     1      23.726  -0.506  54.436  1.00  0.00     0.031 C 
HETATM   12  C18 UNL     1      22.697  -1.174  53.582  1.00  0.00     0.169 C 
HETATM   13  O3  UNL     1      22.348  -0.440  52.438  1.00  0.00    -0.375 OA
HETATM   14  C19 UNL     1      22.684   0.884  52.689  1.00  0.00     0.209 A 
ENDROOT
BRANCH   7  15
HETATM   15  C7  UNL     1      27.070   1.068  52.490  1.00  0.00     0.061 A 
HETATM   16  C8  UNL     1      27.824   2.057  53.173  1.00  0.00     0.032 A 
HETATM   17  C9  UNL     1      28.925   1.750  53.979  1.00  0.00     0.005 A 
HETATM   18  C10 UNL     1      29.307   0.435  54.130  1.00  0.00     0.037 A 
HETATM   19  C11 UNL     1      28.599  -0.549  53.483  1.00  0.00     0.070 A 
HETATM   20  C13 UNL     1      27.530  -0.239  52.700  1.00  0.00     0.068 A 
BRANCH  19  21
HETATM   21  O2  UNL     1      28.795  -1.924  53.484  1.00  0.00    -0.356 OA
HETATM   22  C12 UNL     1      27.811  -2.683  52.805  1.00  0.00     0.210 C 
ENDBRANCH  19  21
ENDBRANCH   7  15
BRANCH   1  23
HETATM   23  O1  UNL     1      20.656   1.626  51.878  1.00  0.00    -0.353 OA
BRANCH  23  24
HETATM   24  C2  UNL     1      19.835   1.282  50.770  1.00  0.00     0.171 C 
HETATM   25  C1  UNL     1      18.856   0.207  51.152  1.00  0.00     0.034 C 
ENDBRANCH  23  24
ENDBRANCH   1  23
TORSDOF 4
ENDMDL
MODEL 3
REMARK VINA RESULT:      -8.1      2.373      7.082
REMARK  4 active torsions:
REMARK  status: ('A' for Active; 'I' for Inactive)
REMARK    1  A    between atoms: C2_2  and  O1_3 
REMARK    2  A    between atoms: O1_3  and  C3_4 
REMARK    3  A    between atoms: N3_10  and  C7_11 
REMARK    4  A    between atoms: C11_15  and  O2_16 
ROOT
HETATM    1  C3  UNL     1      26.732   0.110  53.085  1.00  0.00     0.081 A 
HETATM    2  C4  UNL     1      27.309   1.066  52.378  1.00  0.00     0.069 A 
HETATM    3  C5  UNL     1      26.366   1.890  51.655  1.00  0.00     0.089 A 
HETATM    4  N1  UNL     1      26.758   2.865  50.911  1.00  0.00    -0.238 NA
HETATM    5  C6  UNL     1      25.785   3.654  50.212  1.00  0.00     0.256 A 
HETATM    6  N2  UNL     1      24.523   3.432  50.291  1.00  0.00    -0.160 NA
HETATM    7  N3  UNL     1      24.020   2.375  51.093  1.00  0.00    -0.230 N 
HETATM    8  C14 UNL     1      24.963   1.605  51.777  1.00  0.00     0.093 A 
HETATM    9  C15 UNL     1      24.387   0.652  52.488  1.00  0.00    -0.014 A 
HETATM   10  C16 UNL     1      22.951   0.335  52.639  1.00  0.00     0.042 C 
HETATM   11  C17 UNL     1      22.987  -1.003  53.428  1.00  0.00     0.031 C 
HETATM   12  C18 UNL     1      23.730  -0.824  54.712  1.00  0.00     0.169 C 
HETATM   13  O3  UNL     1      24.941  -0.129  54.572  1.00  0.00    -0.375 OA
HETATM   14  C19 UNL     1      25.323  -0.246  53.243  1.00  0.00     0.209 A 
ENDROOT
BRANCH   7  15
HETATM   15  C7  UNL     1      22.604   2.356  50.975  1.00  0.00     0.061 A 
HETATM   16  C8  UNL     1      22.299   1.638  49.791  1.00  0.00     0.032 A 
HETATM   17  C9  UNL     1      20.991   1.460  49.327  1.00  0.00     0.005 A 
HETATM   18  C10 UNL     1      19.942   1.998  50.038  1.00  0.00     0.037 A 
HETATM   19  C11 UNL     1      20.201   2.700  51.191  1.00  0.00     0.070 A 
HETATM   20  C13 UNL     1      21.478   2.868  51.633  1.00  0.00     0.068 A 
BRANCH  19  21
HETATM   21  O2  UNL     1      19.318   3.325  52.063  1.00  0.00    -0.356 OA
HETATM   22  C12 UNL     1      18.043   3.631  51.528  1.00  0.00     0.210 C 
ENDBRANCH  19  21
ENDBRANCH   7  15
BRANCH   1  23
HETATM   23  O1  UNL     1      27.491  -0.765  53.839  1.00  0.00    -0.353 OA
BRANCH  23  24
HETATM   24  C2  UNL     1      28.808  -0.422  54.249  1.00  0.00     0.171 C 
HETATM   25  C1  UNL     1      29.819  -1.291  53.555  1.00  0.00     0.034 C 
ENDBRANCH  23  24
ENDBRANCH   1  23
TORSDOF 4
ENDMDL
MODEL 4
REMARK VINA RESULT:      -8.0      1.732      6.136
REMARK  4 active torsions:
REMARK  status: ('A' for Active; 'I' for Inactive)
REMARK    1  A    between atoms: C2_2  and  O1_3 
REMARK    2  A    between atoms: O1_3  and  C3_4 
REMARK    3  A    between atoms: N3_10  and  C7_11 
REMARK    4  A    between atoms: C11_15  and  O2_16 
ROOT
HETATM    1  C3  UNL     1      26.643   0.774  54.177  1.00  0.00     0.081 A 
HETATM    2  C4  UNL     1      26.055  -0.144  54.923  1.00  0.00     0.069 A 
HETATM    3  C5  UNL     1      24.671  -0.369  54.568  1.00  0.00     0.089 A 
HETATM    4  N1  UNL     1      23.946  -1.227  55.199  1.00  0.00    -0.238 NA
HETATM    5  C6  UNL     1      22.578  -1.415  54.810  1.00  0.00     0.256 A 
HETATM    6  N2  UNL     1      22.031  -0.759  53.851  1.00  0.00    -0.160 NA
HETATM    7  N3  UNL     1      22.770   0.200  53.113  1.00  0.00    -0.230 N 
HETATM    8  C14 UNL     1      24.103   0.386  53.486  1.00  0.00     0.093 A 
HETATM    9  C15 UNL     1      24.694   1.300  52.736  1.00  0.00    -0.014 A 
HETATM   10  C16 UNL     1      24.142   2.091  51.615  1.00  0.00     0.042 C 
HETATM   11  C17 UNL     1      25.284   3.104  51.329  1.00  0.00     0.031 C 
HETATM   12  C18 UNL     1      26.553   2.376  51.021  1.00  0.00     0.169 C 
HETATM   13  O3  UNL     1      26.833   1.327  51.911  1.00  0.00    -0.375 OA
HETATM   14  C19 UNL     1      26.127   1.588  53.077  1.00  0.00     0.209 A 
ENDROOT
BRANCH   7  15
HETATM   15  C7  UNL     1      21.912   0.776  52.138  1.00  0.00     0.061 A 
HETATM   16  C8  UNL     1      20.930   1.521  52.839  1.00  0.00     0.032 A 
HETATM   17  C9  UNL     1      19.882   2.188  52.198  1.00  0.00     0.005 A 
HETATM   18  C10 UNL     1      19.782   2.131  50.826  1.00  0.00     0.037 A 
HETATM   19  C11 UNL     1      20.716   1.418  50.113  1.00  0.00     0.070 A 
HETATM   20  C13 UNL     1      21.733   0.771  50.748  1.00  0.00     0.068 A 
BRANCH  19  21
HETATM   21  O2  UNL     1      20.820   1.220  48.742  1.00  0.00    -0.356 OA
HETATM   22  C12 UNL     1      22.043   1.624  48.155  1.00  0.00     0.210 C 
ENDBRANCH  19  21
ENDBRANCH   7  15
BRANCH   1  23
HETATM   23  O1  UNL     1      27.968   1.108  54.382  1.00  0.00    -0.353 OA
BRANCH  23  24
HETATM   24  C2  UNL     1      28.922   0.117  54.741  1.00  0.00     0.171 C 
HETATM   25  C1  UNL     1      29.535  -0.495  53.512  1.00  0.00     0.034 C 
ENDBRANCH  23  24
ENDBRANCH   1  23
TORSDOF 4
ENDMDL
MODEL 5
REMARK VINA RESULT:      -7.4      1.925      2.555
REMARK  4 active torsions:
REMARK  status: ('A' for Active; 'I' for Inactive)
REMARK    1  A    between atoms: C2_2  and  O1_3 
REMARK    2  A    between atoms: O1_3  and  C3_4 
REMARK    3  A    between atoms: N3_10  and  C7_11 
REMARK    4  A    between atoms: C11_15  and  O2_16 
ROOT
HETATM    1  C3  UNL     1      19.385  -0.169  52.317  1.00  0.00     0.081 A 
HETATM    2  C4  UNL     1      19.582  -0.800  53.461  1.00  0.00     0.069 A 
HETATM    3  C5  UNL     1      20.969  -0.822  53.870  1.00  0.00     0.089 A 
HETATM    4  N1  UNL     1      21.340  -1.402  54.959  1.00  0.00    -0.238 NA
HETATM    5  C6  UNL     1      22.727  -1.398  55.323  1.00  0.00     0.256 A 
HETATM    6  N2  UNL     1      23.633  -0.838  54.605  1.00  0.00    -0.160 NA
HETATM    7  N3  UNL     1      23.296  -0.181  53.394  1.00  0.00    -0.230 N 
HETATM    8  C14 UNL     1      21.947  -0.180  53.036  1.00  0.00     0.093 A 
HETATM    9  C15 UNL     1      21.748   0.456  51.895  1.00  0.00    -0.014 A 
HETATM   10  C16 UNL     1      22.727   1.130  51.015  1.00  0.00     0.042 C 
HETATM   11  C17 UNL     1      21.871   1.475  49.766  1.00  0.00     0.031 C 
HETATM   12  C18 UNL     1      20.698   2.314  50.162  1.00  0.00     0.169 C 
HETATM   13  O3  UNL     1      20.019   1.838  51.295  1.00  0.00    -0.375 OA
HETATM   14  C19 UNL     1      20.327   0.490  51.413  1.00  0.00     0.209 A 
ENDROOT
BRANCH   7  15
HETATM   15  C7  UNL     1      24.489   0.323  52.809  1.00  0.00     0.061 A 
HETATM   16  C8  UNL     1      25.422  -0.746  52.787  1.00  0.00     0.032 A 
HETATM   17  C9  UNL     1      26.732  -0.600  52.322  1.00  0.00     0.005 A 
HETATM   18  C10 UNL     1      27.155   0.627  51.860  1.00  0.00     0.037 A 
HETATM   19  C11 UNL     1      26.278   1.685  51.867  1.00  0.00     0.070 A 
HETATM   20  C13 UNL     1      25.004   1.533  52.323  1.00  0.00     0.068 A 
BRANCH  19  21
HETATM   21  O2  UNL     1      26.474   2.998  51.457  1.00  0.00    -0.356 OA
HETATM   22  C12 UNL     1      26.299   3.239  50.072  1.00  0.00     0.210 C 
ENDBRANCH  19  21
ENDBRANCH   7  15
BRANCH   1  23
HETATM   23  O1  UNL     1      18.115  -0.053  51.785  1.00  0.00    -0.353 OA
BRANCH  23  24
HETATM   24  C2  UNL     1      17.001  -0.670  52.416  1.00  0.00     0.171 C 
HETATM   25  C1  UNL     1      15.972  -1.071  51.395  1.00  0.00     0.034 C 
ENDBRANCH  23  24
ENDBRANCH   1  23
TORSDOF 4
ENDMDL
MODEL 6
REMARK VINA RESULT:      -7.0      2.463      5.581
REMARK  4 active torsions:
REMARK  status: ('A' for Active; 'I' for Inactive)
REMARK    1  A    between atoms: C2_2  and  O1_3 
REMARK    2  A    between atoms: O1_3  and  C3_4 
REMARK    3  A    between atoms: N3_10  and  C7_11 
REMARK    4  A    between atoms: C11_15  and  O2_16 
ROOT
HETATM    1  C3  UNL     1      25.409   3.875  50.672  1.00  0.00     0.081 A 
HETATM    2  C4  UNL     1      26.454   3.070  50.757  1.00  0.00     0.069 A 
HETATM    3  C5  UNL     1      26.162   1.822  51.428  1.00  0.00     0.089 A 
HETATM    4  N1  UNL     1      27.069   0.925  51.602  1.00  0.00    -0.238 NA
HETATM    5  C6  UNL     1      26.732  -0.297  52.274  1.00  0.00     0.256 A 
HETATM    6  N2  UNL     1      25.553  -0.542  52.721  1.00  0.00    -0.160 NA
HETATM    7  N3  UNL     1      24.506   0.401  52.563  1.00  0.00    -0.230 N 
HETATM    8  C14 UNL     1      24.828   1.591  51.908  1.00  0.00     0.093 A 
HETATM    9  C15 UNL     1      23.782   2.394  51.819  1.00  0.00    -0.014 A 
HETATM   10  C16 UNL     1      22.398   2.187  52.295  1.00  0.00     0.042 C 
HETATM   11  C17 UNL     1      21.752   3.580  52.061  1.00  0.00     0.031 C 
HETATM   12  C18 UNL     1      21.871   3.966  50.621  1.00  0.00     0.169 C 
HETATM   13  O3  UNL     1      23.148   3.751  50.081  1.00  0.00    -0.375 OA
HETATM   14  C19 UNL     1      24.036   3.713  51.148  1.00  0.00     0.209 A 
ENDROOT
BRANCH   7  15
HETATM   15  C7  UNL     1      23.331  -0.126  53.164  1.00  0.00     0.061 A 
HETATM   16  C8  UNL     1      23.707  -0.627  54.437  1.00  0.00     0.032 A 
HETATM   17  C9  UNL     1      22.810  -1.269  55.296  1.00  0.00     0.005 A 
HETATM   18  C10 UNL     1      21.499  -1.431  54.907  1.00  0.00     0.037 A 
HETATM   19  C11 UNL     1      21.099  -0.959  53.680  1.00  0.00     0.070 A 
HETATM   20  C13 UNL     1      21.981  -0.336  52.851  1.00  0.00     0.068 A 
BRANCH  19  21
HETATM   21  O2  UNL     1      19.847  -1.007  53.079  1.00  0.00    -0.356 OA
HETATM   22  C12 UNL     1      19.348   0.230  52.604  1.00  0.00     0.210 C 
ENDBRANCH  19  21
ENDBRANCH   7  15
BRANCH   1  23
HETATM   23  O1  UNL     1      25.515   5.107  50.056  1.00  0.00    -0.353 OA
BRANCH  23  24
HETATM   24  C2  UNL     1      26.409   5.303  48.968  1.00  0.00     0.171 C 
HETATM   25  C1  UNL     1      26.806   6.750  48.866  1.00  0.00     0.034 C 
ENDBRANCH  23  24
ENDBRANCH   1  23
TORSDOF 4
ENDMDL
MODEL 7
REMARK VINA RESULT:      -6.9      3.400      4.823
REMARK  4 active torsions:
REMARK  status: ('A' for Active; 'I' for Inactive)
REMARK    1  A    between atoms: C2_2  and  O1_3 
REMARK    2  A    between atoms: O1_3  and  C3_4 
REMARK    3  A    between atoms: N3_10  and  C7_11 
REMARK    4  A    between atoms: C11_15  and  O2_16 
ROOT
HETATM    1  C3  UNL     1      23.315   5.427  48.675  1.00  0.00     0.081 A 
HETATM    2  C4  UNL     1      22.125   5.481  49.248  1.00  0.00     0.069 A 
HETATM    3  C5  UNL     1      22.013   4.632  50.414  1.00  0.00     0.089 A 
HETATM    4  N1  UNL     1      20.919   4.560  51.090  1.00  0.00    -0.238 NA
HETATM    5  C6  UNL     1      20.857   3.703  52.239  1.00  0.00     0.256 A 
HETATM    6  N2  UNL     1      21.851   2.992  52.632  1.00  0.00    -0.160 NA
HETATM    7  N3  UNL     1      23.087   3.024  51.936  1.00  0.00    -0.230 N 
HETATM    8  C14 UNL     1      23.154   3.858  50.818  1.00  0.00     0.093 A 
HETATM    9  C15 UNL     1      24.345   3.809  50.247  1.00  0.00    -0.014 A 
HETATM   10  C16 UNL     1      25.539   3.029  50.637  1.00  0.00     0.042 C 
HETATM   11  C17 UNL     1      26.500   3.270  49.441  1.00  0.00     0.031 C 
HETATM   12  C18 UNL     1      26.737   4.735  49.258  1.00  0.00     0.169 C 
HETATM   13  O3  UNL     1      25.566   5.507  49.307  1.00  0.00    -0.375 OA
HETATM   14  C19 UNL     1      24.508   4.656  49.019  1.00  0.00     0.209 A 
ENDROOT
BRANCH   7  15
HETATM   15  C7  UNL     1      23.988   2.134  52.579  1.00  0.00     0.061 A 
HETATM   16  C8  UNL     1      23.438   0.832  52.460  1.00  0.00     0.032 A 
HETATM   17  C9  UNL     1      24.036  -0.299  53.025  1.00  0.00     0.005 A 
HETATM   18  C10 UNL     1      25.211  -0.163  53.731  1.00  0.00     0.037 A 
HETATM   19  C11 UNL     1      25.773   1.084  53.866  1.00  0.00     0.070 A 
HETATM   20  C13 UNL     1      25.182   2.179  53.312  1.00  0.00     0.068 A 
BRANCH  19  21
HETATM   21  O2  UNL     1      26.936   1.463  54.523  1.00  0.00    -0.356 OA
HETATM   22  C12 UNL     1      27.902   0.442  54.698  1.00  0.00     0.210 C 
ENDBRANCH  19  21
ENDBRANCH   7  15
BRANCH   1  23
HETATM   23  O1  UNL     1      23.591   6.181  47.550  1.00  0.00    -0.353 OA
BRANCH  23  24
HETATM   24  C2  UNL     1      22.563   6.906  46.888  1.00  0.00     0.171 C 
HETATM   25  C1  UNL     1      22.573   6.608  45.414  1.00  0.00     0.034 C 
ENDBRANCH  23  24
ENDBRANCH   1  23
TORSDOF 4
ENDMDL
MODEL 8
REMARK VINA RESULT:      -6.7      2.660      7.388
REMARK  4 active torsions:
REMARK  status: ('A' for Active; 'I' for Inactive)
REMARK    1  A    between atoms: C2_2  and  O1_3 
REMARK    2  A    between atoms: O1_3  and  C3_4 
REMARK    3  A    between atoms: N3_10  and  C7_11 
REMARK    4  A    between atoms: C11_15  and  O2_16 
ROOT
HETATM    1  C3  UNL     1      24.351   0.188  52.801  1.00  0.00     0.081 A 
HETATM    2  C4  UNL     1      24.957   1.094  52.053  1.00  0.00     0.069 A 
HETATM    3  C5  UNL     1      24.039   1.992  51.386  1.00  0.00     0.089 A 
HETATM    4  N1  UNL     1      24.461   2.931  50.613  1.00  0.00    -0.238 NA
HETATM    5  C6  UNL     1      23.512   3.797  49.973  1.00  0.00     0.256 A 
HETATM    6  N2  UNL     1      22.244   3.679  50.134  1.00  0.00    -0.160 NA
HETATM    7  N3  UNL     1      21.710   2.667  50.973  1.00  0.00    -0.230 N 
HETATM    8  C14 UNL     1      22.629   1.823  51.600  1.00  0.00     0.093 A 
HETATM    9  C15 UNL     1      22.024   0.921  52.353  1.00  0.00    -0.014 A 
HETATM   10  C16 UNL     1      20.579   0.722  52.598  1.00  0.00     0.042 C 
HETATM   11  C17 UNL     1      20.556  -0.613  53.390  1.00  0.00     0.031 C 
HETATM   12  C18 UNL     1      21.393  -0.495  54.623  1.00  0.00     0.169 C 
HETATM   13  O3  UNL     1      22.646   0.099  54.401  1.00  0.00    -0.375 OA
HETATM   14  C19 UNL     1      22.930  -0.051  53.051  1.00  0.00     0.209 A 
ENDROOT
BRANCH   7  15
HETATM   15  C7  UNL     1      20.292   2.764  50.947  1.00  0.00     0.061 A 
HETATM   16  C8  UNL     1      19.852   2.066  49.793  1.00  0.00     0.032 A 
HETATM   17  C9  UNL     1      18.508   1.994  49.416  1.00  0.00     0.005 A 
HETATM   18  C10 UNL     1      17.554   2.621  50.187  1.00  0.00     0.037 A 
HETATM   19  C11 UNL     1      17.944   3.306  51.312  1.00  0.00     0.070 A 
HETATM   20  C13 UNL     1      19.256   3.371  51.670  1.00  0.00     0.068 A 
BRANCH  19  21
HETATM   21  O2  UNL     1      17.174   4.007  52.232  1.00  0.00    -0.356 OA
HETATM   22  C12 UNL     1      15.790   3.708  52.226  1.00  0.00     0.210 C 
ENDBRANCH  19  21
ENDBRANCH   7  15
BRANCH   1  23
HETATM   23  O1  UNL     1      25.082  -0.745  53.510  1.00  0.00    -0.353 OA
BRANCH  23  24
HETATM   24  C2  UNL     1      26.498  -0.794  53.405  1.00  0.00     0.171 C 
HETATM   25  C1  UNL     1      26.927  -1.991  52.603  1.00  0.00     0.034 C 
ENDBRANCH  23  24
ENDBRANCH   1  23
TORSDOF 4
ENDMDL
MODEL 9
REMARK VINA RESULT:      -6.7      3.521      5.641
REMARK  4 active torsions:
REMARK  status: ('A' for Active; 'I' for Inactive)
REMARK    1  A    between atoms: C2_2  and  O1_3 
REMARK    2  A    between atoms: O1_3  and  C3_4 
REMARK    3  A    between atoms: N3_10  and  C7_11 
REMARK    4  A    between atoms: C11_15  and  O2_16 
ROOT
HETATM    1  C3  UNL     1      21.936   0.275  51.936  1.00  0.00     0.081 A 
HETATM    2  C4  UNL     1      21.247   0.286  50.808  1.00  0.00     0.069 A 
HETATM    3  C5  UNL     1      21.686   1.304  49.879  1.00  0.00     0.089 A 
HETATM    4  N1  UNL     1      21.120   1.458  48.733  1.00  0.00    -0.238 NA
HETATM    5  C6  UNL     1      21.590   2.482  47.846  1.00  0.00     0.256 A 
HETATM    6  N2  UNL     1      22.562   3.267  48.143  1.00  0.00    -0.160 NA
HETATM    7  N3  UNL     1      23.233   3.154  49.387  1.00  0.00    -0.230 N 
HETATM    8  C14 UNL     1      22.780   2.157  50.254  1.00  0.00     0.093 A 
HETATM    9  C15 UNL     1      23.472   2.142  51.380  1.00  0.00    -0.014 A 
HETATM   10  C16 UNL     1      24.603   2.999  51.795  1.00  0.00     0.042 C 
HETATM   11  C17 UNL     1      24.799   2.595  53.282  1.00  0.00     0.031 C 
HETATM   12  C18 UNL     1      25.051   1.125  53.387  1.00  0.00     0.169 C 
HETATM   13  O3  UNL     1      24.173   0.345  52.620  1.00  0.00    -0.375 OA
HETATM   14  C19 UNL     1      23.043   1.117  52.389  1.00  0.00     0.209 A 
ENDROOT
BRANCH   7  15
HETATM   15  C7  UNL     1      24.241   4.153  49.447  1.00  0.00     0.061 A 
HETATM   16  C8  UNL     1      25.466   3.524  49.105  1.00  0.00     0.032 A 
HETATM   17  C9  UNL     1      26.691   4.198  49.108  1.00  0.00     0.005 A 
HETATM   18  C10 UNL     1      26.731   5.530  49.455  1.00  0.00     0.037 A 
HETATM   19  C11 UNL     1      25.564   6.171  49.793  1.00  0.00     0.070 A 
HETATM   20  C13 UNL     1      24.376   5.506  49.787  1.00  0.00     0.068 A 
BRANCH  19  21
HETATM   21  O2  UNL     1      25.358   7.491  50.173  1.00  0.00    -0.356 OA
HETATM   22  C12 UNL     1      26.487   8.341  50.070  1.00  0.00     0.210 C 
ENDBRANCH  19  21
ENDBRANCH   7  15
BRANCH   1  23
HETATM   23  O1  UNL     1      21.648  -0.639  52.931  1.00  0.00    -0.353 OA
BRANCH  23  24
HETATM   24  C2  UNL     1      21.563  -0.234  54.291  1.00  0.00     0.171 C 
HETATM   25  C1  UNL     1      22.264  -1.223  55.180  1.00  0.00     0.034 C 
ENDBRANCH  23  24
ENDBRANCH   1  23
TORSDOF 4
ENDMDL
