MODEL 1
REMARK VINA RESULT:     -10.6      0.000      0.000
REMARK  0 active torsions:
REMARK  status: ('A' for Active; 'I' for Inactive)
ROOT
HETATM    1  O1  UNL     1      22.091   3.530  46.918  1.00  0.00    -0.427 OA
HETATM    2  C1  UNL     1      22.747   3.929  47.949  1.00  0.00     0.403 A 
HETATM    3  C2  UNL     1      22.906   3.010  49.043  1.00  0.00    -0.036 A 
HETATM    4  C3  UNL     1      23.526   4.089  49.431  1.00  0.00     0.088 A 
HETATM    5  C4  UNL     1      23.661   5.350  48.752  1.00  0.00    -0.021 A 
HETATM    6  C5  UNL     1      24.342   6.232  47.983  1.00  0.00     0.010 A 
HETATM    7  C6  UNL     1      23.863   7.454  47.598  1.00  0.00     0.001 A 
HETATM    8  C7  UNL     1      22.634   7.934  47.945  1.00  0.00     0.002 A 
HETATM    9  C8  UNL     1      21.867   7.105  48.730  1.00  0.00     0.030 A 
HETATM   10  C9  UNL     1      22.326   5.837  49.148  1.00  0.00     0.037 A 
HETATM   11  N1  UNL     1      21.306   5.192  49.979  1.00  0.00    -0.363 N 
HETATM   12  C10 UNL     1      20.792   4.759  51.221  1.00  0.00     0.220 C 
HETATM   13  C11 UNL     1      21.784   4.183  52.225  1.00  0.00     0.054 C 
HETATM   14  C12 UNL     1      22.965   4.826  52.707  1.00  0.00     0.005 C 
HETATM   15  C13 UNL     1      23.882   3.691  53.275  1.00  0.00     0.014 C 
HETATM   16  C14 UNL     1      24.429   2.790  52.239  1.00  0.00     0.053 C 
HETATM   17  C15 UNL     1      23.638   2.099  51.284  1.00  0.00    -0.038 C 
HETATM   18  C16 UNL     1      23.056   2.098  50.116  1.00  0.00     0.015 C 
HETATM   19  C17 UNL     1      23.058   0.861  51.900  1.00  0.00    -0.020 C 
HETATM   20  C18 UNL     1      21.854   0.225  51.848  1.00  0.00     0.015 C 
HETATM   21  C19 UNL     1      20.708   0.711  51.073  1.00  0.00     0.298 C 
HETATM   22  N2  UNL     1      19.567   0.891  51.973  1.00  0.00     0.088 N 
HETATM   23  C20 UNL     1      18.536   1.788  51.450  1.00  0.00     0.296 C 
HETATM   24  C21 UNL     1      18.958   3.265  51.626  1.00  0.00     0.200 C 
HETATM   25  O2  UNL     1      20.083   3.524  51.061  1.00  0.00    -0.365 OA
HETATM   26  C22 UNL     1      24.049   0.633  52.936  1.00  0.00    -0.019 A 
HETATM   27  C23 UNL     1      24.310  -0.469  53.784  1.00  0.00     0.013 A 
HETATM   28  C24 UNL     1      25.472  -0.517  54.559  1.00  0.00     0.001 A 
HETATM   29  C25 UNL     1      26.418   0.508  54.537  1.00  0.00     0.001 A 
HETATM   30  C26 UNL     1      26.204   1.615  53.723  1.00  0.00     0.009 A 
HETATM   31  C27 UNL     1      25.040   1.579  52.999  1.00  0.00    -0.038 A 
HETATM   32  H7  UNL     1      20.535   4.954  49.271  1.00  0.00     0.162 HD
HETATM   33  H20 UNL     1      19.188  -0.052  52.177  1.00  0.00     0.316 HD
ENDROOT
TORSDOF 0
ENDMDL
MODEL 2
REMARK VINA RESULT:     -10.6      2.525      5.708
REMARK  0 active torsions:
REMARK  status: ('A' for Active; 'I' for Inactive)
ROOT
HETATM    1  O1  UNL     1      21.456   1.057  49.227  1.00  0.00    -0.427 OA
HETATM    2  C1  UNL     1      21.562   2.338  49.221  1.00  0.00     0.403 A 
HETATM    3  C2  UNL     1      22.880   2.905  49.141  1.00  0.00    -0.036 A 
HETATM    4  C3  UNL     1      22.084   3.936  49.190  1.00  0.00     0.088 A 
HETATM    5  C4  UNL     1      20.650   3.969  49.315  1.00  0.00    -0.021 A 
HETATM    6  C5  UNL     1      19.403   4.074  48.799  1.00  0.00     0.010 A 
HETATM    7  C6  UNL     1      18.253   3.997  49.535  1.00  0.00     0.001 A 
HETATM    8  C7  UNL     1      18.224   3.804  50.885  1.00  0.00     0.002 A 
HETATM    9  C8  UNL     1      19.448   3.687  51.500  1.00  0.00     0.030 A 
HETATM   10  C9  UNL     1      20.659   3.762  50.775  1.00  0.00     0.037 A 
HETATM   11  N1  UNL     1      21.793   3.618  51.692  1.00  0.00    -0.363 N 
HETATM   12  C10 UNL     1      22.886   4.134  52.421  1.00  0.00     0.220 C 
HETATM   13  C11 UNL     1      23.741   5.197  51.742  1.00  0.00     0.054 C 
HETATM   14  C12 UNL     1      23.272   6.426  51.185  1.00  0.00     0.005 C 
HETATM   15  C13 UNL     1      24.378   6.905  50.185  1.00  0.00     0.014 C 
HETATM   16  C14 UNL     1      24.503   6.055  48.982  1.00  0.00     0.053 C 
HETATM   17  C15 UNL     1      24.704   4.650  49.014  1.00  0.00    -0.038 C 
HETATM   18  C16 UNL     1      24.183   3.454  49.062  1.00  0.00     0.015 C 
HETATM   19  C17 UNL     1      26.154   4.345  49.248  1.00  0.00    -0.020 C 
HETATM   20  C18 UNL     1      26.846   3.436  49.990  1.00  0.00     0.015 C 
HETATM   21  C19 UNL     1      26.210   2.432  50.850  1.00  0.00     0.298 C 
HETATM   22  N2  UNL     1      26.709   2.593  52.217  1.00  0.00     0.088 N 
HETATM   23  C20 UNL     1      25.844   1.999  53.237  1.00  0.00     0.296 C 
HETATM   24  C21 UNL     1      24.634   2.917  53.528  1.00  0.00     0.200 C 
HETATM   25  O2  UNL     1      23.946   3.171  52.472  1.00  0.00    -0.365 OA
HETATM   26  C22 UNL     1      26.734   5.566  48.718  1.00  0.00    -0.019 A 
HETATM   27  C23 UNL     1      28.061   5.929  48.387  1.00  0.00     0.013 A 
HETATM   28  C24 UNL     1      28.327   7.108  47.685  1.00  0.00     0.001 A 
HETATM   29  C25 UNL     1      27.310   7.975  47.285  1.00  0.00     0.001 A 
HETATM   30  C26 UNL     1      25.989   7.665  47.592  1.00  0.00     0.009 A 
HETATM   31  C27 UNL     1      25.821   6.492  48.282  1.00  0.00    -0.038 A 
HETATM   32  H7  UNL     1      21.740   2.585  51.978  1.00  0.00     0.162 HD
HETATM   33  H20 UNL     1      27.664   2.192  52.243  1.00  0.00     0.316 HD
ENDROOT
TORSDOF 0
ENDMDL
MODEL 3
REMARK VINA RESULT:     -10.0      2.268      4.418
REMARK  0 active torsions:
REMARK  status: ('A' for Active; 'I' for Inactive)
ROOT
HETATM    1  O1  UNL     1      21.953   7.110  51.194  1.00  0.00    -0.427 OA
HETATM    2  C1  UNL     1      21.345   6.025  50.869  1.00  0.00     0.403 A 
HETATM    3  C2  UNL     1      21.724   4.812  51.541  1.00  0.00    -0.036 A 
HETATM    4  C3  UNL     1      20.786   4.446  50.713  1.00  0.00     0.088 A 
HETATM    5  C4  UNL     1      20.062   5.240  49.755  1.00  0.00    -0.021 A 
HETATM    6  C5  UNL     1      18.984   5.957  49.361  1.00  0.00     0.010 A 
HETATM    7  C6  UNL     1      18.874   6.588  48.153  1.00  0.00     0.001 A 
HETATM    8  C7  UNL     1      19.844   6.571  47.194  1.00  0.00     0.002 A 
HETATM    9  C8  UNL     1      20.981   5.863  47.505  1.00  0.00     0.030 A 
HETATM   10  C9  UNL     1      21.132   5.197  48.741  1.00  0.00     0.037 A 
HETATM   11  N1  UNL     1      22.432   4.521  48.783  1.00  0.00    -0.363 N 
HETATM   12  C10 UNL     1      23.246   3.369  48.736  1.00  0.00     0.220 C 
HETATM   13  C11 UNL     1      22.720   2.114  49.424  1.00  0.00     0.054 C 
HETATM   14  C12 UNL     1      21.462   1.483  49.180  1.00  0.00     0.005 C 
HETATM   15  C13 UNL     1      21.166   0.594  50.434  1.00  0.00     0.014 C 
HETATM   16  C14 UNL     1      20.884   1.368  51.662  1.00  0.00     0.053 C 
HETATM   17  C15 UNL     1      21.742   2.369  52.188  1.00  0.00    -0.038 C 
HETATM   18  C16 UNL     1      22.105   3.623  52.209  1.00  0.00     0.015 C 
HETATM   19  C17 UNL     1      22.850   1.733  52.974  1.00  0.00    -0.020 C 
HETATM   20  C18 UNL     1      24.187   1.952  53.116  1.00  0.00     0.015 C 
HETATM   21  C19 UNL     1      24.921   3.006  52.407  1.00  0.00     0.298 C 
HETATM   22  N2  UNL     1      26.009   2.394  51.641  1.00  0.00     0.088 N 
HETATM   23  C20 UNL     1      26.510   3.232  50.552  1.00  0.00     0.296 C 
HETATM   24  C21 UNL     1      25.562   3.165  49.332  1.00  0.00     0.200 C 
HETATM   25  O2  UNL     1      24.359   3.512  49.626  1.00  0.00    -0.365 OA
HETATM   26  C22 UNL     1      22.190   0.492  53.339  1.00  0.00    -0.019 A 
HETATM   27  C23 UNL     1      22.515  -0.527  54.265  1.00  0.00     0.013 A 
HETATM   28  C24 UNL     1      21.591  -1.527  54.582  1.00  0.00     0.001 A 
HETATM   29  C25 UNL     1      20.322  -1.570  54.006  1.00  0.00     0.001 A 
HETATM   30  C26 UNL     1      19.957  -0.593  53.086  1.00  0.00     0.009 A 
HETATM   31  C27 UNL     1      20.924   0.346  52.833  1.00  0.00    -0.038 A 
HETATM   32  H7  UNL     1      23.125   5.338  48.856  1.00  0.00     0.162 HD
HETATM   33  H20 UNL     1      26.759   2.154  52.315  1.00  0.00     0.316 HD
ENDROOT
TORSDOF 0
ENDMDL
MODEL 4
REMARK VINA RESULT:      -9.5      2.989      5.568
REMARK  0 active torsions:
REMARK  status: ('A' for Active; 'I' for Inactive)
ROOT
HETATM    1  O1  UNL     1      20.550   4.869  47.976  1.00  0.00    -0.427 OA
HETATM    2  C1  UNL     1      21.355   5.868  48.053  1.00  0.00     0.403 A 
HETATM    3  C2  UNL     1      22.756   5.594  48.213  1.00  0.00    -0.036 A 
HETATM    4  C3  UNL     1      22.679   6.895  48.187  1.00  0.00     0.088 A 
HETATM    5  C4  UNL     1      21.513   7.732  48.083  1.00  0.00    -0.021 A 
HETATM    6  C5  UNL     1      20.642   8.493  47.380  1.00  0.00     0.010 A 
HETATM    7  C6  UNL     1      19.546   9.110  47.918  1.00  0.00     0.001 A 
HETATM    8  C7  UNL     1      19.196   9.031  49.234  1.00  0.00     0.002 A 
HETATM    9  C8  UNL     1      20.027   8.277  50.030  1.00  0.00     0.030 A 
HETATM   10  C9  UNL     1      21.169   7.626  49.513  1.00  0.00     0.037 A 
HETATM   11  N1  UNL     1      21.862   6.915  50.590  1.00  0.00    -0.363 N 
HETATM   12  C10 UNL     1      22.922   6.762  51.511  1.00  0.00     0.220 C 
HETATM   13  C11 UNL     1      24.321   7.130  51.032  1.00  0.00     0.054 C 
HETATM   14  C12 UNL     1      24.719   8.382  50.472  1.00  0.00     0.005 C 
HETATM   15  C13 UNL     1      26.047   8.110  49.687  1.00  0.00     0.014 C 
HETATM   16  C14 UNL     1      25.866   7.280  48.478  1.00  0.00     0.053 C 
HETATM   17  C15 UNL     1      25.236   6.008  48.469  1.00  0.00    -0.038 C 
HETATM   18  C16 UNL     1      24.135   5.313  48.372  1.00  0.00     0.015 C 
HETATM   19  C17 UNL     1      26.206   4.954  48.916  1.00  0.00    -0.020 C 
HETATM   20  C18 UNL     1      26.139   3.849  49.711  1.00  0.00     0.015 C 
HETATM   21  C19 UNL     1      24.921   3.417  50.406  1.00  0.00     0.298 C 
HETATM   22  N2  UNL     1      25.197   3.336  51.841  1.00  0.00     0.088 N 
HETATM   23  C20 UNL     1      23.997   3.378  52.677  1.00  0.00     0.296 C 
HETATM   24  C21 UNL     1      23.482   4.829  52.818  1.00  0.00     0.200 C 
HETATM   25  O2  UNL     1      23.235   5.374  51.681  1.00  0.00    -0.365 OA
HETATM   26  C22 UNL     1      27.447   5.612  48.549  1.00  0.00    -0.019 A 
HETATM   27  C23 UNL     1      28.781   5.152  48.453  1.00  0.00     0.013 A 
HETATM   28  C24 UNL     1      29.771   5.944  47.864  1.00  0.00     0.001 A 
HETATM   29  C25 UNL     1      29.495   7.211  47.352  1.00  0.00     0.001 A 
HETATM   30  C26 UNL     1      28.199   7.711  47.427  1.00  0.00     0.009 A 
HETATM   31  C27 UNL     1      27.294   6.868  48.020  1.00  0.00    -0.038 A 
HETATM   32  H7  UNL     1      21.194   6.104  50.811  1.00  0.00     0.162 HD
HETATM   33  H20 UNL     1      25.743   2.470  51.999  1.00  0.00     0.316 HD
ENDROOT
TORSDOF 0
ENDMDL
MODEL 5
REMARK VINA RESULT:      -9.4      2.938      6.188
REMARK  0 active torsions:
REMARK  status: ('A' for Active; 'I' for Inactive)
ROOT
HETATM    1  O1  UNL     1      18.010   3.823  52.147  1.00  0.00    -0.427 OA
HETATM    2  C1  UNL     1      18.956   3.098  51.665  1.00  0.00     0.403 A 
HETATM    3  C2  UNL     1      20.078   3.766  51.064  1.00  0.00    -0.036 A 
HETATM    4  C3  UNL     1      20.351   2.497  50.944  1.00  0.00     0.088 A 
HETATM    5  C4  UNL     1      19.563   1.359  51.337  1.00  0.00    -0.021 A 
HETATM    6  C5  UNL     1      19.240   0.360  52.193  1.00  0.00     0.010 A 
HETATM    7  C6  UNL     1      18.219  -0.528  51.994  1.00  0.00     0.001 A 
HETATM    8  C7  UNL     1      17.400  -0.516  50.904  1.00  0.00     0.002 A 
HETATM    9  C8  UNL     1      17.654   0.466  49.975  1.00  0.00     0.030 A 
HETATM   10  C9  UNL     1      18.698   1.402  50.144  1.00  0.00     0.037 A 
HETATM   11  N1  UNL     1      18.736   2.311  48.995  1.00  0.00    -0.363 N 
HETATM   12  C10 UNL     1      19.302   2.786  47.792  1.00  0.00     0.220 C 
HETATM   13  C11 UNL     1      20.823   2.821  47.701  1.00  0.00     0.054 C 
HETATM   14  C12 UNL     1      21.706   1.719  47.919  1.00  0.00     0.005 C 
HETATM   15  C13 UNL     1      23.113   2.338  48.222  1.00  0.00     0.014 C 
HETATM   16  C14 UNL     1      23.188   3.047  49.516  1.00  0.00     0.053 C 
HETATM   17  C15 UNL     1      22.303   4.086  49.910  1.00  0.00    -0.038 C 
HETATM   18  C16 UNL     1      21.179   4.433  50.474  1.00  0.00     0.015 C 
HETATM   19  C17 UNL     1      22.734   5.385  49.296  1.00  0.00    -0.020 C 
HETATM   20  C18 UNL     1      22.097   6.446  48.725  1.00  0.00     0.015 C 
HETATM   21  C19 UNL     1      20.642   6.531  48.561  1.00  0.00     0.298 C 
HETATM   22  N2  UNL     1      20.335   6.728  47.142  1.00  0.00     0.088 N 
HETATM   23  C20 UNL     1      18.965   6.368  46.778  1.00  0.00     0.296 C 
HETATM   24  C21 UNL     1      18.823   4.835  46.637  1.00  0.00     0.200 C 
HETATM   25  O2  UNL     1      19.164   4.210  47.707  1.00  0.00    -0.365 OA
HETATM   26  C22 UNL     1      24.146   5.098  49.119  1.00  0.00    -0.019 A 
HETATM   27  C23 UNL     1      25.256   5.918  48.803  1.00  0.00     0.013 A 
HETATM   28  C24 UNL     1      26.561   5.426  48.902  1.00  0.00     0.001 A 
HETATM   29  C25 UNL     1      26.828   4.119  49.307  1.00  0.00     0.001 A 
HETATM   30  C26 UNL     1      25.770   3.272  49.623  1.00  0.00     0.009 A 
HETATM   31  C27 UNL     1      24.527   3.837  49.498  1.00  0.00    -0.038 A 
HETATM   32  H7  UNL     1      17.851   2.904  49.129  1.00  0.00     0.162 HD
HETATM   33  H20 UNL     1      20.543   7.718  46.920  1.00  0.00     0.316 HD
ENDROOT
TORSDOF 0
ENDMDL
MODEL 6
REMARK VINA RESULT:      -9.3      1.256      1.445
REMARK  0 active torsions:
REMARK  status: ('A' for Active; 'I' for Inactive)
ROOT
HETATM    1  O1  UNL     1      20.385   3.127  46.372  1.00  0.00    -0.427 OA
HETATM    2  C1  UNL     1      21.164   3.592  47.283  1.00  0.00     0.403 A 
HETATM    3  C2  UNL     1      21.443   2.758  48.420  1.00  0.00    -0.036 A 
HETATM    4  C3  UNL     1      22.115   3.852  48.645  1.00  0.00     0.088 A 
HETATM    5  C4  UNL     1      22.180   5.054  47.856  1.00  0.00    -0.021 A 
HETATM    6  C5  UNL     1      22.772   5.861  46.945  1.00  0.00     0.010 A 
HETATM    7  C6  UNL     1      22.262   7.058  46.524  1.00  0.00     0.001 A 
HETATM    8  C7  UNL     1      21.088   7.586  46.974  1.00  0.00     0.002 A 
HETATM    9  C8  UNL     1      20.412   6.835  47.908  1.00  0.00     0.030 A 
HETATM   10  C9  UNL     1      20.906   5.595  48.368  1.00  0.00     0.037 A 
HETATM   11  N1  UNL     1      19.987   5.035  49.363  1.00  0.00    -0.363 N 
HETATM   12  C10 UNL     1      19.622   4.710  50.687  1.00  0.00     0.220 C 
HETATM   13  C11 UNL     1      20.721   4.195  51.609  1.00  0.00     0.054 C 
HETATM   14  C12 UNL     1      21.957   4.852  51.896  1.00  0.00     0.005 C 
HETATM   15  C13 UNL     1      22.925   3.747  52.439  1.00  0.00     0.014 C 
HETATM   16  C14 UNL     1      23.336   2.759  51.420  1.00  0.00     0.053 C 
HETATM   17  C15 UNL     1      22.430   2.010  50.623  1.00  0.00    -0.038 C 
HETATM   18  C16 UNL     1      21.712   1.929  49.536  1.00  0.00     0.015 C 
HETATM   19  C17 UNL     1      21.916   0.834  51.400  1.00  0.00    -0.020 C 
HETATM   20  C18 UNL     1      20.709   0.219  51.542  1.00  0.00     0.015 C 
HETATM   21  C19 UNL     1      19.482   0.665  50.872  1.00  0.00     0.298 C 
HETATM   22  N2  UNL     1      18.460   0.936  51.884  1.00  0.00     0.088 N 
HETATM   23  C20 UNL     1      17.382   1.808  51.417  1.00  0.00     0.296 C 
HETATM   24  C21 UNL     1      17.835   3.286  51.424  1.00  0.00     0.200 C 
HETATM   25  O2  UNL     1      18.887   3.480  50.711  1.00  0.00    -0.365 OA
HETATM   26  C22 UNL     1      23.022   0.670  52.326  1.00  0.00    -0.019 A 
HETATM   27  C23 UNL     1      23.372  -0.368  53.222  1.00  0.00     0.013 A 
HETATM   28  C24 UNL     1      24.618  -0.378  53.855  1.00  0.00     0.001 A 
HETATM   29  C25 UNL     1      25.563   0.625  53.639  1.00  0.00     0.001 A 
HETATM   30  C26 UNL     1      25.265   1.670  52.772  1.00  0.00     0.009 A 
HETATM   31  C27 UNL     1      24.022   1.599  52.196  1.00  0.00    -0.038 A 
HETATM   32  H7  UNL     1      19.135   4.757  48.772  1.00  0.00     0.162 HD
HETATM   33  H20 UNL     1      18.099   0.019  52.205  1.00  0.00     0.316 HD
ENDROOT
TORSDOF 0
ENDMDL
MODEL 7
REMARK VINA RESULT:      -9.3      7.615     10.734
REMARK  0 active torsions:
REMARK  status: ('A' for Active; 'I' for Inactive)
ROOT
HETATM    1  O1  UNL     1      30.510  10.251  43.364  1.00  0.00    -0.427 OA
HETATM    2  C1  UNL     1      30.743   9.222  44.099  1.00  0.00     0.403 A 
HETATM    3  C2  UNL     1      29.807   8.914  45.145  1.00  0.00    -0.036 A 
HETATM    4  C3  UNL     1      30.715   7.983  45.236  1.00  0.00     0.088 A 
HETATM    5  C4  UNL     1      31.917   7.811  44.463  1.00  0.00    -0.021 A 
HETATM    6  C5  UNL     1      32.625   7.247  43.456  1.00  0.00     0.010 A 
HETATM    7  C6  UNL     1      33.926   7.551  43.162  1.00  0.00     0.001 A 
HETATM    8  C7  UNL     1      34.670   8.463  43.851  1.00  0.00     0.002 A 
HETATM    9  C8  UNL     1      34.033   9.088  44.897  1.00  0.00     0.030 A 
HETATM   10  C9  UNL     1      32.691   8.802  45.233  1.00  0.00     0.037 A 
HETATM   11  N1  UNL     1      32.289   9.605  46.391  1.00  0.00    -0.363 N 
HETATM   12  C10 UNL     1      31.978   9.761  47.759  1.00  0.00     0.220 C 
HETATM   13  C11 UNL     1      31.187   8.643  48.428  1.00  0.00     0.054 C 
HETATM   14  C12 UNL     1      31.542   7.259  48.458  1.00  0.00     0.005 C 
HETATM   15  C13 UNL     1      30.226   6.474  48.778  1.00  0.00     0.014 C 
HETATM   16  C14 UNL     1      29.230   6.507  47.686  1.00  0.00     0.053 C 
HETATM   17  C15 UNL     1      28.742   7.698  47.087  1.00  0.00    -0.038 C 
HETATM   18  C16 UNL     1      28.878   8.619  46.172  1.00  0.00     0.015 C 
HETATM   19  C17 UNL     1      27.664   8.296  47.942  1.00  0.00    -0.020 C 
HETATM   20  C18 UNL     1      27.318   9.557  48.326  1.00  0.00     0.015 C 
HETATM   21  C19 UNL     1      28.056  10.761  47.929  1.00  0.00     0.298 C 
HETATM   22  N2  UNL     1      28.485  11.474  49.134  1.00  0.00     0.088 N 
HETATM   23  C20 UNL     1      29.595  12.400  48.910  1.00  0.00     0.296 C 
HETATM   24  C21 UNL     1      30.936  11.636  48.837  1.00  0.00     0.200 C 
HETATM   25  O2  UNL     1      30.937  10.732  47.923  1.00  0.00    -0.365 OA
HETATM   26  C22 UNL     1      27.212   7.092  48.617  1.00  0.00    -0.019 A 
HETATM   27  C23 UNL     1      26.074   6.811  49.411  1.00  0.00     0.013 A 
HETATM   28  C24 UNL     1      25.760   5.498  49.771  1.00  0.00     0.001 A 
HETATM   29  C25 UNL     1      26.544   4.415  49.374  1.00  0.00     0.001 A 
HETATM   30  C26 UNL     1      27.676   4.640  48.597  1.00  0.00     0.009 A 
HETATM   31  C27 UNL     1      27.908   5.957  48.292  1.00  0.00    -0.038 A 
HETATM   32  H7  UNL     1      32.236  10.598  45.987  1.00  0.00     0.162 HD
HETATM   33  H20 UNL     1      27.652  11.959  49.515  1.00  0.00     0.316 HD
ENDROOT
TORSDOF 0
ENDMDL
MODEL 8
REMARK VINA RESULT:      -9.2      2.309      4.517
REMARK  0 active torsions:
REMARK  status: ('A' for Active; 'I' for Inactive)
ROOT
HETATM    1  O1  UNL     1      23.540   7.454  51.389  1.00  0.00    -0.427 OA
HETATM    2  C1  UNL     1      22.799   6.595  50.784  1.00  0.00     0.403 A 
HETATM    3  C2  UNL     1      22.636   5.302  51.389  1.00  0.00    -0.036 A 
HETATM    4  C3  UNL     1      21.926   5.243  50.297  1.00  0.00     0.088 A 
HETATM    5  C4  UNL     1      21.750   6.242  49.276  1.00  0.00    -0.021 A 
HETATM    6  C5  UNL     1      21.060   7.246  48.686  1.00  0.00     0.010 A 
HETATM    7  C6  UNL     1      21.481   7.926  47.576  1.00  0.00     0.001 A 
HETATM    8  C7  UNL     1      22.654   7.673  46.927  1.00  0.00     0.002 A 
HETATM    9  C8  UNL     1      23.425   6.664  47.455  1.00  0.00     0.030 A 
HETATM   10  C9  UNL     1      23.025   5.938  48.599  1.00  0.00     0.037 A 
HETATM   11  N1  UNL     1      24.033   4.924  48.919  1.00  0.00    -0.363 N 
HETATM   12  C10 UNL     1      24.499   3.593  48.965  1.00  0.00     0.220 C 
HETATM   13  C11 UNL     1      23.489   2.511  49.329  1.00  0.00     0.054 C 
HETATM   14  C12 UNL     1      22.243   2.266  48.675  1.00  0.00     0.005 C 
HETATM   15  C13 UNL     1      21.369   1.451  49.687  1.00  0.00     0.014 C 
HETATM   16  C14 UNL     1      20.943   2.228  50.870  1.00  0.00     0.053 C 
HETATM   17  C15 UNL     1      21.832   2.929  51.726  1.00  0.00    -0.038 C 
HETATM   18  C16 UNL     1      22.482   4.030  51.992  1.00  0.00     0.015 C 
HETATM   19  C17 UNL     1      22.454   1.980  52.708  1.00  0.00    -0.020 C 
HETATM   20  C18 UNL     1      23.698   1.811  53.238  1.00  0.00     0.015 C 
HETATM   21  C19 UNL     1      24.854   2.642  52.887  1.00  0.00     0.298 C 
HETATM   22  N2  UNL     1      25.925   1.779  52.386  1.00  0.00     0.088 N 
HETATM   23  C20 UNL     1      26.925   2.483  51.583  1.00  0.00     0.296 C 
HETATM   24  C21 UNL     1      26.399   2.728  50.150  1.00  0.00     0.200 C 
HETATM   25  O2  UNL     1      25.295   3.386  50.138  1.00  0.00    -0.365 OA
HETATM   26  C22 UNL     1      21.420   0.961  52.729  1.00  0.00    -0.019 A 
HETATM   27  C23 UNL     1      21.181  -0.141  53.583  1.00  0.00     0.013 A 
HETATM   28  C24 UNL     1      19.980  -0.853  53.514  1.00  0.00     0.001 A 
HETATM   29  C25 UNL     1      18.974  -0.518  52.609  1.00  0.00     0.001 A 
HETATM   30  C26 UNL     1      19.163   0.554  51.744  1.00  0.00     0.009 A 
HETATM   31  C27 UNL     1      20.368   1.194  51.880  1.00  0.00    -0.038 A 
HETATM   32  H7  UNL     1      24.859   5.511  49.275  1.00  0.00     0.162 HD
HETATM   33  H20 UNL     1      26.352   1.314  53.208  1.00  0.00     0.316 HD
ENDROOT
TORSDOF 0
ENDMDL
MODEL 9
REMARK VINA RESULT:      -9.2      6.732     10.071
REMARK  0 active torsions:
REMARK  status: ('A' for Active; 'I' for Inactive)
ROOT
HETATM    1  O1  UNL     1      31.049  11.889  49.275  1.00  0.00    -0.427 OA
HETATM    2  C1  UNL     1      29.887  11.549  48.842  1.00  0.00     0.403 A 
HETATM    3  C2  UNL     1      29.558  10.150  48.822  1.00  0.00    -0.036 A 
HETATM    4  C3  UNL     1      28.495  10.742  48.354  1.00  0.00     0.088 A 
HETATM    5  C4  UNL     1      28.269  12.143  48.114  1.00  0.00    -0.021 A 
HETATM    6  C5  UNL     1      27.779  13.356  48.462  1.00  0.00     0.010 A 
HETATM    7  C6  UNL     1      27.920  14.491  47.712  1.00  0.00     0.001 A 
HETATM    8  C7  UNL     1      28.575  14.537  46.516  1.00  0.00     0.002 A 
HETATM    9  C8  UNL     1      29.107  13.347  46.079  1.00  0.00     0.030 A 
HETATM   10  C9  UNL     1      28.983  12.154  46.824  1.00  0.00     0.037 A 
HETATM   11  N1  UNL     1      29.632  11.053  46.106  1.00  0.00    -0.363 N 
HETATM   12  C10 UNL     1      29.603   9.874  45.331  1.00  0.00     0.220 C 
HETATM   13  C11 UNL     1      28.526   8.847  45.661  1.00  0.00     0.054 C 
HETATM   14  C12 UNL     1      27.119   9.088  45.715  1.00  0.00     0.005 C 
HETATM   15  C13 UNL     1      26.507   7.927  46.569  1.00  0.00     0.014 C 
HETATM   16  C14 UNL     1      26.879   7.976  47.998  1.00  0.00     0.053 C 
HETATM   17  C15 UNL     1      28.215   8.038  48.474  1.00  0.00    -0.038 C 
HETATM   18  C16 UNL     1      29.244   8.770  48.806  1.00  0.00     0.015 C 
HETATM   19  C17 UNL     1      28.822   6.666  48.475  1.00  0.00    -0.020 C 
HETATM   20  C18 UNL     1      30.039   6.144  48.153  1.00  0.00     0.015 C 
HETATM   21  C19 UNL     1      31.162   6.942  47.651  1.00  0.00     0.298 C 
HETATM   22  N2  UNL     1      31.586   6.404  46.357  1.00  0.00     0.088 N 
HETATM   23  C20 UNL     1      32.351   7.350  45.545  1.00  0.00     0.296 C 
HETATM   24  C21 UNL     1      31.409   8.366  44.858  1.00  0.00     0.200 C 
HETATM   25  O2  UNL     1      30.683   9.009  45.702  1.00  0.00    -0.365 OA
HETATM   26  C22 UNL     1      27.608   5.878  48.590  1.00  0.00    -0.019 A 
HETATM   27  C23 UNL     1      27.379   4.511  48.876  1.00  0.00     0.013 A 
HETATM   28  C24 UNL     1      26.089   4.041  49.141  1.00  0.00     0.001 A 
HETATM   29  C25 UNL     1      24.980   4.886  49.133  1.00  0.00     0.001 A 
HETATM   30  C26 UNL     1      25.152   6.237  48.851  1.00  0.00     0.009 A 
HETATM   31  C27 UNL     1      26.449   6.610  48.603  1.00  0.00    -0.038 A 
HETATM   32  H7  UNL     1      30.675  11.292  46.195  1.00  0.00     0.162 HD
HETATM   33  H20 UNL     1      32.124   5.540  46.548  1.00  0.00     0.316 HD
ENDROOT
TORSDOF 0
ENDMDL
