MODEL 1
REMARK VINA RESULT:      -7.5      0.000      0.000
REMARK  7 active torsions:
REMARK  status: ('A' for Active; 'I' for Inactive)
REMARK       I    between atoms: N1_2  and  C2_3 
REMARK    1  A    between atoms: C2_3  and  C3_5 
REMARK    2  A    between atoms: C10_13  and  S1_14 
REMARK    3  A    between atoms: S1_14  and  N3_17 
REMARK    4  A    between atoms: N3_17  and  C11_18 
REMARK    5  A    between atoms: C12_19  and  C13_20 
REMARK    6  A    between atoms: C14_21  and  C15_22 
REMARK    7  A    between atoms: C17_26  and  N5_27 
ROOT
HETATM    1  C3  UNL     1      25.785   5.344  49.446  1.00  0.00     0.158 C 
HETATM    2  N2  UNL     1      25.389   4.185  49.046  1.00  0.00    -0.280 NA
HETATM    3  C4  UNL     1      23.994   3.699  49.169  1.00  0.00     0.166 C 
HETATM    4  C5  UNL     1      23.317   4.775  49.986  1.00  0.00     0.029 A 
HETATM    5  C6  UNL     1      22.700   5.540  49.082  1.00  0.00     0.035 A 
HETATM    6  C7  UNL     1      22.326   6.834  49.249  1.00  0.00    -0.034 A 
HETATM    7  C8  UNL     1      22.919   6.446  50.406  1.00  0.00     0.011 A 
HETATM    8  C9  UNL     1      23.545   5.669  51.327  1.00  0.00     0.059 A 
HETATM    9  C10 UNL     1      23.899   4.384  51.134  1.00  0.00     0.053 A 
HETATM   10  C16 UNL     1      23.483   7.690  51.071  1.00  0.00     0.165 C 
HETATM   11  N4  UNL     1      24.919   7.688  50.680  1.00  0.00    -0.275 NA
HETATM   12  C17 UNL     1      25.442   6.635  50.089  1.00  0.00     0.129 C 
ENDROOT
BRANCH   9  13
HETATM   13  S1  UNL     1      24.619   2.980  51.842  1.00  0.00     0.256 S 
HETATM   14  O2  UNL     1      24.094   1.704  51.264  1.00  0.00    -0.201 OA
HETATM   15  O3  UNL     1      24.346   2.914  53.329  1.00  0.00    -0.201 OA
BRANCH  13  16
HETATM   16  N3  UNL     1      26.345   3.009  51.600  1.00  0.00    -0.292 N 
HETATM   17  H10 UNL     1      26.772   3.715  50.923  1.00  0.00     0.178 HD
BRANCH  16  18
HETATM   18  C11 UNL     1      27.190   2.105  52.289  1.00  0.00     0.100 C 
HETATM   19  C12 UNL     1      27.549   0.921  52.697  1.00  0.00     0.017 C 
BRANCH  19  20
HETATM   20  C13 UNL     1      26.879  -0.325  52.429  1.00  0.00    -0.000 C 
HETATM   21  C14 UNL     1      25.837  -0.895  53.007  1.00  0.00     0.004 C 
BRANCH  21  22
HETATM   22  C15 UNL     1      24.944  -0.523  54.128  1.00  0.00     0.249 C 
HETATM   23  F1  UNL     1      23.656  -0.355  53.635  1.00  0.00    -0.251 F 
ENDBRANCH  21  22
ENDBRANCH  19  20
ENDBRANCH  16  18
ENDBRANCH  13  16
ENDBRANCH   9  13
BRANCH   1  24
HETATM   24  C2  UNL     1      27.124   5.063  49.011  1.00  0.00     0.272 C 
HETATM   25  N1  UNL     1      28.266   5.794  48.623  1.00  0.00    -0.360 N 
HETATM   26  C1  UNL     1      29.583   5.432  48.186  1.00  0.00     0.149 C 
HETATM   27  H4  UNL     1      28.175   6.810  48.660  1.00  0.00     0.162 HD
HETATM   28  O1  UNL     1      27.742   3.957  48.826  1.00  0.00    -0.266 OA
ENDBRANCH   1  24
BRANCH  12  29
HETATM   29  N5  UNL     1      26.473   7.650  50.107  1.00  0.00    -0.285 NA
HETATM   30  H19 UNL     1      27.022   8.567  50.085  1.00  0.00     0.125 HD
HETATM   31  H20 UNL     1      26.837   8.659  50.046  1.00  0.00     0.125 HD
ENDBRANCH  12  29
TORSDOF 7
ENDMDL
MODEL 2
REMARK VINA RESULT:      -7.4      2.919      4.593
REMARK  7 active torsions:
REMARK  status: ('A' for Active; 'I' for Inactive)
REMARK       I    between atoms: N1_2  and  C2_3 
REMARK    1  A    between atoms: C2_3  and  C3_5 
REMARK    2  A    between atoms: C10_13  and  S1_14 
REMARK    3  A    between atoms: S1_14  and  N3_17 
REMARK    4  A    between atoms: N3_17  and  C11_18 
REMARK    5  A    between atoms: C12_19  and  C13_20 
REMARK    6  A    between atoms: C14_21  and  C15_22 
REMARK    7  A    between atoms: C17_26  and  N5_27 
ROOT
HETATM    1  C3  UNL     1      25.015   4.564  50.866  1.00  0.00     0.158 C 
HETATM    2  N2  UNL     1      23.921   4.967  51.414  1.00  0.00    -0.280 NA
HETATM    3  C4  UNL     1      23.155   4.179  52.409  1.00  0.00     0.166 C 
HETATM    4  C5  UNL     1      23.865   2.846  52.425  1.00  0.00     0.029 A 
HETATM    5  C6  UNL     1      24.676   2.914  53.483  1.00  0.00     0.035 A 
HETATM    6  C7  UNL     1      25.800   2.178  53.679  1.00  0.00    -0.034 A 
HETATM    7  C8  UNL     1      25.286   1.796  52.483  1.00  0.00     0.011 A 
HETATM    8  C9  UNL     1      24.461   1.724  51.407  1.00  0.00     0.059 A 
HETATM    9  C10 UNL     1      23.348   2.465  51.243  1.00  0.00     0.053 A 
HETATM   10  C16 UNL     1      26.435   1.273  51.637  1.00  0.00     0.165 C 
HETATM   11  N4  UNL     1      26.804   2.428  50.775  1.00  0.00    -0.275 NA
HETATM   12  C17 UNL     1      26.035   3.496  50.735  1.00  0.00     0.129 C 
ENDROOT
BRANCH   9  13
HETATM   13  S1  UNL     1      21.991   2.795  50.223  1.00  0.00     0.256 S 
HETATM   14  O2  UNL     1      22.373   3.481  48.950  1.00  0.00    -0.201 OA
HETATM   15  O3  UNL     1      20.996   3.704  50.912  1.00  0.00    -0.201 OA
BRANCH  13  16
HETATM   16  N3  UNL     1      21.182   1.307  49.808  1.00  0.00    -0.292 N 
HETATM   17  H10 UNL     1      21.272   0.914  48.819  1.00  0.00     0.178 HD
BRANCH  16  18
HETATM   18  C11 UNL     1      20.406   0.610  50.767  1.00  0.00     0.100 C 
HETATM   19  C12 UNL     1      20.084   0.265  51.981  1.00  0.00     0.017 C 
BRANCH  19  20
HETATM   20  C13 UNL     1      20.714   0.701  53.200  1.00  0.00    -0.000 C 
HETATM   21  C14 UNL     1      21.791   0.264  53.827  1.00  0.00     0.004 C 
BRANCH  21  22
HETATM   22  C15 UNL     1      22.773  -0.814  53.569  1.00  0.00     0.249 C 
HETATM   23  F1  UNL     1      23.912  -0.571  54.327  1.00  0.00    -0.251 F 
ENDBRANCH  21  22
ENDBRANCH  19  20
ENDBRANCH  16  18
ENDBRANCH  13  16
ENDBRANCH   9  13
BRANCH   1  24
HETATM   24  C2  UNL     1      25.109   5.777  50.104  1.00  0.00     0.272 C 
HETATM   25  N1  UNL     1      26.048   6.811  49.906  1.00  0.00    -0.360 N 
HETATM   26  C1  UNL     1      26.061   8.012  49.122  1.00  0.00     0.149 C 
HETATM   27  H4  UNL     1      26.931   6.709  50.407  1.00  0.00     0.162 HD
HETATM   28  O1  UNL     1      24.287   6.339  49.298  1.00  0.00    -0.266 OA
ENDBRANCH   1  24
BRANCH  12  29
HETATM   29  N5  UNL     1      27.203   3.801  49.937  1.00  0.00    -0.285 NA
HETATM   30  H19 UNL     1      28.057   4.260  49.487  1.00  0.00     0.125 HD
HETATM   31  H20 UNL     1      28.009   4.428  49.604  1.00  0.00     0.125 HD
ENDBRANCH  12  29
TORSDOF 7
ENDMDL
MODEL 3
REMARK VINA RESULT:      -7.3      3.528      5.411
REMARK  7 active torsions:
REMARK  status: ('A' for Active; 'I' for Inactive)
REMARK       I    between atoms: N1_2  and  C2_3 
REMARK    1  A    between atoms: C2_3  and  C3_5 
REMARK    2  A    between atoms: C10_13  and  S1_14 
REMARK    3  A    between atoms: S1_14  and  N3_17 
REMARK    4  A    between atoms: N3_17  and  C11_18 
REMARK    5  A    between atoms: C12_19  and  C13_20 
REMARK    6  A    between atoms: C14_21  and  C15_22 
REMARK    7  A    between atoms: C17_26  and  N5_27 
ROOT
HETATM    1  C3  UNL     1      22.889   1.489  52.131  1.00  0.00     0.158 C 
HETATM    2  N2  UNL     1      23.475   2.038  53.138  1.00  0.00    -0.280 NA
HETATM    3  C4  UNL     1      24.197   3.331  53.073  1.00  0.00     0.166 C 
HETATM    4  C5  UNL     1      24.199   3.658  51.598  1.00  0.00     0.029 A 
HETATM    5  C6  UNL     1      23.183   4.511  51.446  1.00  0.00     0.035 A 
HETATM    6  C7  UNL     1      22.513   4.760  50.292  1.00  0.00    -0.034 A 
HETATM    7  C8  UNL     1      23.459   3.832  50.001  1.00  0.00     0.011 A 
HETATM    8  C9  UNL     1      24.493   2.966  50.154  1.00  0.00     0.059 A 
HETATM    9  C10 UNL     1      25.144   2.744  51.312  1.00  0.00     0.053 A 
HETATM   10  C16 UNL     1      22.966   3.034  48.807  1.00  0.00     0.165 C 
HETATM   11  N4  UNL     1      22.374   1.810  49.411  1.00  0.00    -0.275 NA
HETATM   12  C17 UNL     1      22.550   1.551  50.689  1.00  0.00     0.129 C 
ENDROOT
BRANCH   9  13
HETATM   13  S1  UNL     1      26.429   1.883  52.085  1.00  0.00     0.256 S 
HETATM   14  O2  UNL     1      27.757   2.553  51.923  1.00  0.00    -0.201 OA
HETATM   15  O3  UNL     1      26.584   0.493  51.508  1.00  0.00    -0.201 OA
BRANCH  13  16
HETATM   16  N3  UNL     1      26.107   1.738  53.792  1.00  0.00    -0.292 N 
HETATM   17  H10 UNL     1      25.354   2.347  54.242  1.00  0.00     0.178 HD
BRANCH  16  18
HETATM   18  C11 UNL     1      26.832   0.822  54.594  1.00  0.00     0.100 C 
HETATM   19  C12 UNL     1      27.859   0.068  54.867  1.00  0.00     0.017 C 
BRANCH  19  20
HETATM   20  C13 UNL     1      29.047  -0.097  54.071  1.00  0.00    -0.000 C 
HETATM   21  C14 UNL     1      29.503  -1.135  53.394  1.00  0.00     0.004 C 
BRANCH  21  22
HETATM   22  C15 UNL     1      29.021  -2.516  53.167  1.00  0.00     0.249 C 
HETATM   23  F1  UNL     1      27.695  -2.463  52.753  1.00  0.00    -0.251 F 
ENDBRANCH  21  22
ENDBRANCH  19  20
ENDBRANCH  16  18
ENDBRANCH  13  16
ENDBRANCH   9  13
BRANCH   1  24
HETATM   24  C2  UNL     1      22.474   0.381  52.944  1.00  0.00     0.272 C 
HETATM   25  N1  UNL     1      21.266  -0.253  53.300  1.00  0.00    -0.360 N 
HETATM   26  C1  UNL     1      20.932  -1.367  54.139  1.00  0.00     0.149 C 
HETATM   27  H4  UNL     1      20.422   0.133  52.875  1.00  0.00     0.162 HD
HETATM   28  O1  UNL     1      23.144  -0.443  53.661  1.00  0.00    -0.266 OA
ENDBRANCH   1  24
BRANCH  12  29
HETATM   29  N5  UNL     1      21.651   0.536  50.184  1.00  0.00    -0.285 NA
HETATM   30  H19 UNL     1      20.926  -0.021  49.630  1.00  0.00     0.125 HD
HETATM   31  H20 UNL     1      20.898   0.155  49.519  1.00  0.00     0.125 HD
ENDBRANCH  12  29
TORSDOF 7
ENDMDL
MODEL 4
REMARK VINA RESULT:      -7.0      5.793      7.705
REMARK  7 active torsions:
REMARK  status: ('A' for Active; 'I' for Inactive)
REMARK       I    between atoms: N1_2  and  C2_3 
REMARK    1  A    between atoms: C2_3  and  C3_5 
REMARK    2  A    between atoms: C10_13  and  S1_14 
REMARK    3  A    between atoms: S1_14  and  N3_17 
REMARK    4  A    between atoms: N3_17  and  C11_18 
REMARK    5  A    between atoms: C12_19  and  C13_20 
REMARK    6  A    between atoms: C14_21  and  C15_22 
REMARK    7  A    between atoms: C17_26  and  N5_27 
ROOT
HETATM    1  C3  UNL     1      28.807   9.326  48.620  1.00  0.00     0.158 C 
HETATM    2  N2  UNL     1      29.373   9.241  47.466  1.00  0.00    -0.280 NA
HETATM    3  C4  UNL     1      28.975   8.271  46.418  1.00  0.00     0.166 C 
HETATM    4  C5  UNL     1      27.960   7.396  47.116  1.00  0.00     0.029 A 
HETATM    5  C6  UNL     1      26.779   7.895  46.742  1.00  0.00     0.035 A 
HETATM    6  C7  UNL     1      25.603   7.750  47.405  1.00  0.00    -0.034 A 
HETATM    7  C8  UNL     1      26.544   7.093  48.130  1.00  0.00     0.011 A 
HETATM    8  C9  UNL     1      27.744   6.584  48.509  1.00  0.00     0.059 A 
HETATM    9  C10 UNL     1      28.894   6.739  47.827  1.00  0.00     0.053 A 
HETATM   10  C16 UNL     1      26.077   7.073  49.575  1.00  0.00     0.165 C 
HETATM   11  N4  UNL     1      26.808   8.205  50.206  1.00  0.00    -0.275 NA
HETATM   12  C17 UNL     1      27.774   8.815  49.553  1.00  0.00     0.129 C 
ENDROOT
BRANCH   9  13
HETATM   13  S1  UNL     1      30.580   6.357  47.764  1.00  0.00     0.256 S 
HETATM   14  O2  UNL     1      31.172   6.564  46.406  1.00  0.00    -0.201 OA
HETATM   15  O3  UNL     1      30.827   4.906  48.117  1.00  0.00    -0.201 OA
BRANCH  13  16
HETATM   16  N3  UNL     1      31.459   7.356  48.890  1.00  0.00    -0.292 N 
HETATM   17  H10 UNL     1      30.947   7.804  49.712  1.00  0.00     0.178 HD
BRANCH  16  18
HETATM   18  C11 UNL     1      32.849   7.581  48.729  1.00  0.00     0.100 C 
HETATM   19  C12 UNL     1      34.091   7.199  48.637  1.00  0.00     0.017 C 
BRANCH  19  20
HETATM   20  C13 UNL     1      34.588   5.850  48.706  1.00  0.00    -0.000 C 
HETATM   21  C14 UNL     1      34.678   4.908  47.784  1.00  0.00     0.004 C 
BRANCH  21  22
HETATM   22  C15 UNL     1      34.325   4.827  46.349  1.00  0.00     0.249 C 
HETATM   23  F1  UNL     1      35.221   3.975  45.716  1.00  0.00    -0.251 F 
ENDBRANCH  21  22
ENDBRANCH  19  20
ENDBRANCH  16  18
ENDBRANCH  13  16
ENDBRANCH   9  13
BRANCH   1  24
HETATM   24  C2  UNL     1      29.687  10.396  49.000  1.00  0.00     0.272 C 
HETATM   25  N1  UNL     1      29.636  11.802  49.088  1.00  0.00    -0.360 N 
HETATM   26  C1  UNL     1      30.577  12.813  49.474  1.00  0.00     0.149 C 
HETATM   27  H4  UNL     1      28.743  12.229  48.840  1.00  0.00     0.162 HD
HETATM   28  O1  UNL     1      30.899  10.391  49.413  1.00  0.00    -0.266 OA
ENDBRANCH   1  24
BRANCH  12  29
HETATM   29  N5  UNL     1      27.588   9.546  50.787  1.00  0.00    -0.285 NA
HETATM   30  H19 UNL     1      27.267   9.891  51.747  1.00  0.00     0.125 HD
HETATM   31  H20 UNL     1      27.130   9.732  51.741  1.00  0.00     0.125 HD
ENDBRANCH  12  29
TORSDOF 7
ENDMDL
MODEL 5
REMARK VINA RESULT:      -7.0      2.096      2.814
REMARK  7 active torsions:
REMARK  status: ('A' for Active; 'I' for Inactive)
REMARK       I    between atoms: N1_2  and  C2_3 
REMARK    1  A    between atoms: C2_3  and  C3_5 
REMARK    2  A    between atoms: C10_13  and  S1_14 
REMARK    3  A    between atoms: S1_14  and  N3_17 
REMARK    4  A    between atoms: N3_17  and  C11_18 
REMARK    5  A    between atoms: C12_19  and  C13_20 
REMARK    6  A    between atoms: C14_21  and  C15_22 
REMARK    7  A    between atoms: C17_26  and  N5_27 
ROOT
HETATM    1  C3  UNL     1      25.309   4.474  50.202  1.00  0.00     0.158 C 
HETATM    2  N2  UNL     1      25.615   3.287  49.807  1.00  0.00    -0.280 NA
HETATM    3  C4  UNL     1      24.920   2.058  50.258  1.00  0.00     0.166 C 
HETATM    4  C5  UNL     1      23.990   2.558  51.339  1.00  0.00     0.029 A 
HETATM    5  C6  UNL     1      22.811   2.692  50.728  1.00  0.00     0.035 A 
HETATM    6  C7  UNL     1      21.788   3.489  51.129  1.00  0.00    -0.034 A 
HETATM    7  C8  UNL     1      22.789   3.657  52.029  1.00  0.00     0.011 A 
HETATM    8  C9  UNL     1      23.987   3.519  52.653  1.00  0.00     0.059 A 
HETATM    9  C10 UNL     1      24.983   2.715  52.234  1.00  0.00     0.053 A 
HETATM   10  C16 UNL     1      22.629   5.038  52.641  1.00  0.00     0.165 C 
HETATM   11  N4  UNL     1      23.578   5.886  51.871  1.00  0.00    -0.275 NA
HETATM   12  C17 UNL     1      24.444   5.332  51.049  1.00  0.00     0.129 C 
ENDROOT
BRANCH   9  13
HETATM   13  S1  UNL     1      26.575   2.125  52.561  1.00  0.00     0.256 S 
HETATM   14  O2  UNL     1      27.039   2.442  53.948  1.00  0.00    -0.201 OA
HETATM   15  O3  UNL     1      27.592   2.740  51.624  1.00  0.00    -0.201 OA
BRANCH  13  16
HETATM   16  N3  UNL     1      26.621   0.394  52.364  1.00  0.00    -0.292 N 
HETATM   17  H10 UNL     1      27.337  -0.045  51.705  1.00  0.00     0.178 HD
BRANCH  16  18
HETATM   18  C11 UNL     1      25.720  -0.442  53.069  1.00  0.00     0.100 C 
HETATM   19  C12 UNL     1      24.532  -0.833  53.433  1.00  0.00     0.017 C 
BRANCH  19  20
HETATM   20  C13 UNL     1      23.273  -0.261  53.033  1.00  0.00    -0.000 C 
HETATM   21  C14 UNL     1      22.096  -0.243  53.632  1.00  0.00     0.004 C 
BRANCH  21  22
HETATM   22  C15 UNL     1      21.577  -0.777  54.912  1.00  0.00     0.249 C 
HETATM   23  F1  UNL     1      20.751  -1.861  54.640  1.00  0.00    -0.251 F 
ENDBRANCH  21  22
ENDBRANCH  19  20
ENDBRANCH  16  18
ENDBRANCH  13  16
ENDBRANCH   9  13
BRANCH   1  24
HETATM   24  C2  UNL     1      26.346   5.042  49.387  1.00  0.00     0.272 C 
HETATM   25  N1  UNL     1      27.733   4.872  49.203  1.00  0.00    -0.360 N 
HETATM   26  C1  UNL     1      28.712   5.496  48.361  1.00  0.00     0.149 C 
HETATM   27  H4  UNL     1      28.170   4.144  49.770  1.00  0.00     0.162 HD
HETATM   28  O1  UNL     1      26.317   5.962  48.497  1.00  0.00    -0.266 OA
ENDBRANCH   1  24
BRANCH  12  29
HETATM   29  N5  UNL     1      24.586   6.763  50.890  1.00  0.00    -0.285 NA
HETATM   30  H19 UNL     1      24.542   7.775  50.549  1.00  0.00     0.125 HD
HETATM   31  H20 UNL     1      24.440   7.698  50.382  1.00  0.00     0.125 HD
ENDBRANCH  12  29
TORSDOF 7
ENDMDL
MODEL 6
REMARK VINA RESULT:      -6.9      3.704      6.290
REMARK  7 active torsions:
REMARK  status: ('A' for Active; 'I' for Inactive)
REMARK       I    between atoms: N1_2  and  C2_3 
REMARK    1  A    between atoms: C2_3  and  C3_5 
REMARK    2  A    between atoms: C10_13  and  S1_14 
REMARK    3  A    between atoms: S1_14  and  N3_17 
REMARK    4  A    between atoms: N3_17  and  C11_18 
REMARK    5  A    between atoms: C12_19  and  C13_20 
REMARK    6  A    between atoms: C14_21  and  C15_22 
REMARK    7  A    between atoms: C17_26  and  N5_27 
ROOT
HETATM    1  C3  UNL     1      22.296   3.014  52.410  1.00  0.00     0.158 C 
HETATM    2  N2  UNL     1      21.052   3.261  52.180  1.00  0.00    -0.280 NA
HETATM    3  C4  UNL     1      19.977   2.244  52.263  1.00  0.00     0.166 C 
HETATM    4  C5  UNL     1      20.731   0.953  52.480  1.00  0.00     0.029 A 
HETATM    5  C6  UNL     1      20.672   0.751  53.799  1.00  0.00     0.035 A 
HETATM    6  C7  UNL     1      21.527  -0.007  54.532  1.00  0.00    -0.034 A 
HETATM    7  C8  UNL     1      21.951  -0.074  53.245  1.00  0.00     0.011 A 
HETATM    8  C9  UNL     1      22.011   0.129  51.904  1.00  0.00     0.059 A 
HETATM    9  C10 UNL     1      21.144   0.883  51.202  1.00  0.00     0.053 A 
HETATM   10  C16 UNL     1      23.443  -0.361  53.269  1.00  0.00     0.165 C 
HETATM   11  N4  UNL     1      24.070   0.978  53.096  1.00  0.00    -0.275 NA
HETATM   12  C17 UNL     1      23.333   2.018  52.772  1.00  0.00     0.129 C 
ENDROOT
BRANCH   9  13
HETATM   13  S1  UNL     1      20.697   1.458  49.633  1.00  0.00     0.256 S 
HETATM   14  O2  UNL     1      19.228   1.347  49.371  1.00  0.00    -0.201 OA
HETATM   15  O3  UNL     1      21.382   0.665  48.542  1.00  0.00    -0.201 OA
BRANCH  13  16
HETATM   16  N3  UNL     1      21.147   3.133  49.462  1.00  0.00    -0.292 N 
HETATM   17  H10 UNL     1      20.567   3.889  49.943  1.00  0.00     0.178 HD
BRANCH  16  18
HETATM   18  C11 UNL     1      22.277   3.507  48.692  1.00  0.00     0.100 C 
HETATM   19  C12 UNL     1      23.556   3.613  48.471  1.00  0.00     0.017 C 
BRANCH  19  20
HETATM   20  C13 UNL     1      24.622   3.185  49.339  1.00  0.00    -0.000 C 
HETATM   21  C14 UNL     1      25.801   3.720  49.598  1.00  0.00     0.004 C 
BRANCH  21  22
HETATM   22  C15 UNL     1      26.512   4.933  49.132  1.00  0.00     0.249 C 
HETATM   23  F1  UNL     1      27.571   4.544  48.320  1.00  0.00    -0.251 F 
ENDBRANCH  21  22
ENDBRANCH  19  20
ENDBRANCH  16  18
ENDBRANCH  13  16
ENDBRANCH   9  13
BRANCH   1  24
HETATM   24  C2  UNL     1      22.642   4.382  52.144  1.00  0.00     0.272 C 
HETATM   25  N1  UNL     1      23.811   5.168  52.097  1.00  0.00    -0.360 N 
HETATM   26  C1  UNL     1      24.075   6.552  51.828  1.00  0.00     0.149 C 
HETATM   27  H4  UNL     1      24.686   4.674  52.279  1.00  0.00     0.162 HD
HETATM   28  O1  UNL     1      21.921   5.396  51.839  1.00  0.00    -0.266 OA
ENDBRANCH   1  24
BRANCH  12  29
HETATM   29  N5  UNL     1      24.670   2.519  53.002  1.00  0.00    -0.285 NA
HETATM   30  H19 UNL     1      25.577   2.887  53.432  1.00  0.00     0.125 HD
HETATM   31  H20 UNL     1      25.474   2.881  53.615  1.00  0.00     0.125 HD
ENDBRANCH  12  29
TORSDOF 7
ENDMDL
MODEL 7
REMARK VINA RESULT:      -6.6      3.379      5.042
REMARK  7 active torsions:
REMARK  status: ('A' for Active; 'I' for Inactive)
REMARK       I    between atoms: N1_2  and  C2_3 
REMARK    1  A    between atoms: C2_3  and  C3_5 
REMARK    2  A    between atoms: C10_13  and  S1_14 
REMARK    3  A    between atoms: S1_14  and  N3_17 
REMARK    4  A    between atoms: N3_17  and  C11_18 
REMARK    5  A    between atoms: C12_19  and  C13_20 
REMARK    6  A    between atoms: C14_21  and  C15_22 
REMARK    7  A    between atoms: C17_26  and  N5_27 
ROOT
HETATM    1  C3  UNL     1      21.124   3.870  50.456  1.00  0.00     0.158 C 
HETATM    2  N2  UNL     1      21.987   3.966  49.505  1.00  0.00    -0.280 NA
HETATM    3  C4  UNL     1      22.842   2.846  49.044  1.00  0.00     0.166 C 
HETATM    4  C5  UNL     1      22.558   1.753  50.048  1.00  0.00     0.029 A 
HETATM    5  C6  UNL     1      21.656   0.974  49.445  1.00  0.00     0.035 A 
HETATM    6  C7  UNL     1      20.785   0.134  50.061  1.00  0.00    -0.034 A 
HETATM    7  C8  UNL     1      21.512   0.729  51.040  1.00  0.00     0.011 A 
HETATM    8  C9  UNL     1      22.430   1.519  51.654  1.00  0.00     0.059 A 
HETATM    9  C10 UNL     1      23.286   2.340  51.015  1.00  0.00     0.053 A 
HETATM   10  C16 UNL     1      20.664   0.734  52.300  1.00  0.00     0.165 C 
HETATM   11  N4  UNL     1      20.064   2.095  52.327  1.00  0.00    -0.275 NA
HETATM   12  C17 UNL     1      20.484   3.020  51.489  1.00  0.00     0.129 C 
ENDROOT
BRANCH   9  13
HETATM   13  S1  UNL     1      24.586   3.466  51.195  1.00  0.00     0.256 S 
HETATM   14  O2  UNL     1      24.113   4.864  51.445  1.00  0.00    -0.201 OA
HETATM   15  O3  UNL     1      25.437   3.526  49.946  1.00  0.00    -0.201 OA
BRANCH  13  16
HETATM   16  N3  UNL     1      25.601   2.997  52.532  1.00  0.00    -0.292 N 
HETATM   17  H10 UNL     1      25.391   3.367  53.511  1.00  0.00     0.178 HD
BRANCH  16  18
HETATM   18  C11 UNL     1      26.703   2.128  52.337  1.00  0.00     0.100 C 
HETATM   19  C12 UNL     1      27.255   0.958  52.186  1.00  0.00     0.017 C 
BRANCH  19  20
HETATM   20  C13 UNL     1      26.588  -0.318  52.171  1.00  0.00    -0.000 C 
HETATM   21  C14 UNL     1      25.753  -0.873  53.030  1.00  0.00     0.004 C 
BRANCH  21  22
HETATM   22  C15 UNL     1      25.166  -0.452  54.323  1.00  0.00     0.249 C 
HETATM   23  F1  UNL     1      26.193  -0.275  55.241  1.00  0.00    -0.251 F 
ENDBRANCH  21  22
ENDBRANCH  19  20
ENDBRANCH  16  18
ENDBRANCH  13  16
ENDBRANCH   9  13
BRANCH   1  24
HETATM   24  C2  UNL     1      20.758   5.249  50.298  1.00  0.00     0.272 C 
HETATM   25  N1  UNL     1      21.384   6.508  50.391  1.00  0.00    -0.360 N 
HETATM   26  C1  UNL     1      20.938   7.861  50.225  1.00  0.00     0.149 C 
HETATM   27  H4  UNL     1      22.380   6.493  50.613  1.00  0.00     0.162 HD
HETATM   28  O1  UNL     1      19.641   5.801  49.998  1.00  0.00    -0.266 OA
ENDBRANCH   1  24
BRANCH  12  29
HETATM   29  N5  UNL     1      19.369   3.595  52.210  1.00  0.00    -0.285 NA
HETATM   30  H19 UNL     1      18.733   4.204  52.817  1.00  0.00     0.125 HD
HETATM   31  H20 UNL     1      18.906   4.315  52.859  1.00  0.00     0.125 HD
ENDBRANCH  12  29
TORSDOF 7
ENDMDL
MODEL 8
REMARK VINA RESULT:      -6.5      2.861      4.240
REMARK  7 active torsions:
REMARK  status: ('A' for Active; 'I' for Inactive)
REMARK       I    between atoms: N1_2  and  C2_3 
REMARK    1  A    between atoms: C2_3  and  C3_5 
REMARK    2  A    between atoms: C10_13  and  S1_14 
REMARK    3  A    between atoms: S1_14  and  N3_17 
REMARK    4  A    between atoms: N3_17  and  C11_18 
REMARK    5  A    between atoms: C12_19  and  C13_20 
REMARK    6  A    between atoms: C14_21  and  C15_22 
REMARK    7  A    between atoms: C17_26  and  N5_27 
ROOT
HETATM    1  C3  UNL     1      23.887   3.653  51.017  1.00  0.00     0.158 C 
HETATM    2  N2  UNL     1      23.987   2.788  50.068  1.00  0.00    -0.280 NA
HETATM    3  C4  UNL     1      23.479   3.003  48.692  1.00  0.00     0.166 C 
HETATM    4  C5  UNL     1      22.727   4.310  48.796  1.00  0.00     0.029 A 
HETATM    5  C6  UNL     1      23.588   5.226  48.347  1.00  0.00     0.035 A 
HETATM    6  C7  UNL     1      23.563   6.554  48.628  1.00  0.00    -0.034 A 
HETATM    7  C8  UNL     1      22.517   5.995  49.287  1.00  0.00     0.011 A 
HETATM    8  C9  UNL     1      21.640   5.065  49.743  1.00  0.00     0.059 A 
HETATM    9  C10 UNL     1      21.686   3.753  49.443  1.00  0.00     0.053 A 
HETATM   10  C16 UNL     1      22.213   6.873  50.489  1.00  0.00     0.165 C 
HETATM   11  N4  UNL     1      22.905   6.192  51.617  1.00  0.00    -0.275 NA
HETATM   12  C17 UNL     1      23.411   4.988  51.453  1.00  0.00     0.129 C 
ENDROOT
BRANCH   9  13
HETATM   13  S1  UNL     1      20.929   2.213  49.652  1.00  0.00     0.256 S 
HETATM   14  O2  UNL     1      21.248   1.254  48.549  1.00  0.00    -0.201 OA
HETATM   15  O3  UNL     1      19.421   2.342  49.676  1.00  0.00    -0.201 OA
BRANCH  13  16
HETATM   16  N3  UNL     1      21.444   1.494  51.154  1.00  0.00    -0.292 N 
HETATM   17  H10 UNL     1      22.370   1.793  51.593  1.00  0.00     0.178 HD
BRANCH  16  18
HETATM   18  C11 UNL     1      20.649   0.516  51.802  1.00  0.00     0.100 C 
HETATM   19  C12 UNL     1      20.202  -0.120  52.847  1.00  0.00     0.017 C 
BRANCH  19  20
HETATM   20  C13 UNL     1      20.561   0.116  54.221  1.00  0.00    -0.000 C 
HETATM   21  C14 UNL     1      21.551  -0.357  54.956  1.00  0.00     0.004 C 
BRANCH  21  22
HETATM   22  C15 UNL     1      22.671  -1.292  54.704  1.00  0.00     0.249 C 
HETATM   23  F1  UNL     1      23.799  -0.556  54.364  1.00  0.00    -0.251 F 
ENDBRANCH  21  22
ENDBRANCH  19  20
ENDBRANCH  16  18
ENDBRANCH  13  16
ENDBRANCH   9  13
BRANCH   1  24
HETATM   24  C2  UNL     1      24.553   2.768  51.930  1.00  0.00     0.272 C 
HETATM   25  N1  UNL     1      25.518   2.864  52.953  1.00  0.00    -0.360 N 
HETATM   26  C1  UNL     1      26.147   1.914  53.825  1.00  0.00     0.149 C 
HETATM   27  H4  UNL     1      25.859   3.804  53.154  1.00  0.00     0.162 HD
HETATM   28  O1  UNL     1      24.462   1.502  52.103  1.00  0.00    -0.266 OA
ENDBRANCH   1  24
BRANCH  12  29
HETATM   29  N5  UNL     1      23.792   5.416  52.781  1.00  0.00    -0.285 NA
HETATM   30  H19 UNL     1      24.280   5.559  53.722  1.00  0.00     0.125 HD
HETATM   31  H20 UNL     1      24.413   5.410  53.658  1.00  0.00     0.125 HD
ENDBRANCH  12  29
TORSDOF 7
ENDMDL
MODEL 9
REMARK VINA RESULT:      -6.4      2.916      4.879
REMARK  7 active torsions:
REMARK  status: ('A' for Active; 'I' for Inactive)
REMARK       I    between atoms: N1_2  and  C2_3 
REMARK    1  A    between atoms: C2_3  and  C3_5 
REMARK    2  A    between atoms: C10_13  and  S1_14 
REMARK    3  A    between atoms: S1_14  and  N3_17 
REMARK    4  A    between atoms: N3_17  and  C11_18 
REMARK    5  A    between atoms: C12_19  and  C13_20 
REMARK    6  A    between atoms: C14_21  and  C15_22 
REMARK    7  A    between atoms: C17_26  and  N5_27 
ROOT
HETATM    1  C3  UNL     1      21.595   3.921  51.072  1.00  0.00     0.158 C 
HETATM    2  N2  UNL     1      22.033   4.074  52.274  1.00  0.00    -0.280 NA
HETATM    3  C4  UNL     1      23.235   4.868  52.623  1.00  0.00     0.166 C 
HETATM    4  C5  UNL     1      23.820   5.229  51.278  1.00  0.00     0.029 A 
HETATM    5  C6  UNL     1      23.383   6.470  51.047  1.00  0.00     0.035 A 
HETATM    6  C7  UNL     1      23.270   7.065  49.832  1.00  0.00    -0.034 A 
HETATM    7  C8  UNL     1      23.747   5.814  49.611  1.00  0.00     0.011 A 
HETATM    8  C9  UNL     1      24.194   4.554  49.845  1.00  0.00     0.059 A 
HETATM    9  C10 UNL     1      24.301   3.991  51.064  1.00  0.00     0.053 A 
HETATM   10  C16 UNL     1      23.334   5.408  48.207  1.00  0.00     0.165 C 
HETATM   11  N4  UNL     1      22.112   4.585  48.415  1.00  0.00    -0.275 NA
HETATM   12  C17 UNL     1      21.765   4.210  49.628  1.00  0.00     0.129 C 
ENDROOT
BRANCH   9  13
HETATM   13  S1  UNL     1      24.778   2.585  51.950  1.00  0.00     0.256 S 
HETATM   14  O2  UNL     1      24.961   2.852  53.410  1.00  0.00    -0.201 OA
HETATM   15  O3  UNL     1      26.101   2.044  51.451  1.00  0.00    -0.201 OA
BRANCH  13  16
HETATM   16  N3  UNL     1      23.574   1.336  51.780  1.00  0.00    -0.292 N 
HETATM   17  H10 UNL     1      22.957   1.311  50.908  1.00  0.00     0.178 HD
BRANCH  16  18
HETATM   18  C11 UNL     1      23.401   0.351  52.784  1.00  0.00     0.100 C 
HETATM   19  C12 UNL     1      23.821  -0.429  53.738  1.00  0.00     0.017 C 
BRANCH  19  20
HETATM   20  C13 UNL     1      25.167  -0.536  54.238  1.00  0.00    -0.000 C 
HETATM   21  C14 UNL     1      26.277  -0.962  53.664  1.00  0.00     0.004 C 
BRANCH  21  22
HETATM   22  C15 UNL     1      26.611  -1.492  52.322  1.00  0.00     0.249 C 
HETATM   23  F1  UNL     1      27.228  -2.728  52.472  1.00  0.00    -0.251 F 
ENDBRANCH  21  22
ENDBRANCH  19  20
ENDBRANCH  16  18
ENDBRANCH  13  16
ENDBRANCH   9  13
BRANCH   1  24
HETATM   24  C2  UNL     1      20.512   3.105  51.544  1.00  0.00     0.272 C 
HETATM   25  N1  UNL     1      19.917   1.872  51.207  1.00  0.00    -0.360 N 
HETATM   26  C1  UNL     1      18.814   1.119  51.731  1.00  0.00     0.149 C 
HETATM   27  H4  UNL     1      20.347   1.369  50.430  1.00  0.00     0.162 HD
HETATM   28  O1  UNL     1      19.681   3.270  52.504  1.00  0.00    -0.266 OA
ENDBRANCH   1  24
BRANCH  12  29
HETATM   29  N5  UNL     1      20.707   3.771  48.744  1.00  0.00    -0.285 NA
HETATM   30  H19 UNL     1      19.844   3.310  48.313  1.00  0.00     0.125 HD
HETATM   31  H20 UNL     1      19.822   3.213  48.498  1.00  0.00     0.125 HD
ENDBRANCH  12  29
TORSDOF 7
ENDMDL
