MODEL 1
REMARK VINA RESULT:      -8.9      0.000      0.000
REMARK  5 active torsions:
REMARK  status: ('A' for Active; 'I' for Inactive)
REMARK    1  A    between atoms: C3_4  and  C4_5 
REMARK    2  A    between atoms: C4_5  and  C5_6 
REMARK    3  A    between atoms: C5_6  and  C6_7 
REMARK    4  A    between atoms: C13_15  and  C14_16 
REMARK    5  A    between atoms: N1_19  and  C17_20 
ROOT
HETATM    1  C6  UNL     1      26.478   2.008  51.681  1.00  0.00     0.031 C 
HETATM    2  C7  UNL     1      26.768   0.669  51.561  1.00  0.00     0.080 C 
HETATM    3  C8  UNL     1      26.740  -0.695  52.276  1.00  0.00     0.164 C 
HETATM    4  O1  UNL     1      27.050  -1.885  52.055  1.00  0.00    -0.292 OA
HETATM    5  C9  UNL     1      26.140  -0.151  53.542  1.00  0.00     0.051 A 
HETATM    6  C10 UNL     1      27.326   0.281  54.050  1.00  0.00    -0.027 A 
HETATM    7  C11 UNL     1      26.315   1.120  54.350  1.00  0.00     0.041 A 
HETATM    8  C12 UNL     1      25.011   0.818  53.902  1.00  0.00     0.017 A 
HETATM    9  C13 UNL     1      23.903   0.344  53.396  1.00  0.00    -0.079 A 
HETATM   10  C22 UNL     1      24.907  -0.506  53.074  1.00  0.00     0.047 A 
HETATM   11  C23 UNL     1      24.770   2.296  53.667  1.00  0.00     0.135 C 
HETATM   12  N2  UNL     1      25.936   2.736  52.820  1.00  0.00    -0.389 N 
HETATM   13  H27 UNL     1      26.425   3.632  53.028  1.00  0.00     0.159 HD
ENDROOT
BRANCH   9  14
HETATM   14  C14 UNL     1      22.500   0.671  53.340  1.00  0.00     0.015 C 
HETATM   15  C15 UNL     1      21.603  -0.242  54.155  1.00  0.00     0.039 C 
HETATM   16  C16 UNL     1      20.266   0.459  54.229  1.00  0.00     0.273 C 
HETATM   17  N1  UNL     1      19.687   0.681  52.933  1.00  0.00     0.097 N 
HETATM   18  C20 UNL     1      20.581   1.326  52.005  1.00  0.00     0.273 C 
HETATM   19  C21 UNL     1      21.936   0.677  51.942  1.00  0.00     0.039 C 
BRANCH  17  20
HETATM   20  C17 UNL     1      19.063  -0.493  52.380  1.00  0.00     0.270 C 
HETATM   21  C18 UNL     1      17.755  -0.182  51.714  1.00  0.00     0.205 C 
HETATM   22  O2  UNL     1      17.286  -1.412  52.194  1.00  0.00    -0.387 OA
HETATM   23  C19 UNL     1      18.109  -1.196  53.318  1.00  0.00     0.205 C 
ENDBRANCH  17  20
ENDBRANCH   9  14
BRANCH   1  24
HETATM   24  C5  UNL     1      26.796   2.771  50.494  1.00  0.00     0.029 C 
BRANCH  24  25
HETATM   25  C4  UNL     1      26.697   3.354  49.354  1.00  0.00     0.004 C 
BRANCH  25  26
HETATM   26  C3  UNL     1      26.539   4.793  49.062  1.00  0.00     0.019 C 
HETATM   27  C2  UNL     1      27.293   5.744  48.609  1.00  0.00     0.008 C 
HETATM   28  C1  UNL     1      28.677   5.416  48.270  1.00  0.00     0.062 C 
HETATM   29 CL1  UNL     1      26.768   7.380  48.384  1.00  0.00    -0.089 Cl
ENDBRANCH  25  26
ENDBRANCH  24  25
ENDBRANCH   1  24
TORSDOF 5
ENDMDL
MODEL 2
REMARK VINA RESULT:      -8.7      1.500      1.923
REMARK  5 active torsions:
REMARK  status: ('A' for Active; 'I' for Inactive)
REMARK    1  A    between atoms: C3_4  and  C4_5 
REMARK    2  A    between atoms: C4_5  and  C5_6 
REMARK    3  A    between atoms: C5_6  and  C6_7 
REMARK    4  A    between atoms: C13_15  and  C14_16 
REMARK    5  A    between atoms: N1_19  and  C17_20 
ROOT
HETATM    1  C6  UNL     1      25.851   3.129  50.887  1.00  0.00     0.031 C 
HETATM    2  C7  UNL     1      26.218   1.838  51.182  1.00  0.00     0.080 C 
HETATM    3  C8  UNL     1      26.020   0.664  52.161  1.00  0.00     0.164 C 
HETATM    4  O1  UNL     1      26.433  -0.504  52.332  1.00  0.00    -0.292 OA
HETATM    5  C9  UNL     1      25.028   1.394  53.022  1.00  0.00     0.051 A 
HETATM    6  C10 UNL     1      25.975   2.056  53.742  1.00  0.00    -0.027 A 
HETATM    7  C11 UNL     1      24.887   2.820  53.517  1.00  0.00     0.041 A 
HETATM    8  C12 UNL     1      23.806   2.284  52.786  1.00  0.00     0.017 A 
HETATM    9  C13 UNL     1      22.935   1.591  52.101  1.00  0.00    -0.079 A 
HETATM   10  C22 UNL     1      24.023   0.810  52.306  1.00  0.00     0.047 A 
HETATM   11  C23 UNL     1      23.592   3.641  52.145  1.00  0.00     0.135 C 
HETATM   12  N2  UNL     1      24.947   4.018  51.605  1.00  0.00    -0.389 N 
HETATM   13  H27 UNL     1      25.308   4.988  51.730  1.00  0.00     0.159 HD
ENDROOT
BRANCH   9  14
HETATM   14  C14 UNL     1      21.609   1.738  51.552  1.00  0.00     0.015 C 
HETATM   15  C15 UNL     1      20.487   1.604  52.563  1.00  0.00     0.039 C 
HETATM   16  C16 UNL     1      19.247   2.114  51.866  1.00  0.00     0.273 C 
HETATM   17  N1  UNL     1      18.930   1.362  50.684  1.00  0.00     0.097 N 
HETATM   18  C20 UNL     1      20.039   1.222  49.774  1.00  0.00     0.273 C 
HETATM   19  C21 UNL     1      21.301   0.759  50.448  1.00  0.00     0.039 C 
BRANCH  17  20
HETATM   20  C17 UNL     1      18.281   0.107  50.965  1.00  0.00     0.270 C 
HETATM   21  C18 UNL     1      17.148  -0.171  50.021  1.00  0.00     0.205 C 
HETATM   22  O2  UNL     1      16.469  -0.751  51.100  1.00  0.00    -0.387 OA
HETATM   23  C19 UNL     1      17.107   0.207  51.913  1.00  0.00     0.205 C 
ENDBRANCH  17  20
ENDBRANCH   9  14
BRANCH   1  24
HETATM   24  C5  UNL     1      26.497   3.652  49.704  1.00  0.00     0.029 C 
BRANCH  24  25
HETATM   25  C4  UNL     1      27.257   4.340  48.930  1.00  0.00     0.004 C 
BRANCH  25  26
HETATM   26  C3  UNL     1      27.157   5.768  48.568  1.00  0.00     0.019 C 
HETATM   27  C2  UNL     1      27.960   6.676  48.113  1.00  0.00     0.008 C 
HETATM   28  C1  UNL     1      29.349   6.295  47.859  1.00  0.00     0.062 C 
HETATM   29 CL1  UNL     1      27.498   8.315  47.790  1.00  0.00    -0.089 Cl
ENDBRANCH  25  26
ENDBRANCH  24  25
ENDBRANCH   1  24
TORSDOF 5
ENDMDL
MODEL 3
REMARK VINA RESULT:      -8.2      1.828      2.402
REMARK  5 active torsions:
REMARK  status: ('A' for Active; 'I' for Inactive)
REMARK    1  A    between atoms: C3_4  and  C4_5 
REMARK    2  A    between atoms: C4_5  and  C5_6 
REMARK    3  A    between atoms: C5_6  and  C6_7 
REMARK    4  A    between atoms: C13_15  and  C14_16 
REMARK    5  A    between atoms: N1_19  and  C17_20 
ROOT
HETATM    1  C6  UNL     1      26.118   2.858  51.119  1.00  0.00     0.031 C 
HETATM    2  C7  UNL     1      26.734   1.657  51.379  1.00  0.00     0.080 C 
HETATM    3  C8  UNL     1      26.811   0.465  52.353  1.00  0.00     0.164 C 
HETATM    4  O1  UNL     1      27.442  -0.605  52.489  1.00  0.00    -0.292 OA
HETATM    5  C9  UNL     1      25.747   0.996  53.272  1.00  0.00     0.051 A 
HETATM    6  C10 UNL     1      26.590   1.821  53.950  1.00  0.00    -0.027 A 
HETATM    7  C11 UNL     1      25.369   2.370  53.791  1.00  0.00     0.041 A 
HETATM    8  C12 UNL     1      24.370   1.642  53.111  1.00  0.00     0.017 A 
HETATM    9  C13 UNL     1      23.608   0.800  52.463  1.00  0.00    -0.079 A 
HETATM   10  C22 UNL     1      24.832   0.236  52.603  1.00  0.00     0.047 A 
HETATM   11  C23 UNL     1      23.873   2.937  52.498  1.00  0.00     0.135 C 
HETATM   12  N2  UNL     1      25.104   3.562  51.893  1.00  0.00    -0.389 N 
HETATM   13  H27 UNL     1      25.285   4.581  52.010  1.00  0.00     0.159 HD
ENDROOT
BRANCH   9  14
HETATM   14  C14 UNL     1      22.251   0.699  51.986  1.00  0.00     0.015 C 
HETATM   15  C15 UNL     1      21.960   1.496  50.729  1.00  0.00     0.039 C 
HETATM   16  C16 UNL     1      20.626   0.994  50.227  1.00  0.00     0.273 C 
HETATM   17  N1  UNL     1      19.569   1.186  51.181  1.00  0.00     0.097 N 
HETATM   18  C20 UNL     1      19.877   0.674  52.492  1.00  0.00     0.273 C 
HETATM   19  C21 UNL     1      21.220   1.121  53.001  1.00  0.00     0.039 C 
BRANCH  17  20
HETATM   20  C17 UNL     1      19.072   2.537  51.214  1.00  0.00     0.270 C 
HETATM   21  C18 UNL     1      17.583   2.590  51.393  1.00  0.00     0.205 C 
HETATM   22  O2  UNL     1      17.579   3.699  50.536  1.00  0.00    -0.387 OA
HETATM   23  C19 UNL     1      18.657   3.085  49.867  1.00  0.00     0.205 C 
ENDBRANCH  17  20
ENDBRANCH   9  14
BRANCH   1  24
HETATM   24  C5  UNL     1      26.592   3.495  49.910  1.00  0.00     0.029 C 
BRANCH  24  25
HETATM   25  C4  UNL     1      26.773   4.353  48.972  1.00  0.00     0.004 C 
BRANCH  25  26
HETATM   26  C3  UNL     1      28.032   4.987  48.530  1.00  0.00     0.019 C 
HETATM   27  C2  UNL     1      28.403   6.170  48.157  1.00  0.00     0.008 C 
HETATM   28  C1  UNL     1      27.392   7.226  48.130  1.00  0.00     0.062 C 
HETATM   29 CL1  UNL     1      30.018   6.582  47.685  1.00  0.00    -0.089 Cl
ENDBRANCH  25  26
ENDBRANCH  24  25
ENDBRANCH   1  24
TORSDOF 5
ENDMDL
MODEL 4
REMARK VINA RESULT:      -7.7      9.546     11.406
REMARK  5 active torsions:
REMARK  status: ('A' for Active; 'I' for Inactive)
REMARK    1  A    between atoms: C3_4  and  C4_5 
REMARK    2  A    between atoms: C4_5  and  C5_6 
REMARK    3  A    between atoms: C5_6  and  C6_7 
REMARK    4  A    between atoms: C13_15  and  C14_16 
REMARK    5  A    between atoms: N1_19  and  C17_20 
ROOT
HETATM    1  C6  UNL     1      34.110   4.695  45.075  1.00  0.00     0.031 C 
HETATM    2  C7  UNL     1      33.580   3.529  45.572  1.00  0.00     0.080 C 
HETATM    3  C8  UNL     1      33.154   2.782  46.851  1.00  0.00     0.164 C 
HETATM    4  O1  UNL     1      32.672   1.679  47.186  1.00  0.00    -0.292 OA
HETATM    5  C9  UNL     1      33.527   3.909  47.773  1.00  0.00     0.051 A 
HETATM    6  C10 UNL     1      34.847   3.581  47.819  1.00  0.00    -0.027 A 
HETATM    7  C11 UNL     1      34.660   4.916  47.830  1.00  0.00     0.041 A 
HETATM    8  C12 UNL     1      33.345   5.428  47.791  1.00  0.00     0.017 A 
HETATM    9  C13 UNL     1      32.063   5.676  47.756  1.00  0.00    -0.079 A 
HETATM   10  C22 UNL     1      32.230   4.332  47.732  1.00  0.00     0.047 A 
HETATM   11  C23 UNL     1      33.835   6.563  46.914  1.00  0.00     0.135 C 
HETATM   12  N2  UNL     1      34.569   5.878  45.790  1.00  0.00    -0.389 N 
HETATM   13  H27 UNL     1      35.486   6.249  45.462  1.00  0.00     0.159 HD
ENDROOT
BRANCH   9  14
HETATM   14  C14 UNL     1      31.167   6.807  47.767  1.00  0.00     0.015 C 
HETATM   15  C15 UNL     1      31.053   7.511  49.105  1.00  0.00     0.039 C 
HETATM   16  C16 UNL     1      30.357   8.822  48.818  1.00  0.00     0.273 C 
HETATM   17  N1  UNL     1      29.050   8.640  48.251  1.00  0.00     0.097 N 
HETATM   18  C20 UNL     1      29.035   7.762  47.108  1.00  0.00     0.273 C 
HETATM   19  C21 UNL     1      29.760   6.467  47.349  1.00  0.00     0.039 C 
BRANCH  17  20
HETATM   20  C17 UNL     1      28.048   8.298  49.228  1.00  0.00     0.270 C 
HETATM   21  C18 UNL     1      26.656   8.531  48.720  1.00  0.00     0.205 C 
HETATM   22  O2  UNL     1      26.314   8.936  50.017  1.00  0.00    -0.387 OA
HETATM   23  C19 UNL     1      27.624   9.445  50.117  1.00  0.00     0.205 C 
ENDBRANCH  17  20
ENDBRANCH   9  14
BRANCH   1  24
HETATM   24  C5  UNL     1      34.240   4.698  43.634  1.00  0.00     0.029 C 
BRANCH  24  25
HETATM   25  C4  UNL     1      34.011   4.907  42.388  1.00  0.00     0.004 C 
BRANCH  25  26
HETATM   26  C3  UNL     1      32.988   4.290  41.520  1.00  0.00     0.019 C 
HETATM   27  C2  UNL     1      32.962   3.365  40.615  1.00  0.00     0.008 C 
HETATM   28  C1  UNL     1      34.219   2.693  40.290  1.00  0.00     0.062 C 
HETATM   29 CL1  UNL     1      31.536   2.875  39.760  1.00  0.00    -0.089 Cl
ENDBRANCH  25  26
ENDBRANCH  24  25
ENDBRANCH   1  24
TORSDOF 5
ENDMDL
MODEL 5
REMARK VINA RESULT:      -7.6      3.840      6.910
REMARK  5 active torsions:
REMARK  status: ('A' for Active; 'I' for Inactive)
REMARK    1  A    between atoms: C3_4  and  C4_5 
REMARK    2  A    between atoms: C4_5  and  C5_6 
REMARK    3  A    between atoms: C5_6  and  C6_7 
REMARK    4  A    between atoms: C13_15  and  C14_16 
REMARK    5  A    between atoms: N1_19  and  C17_20 
ROOT
HETATM    1  C6  UNL     1      22.446   2.720  49.732  1.00  0.00     0.031 C 
HETATM    2  C7  UNL     1      23.004   3.945  50.010  1.00  0.00     0.080 C 
HETATM    3  C8  UNL     1      23.364   4.941  51.129  1.00  0.00     0.164 C 
HETATM    4  O1  UNL     1      23.884   6.070  51.259  1.00  0.00    -0.292 OA
HETATM    5  C9  UNL     1      22.841   4.068  52.236  1.00  0.00     0.051 A 
HETATM    6  C10 UNL     1      21.546   4.454  52.077  1.00  0.00    -0.027 A 
HETATM    7  C11 UNL     1      21.647   3.149  52.400  1.00  0.00     0.041 A 
HETATM    8  C12 UNL     1      22.924   2.585  52.605  1.00  0.00     0.017 A 
HETATM    9  C13 UNL     1      24.187   2.281  52.752  1.00  0.00    -0.079 A 
HETATM   10  C22 UNL     1      24.108   3.591  52.417  1.00  0.00     0.047 A 
HETATM   11  C23 UNL     1      22.442   1.304  51.955  1.00  0.00     0.135 C 
HETATM   12  N2  UNL     1      21.852   1.749  50.641  1.00  0.00    -0.389 N 
HETATM   13  H27 UNL     1      20.946   1.353  50.314  1.00  0.00     0.159 HD
ENDROOT
BRANCH   9  14
HETATM   14  C14 UNL     1      25.004   1.145  53.100  1.00  0.00     0.015 C 
HETATM   15  C15 UNL     1      26.028   1.411  54.187  1.00  0.00     0.039 C 
HETATM   16  C16 UNL     1      26.524   0.051  54.622  1.00  0.00     0.273 C 
HETATM   17  N1  UNL     1      27.133  -0.683  53.548  1.00  0.00     0.097 N 
HETATM   18  C20 UNL     1      26.312  -0.764  52.366  1.00  0.00     0.273 C 
HETATM   19  C21 UNL     1      25.766   0.570  51.935  1.00  0.00     0.039 C 
BRANCH  17  20
HETATM   20  C17 UNL     1      28.480  -0.261  53.262  1.00  0.00     0.270 C 
HETATM   21  C18 UNL     1      29.464  -1.390  53.367  1.00  0.00     0.205 C 
HETATM   22  O2  UNL     1      30.378  -0.465  53.890  1.00  0.00    -0.387 OA
HETATM   23  C19 UNL     1      29.269   0.179  54.474  1.00  0.00     0.205 C 
ENDBRANCH  17  20
ENDBRANCH   9  14
BRANCH   1  24
HETATM   24  C5  UNL     1      22.442   2.399  48.322  1.00  0.00     0.029 C 
BRANCH  24  25
HETATM   25  C4  UNL     1      22.380   2.511  47.044  1.00  0.00     0.004 C 
BRANCH  25  26
HETATM   26  C3  UNL     1      21.843   3.627  46.239  1.00  0.00     0.019 C 
HETATM   27  C2  UNL     1      20.670   4.094  45.953  1.00  0.00     0.008 C 
HETATM   28  C1  UNL     1      19.507   3.414  46.521  1.00  0.00     0.062 C 
HETATM   29 CL1  UNL     1      20.389   5.469  44.937  1.00  0.00    -0.089 Cl
ENDBRANCH  25  26
ENDBRANCH  24  25
ENDBRANCH   1  24
TORSDOF 5
ENDMDL
MODEL 6
REMARK VINA RESULT:      -7.5      4.147      8.230
REMARK  5 active torsions:
REMARK  status: ('A' for Active; 'I' for Inactive)
REMARK    1  A    between atoms: C3_4  and  C4_5 
REMARK    2  A    between atoms: C4_5  and  C5_6 
REMARK    3  A    between atoms: C5_6  and  C6_7 
REMARK    4  A    between atoms: C13_15  and  C14_16 
REMARK    5  A    between atoms: N1_19  and  C17_20 
ROOT
HETATM    1  C6  UNL     1      24.274   2.453  52.286  1.00  0.00     0.031 C 
HETATM    2  C7  UNL     1      23.565   1.672  51.403  1.00  0.00     0.080 C 
HETATM    3  C8  UNL     1      22.428   1.661  50.363  1.00  0.00     0.164 C 
HETATM    4  O1  UNL     1      21.851   0.855  49.602  1.00  0.00    -0.292 OA
HETATM    5  C9  UNL     1      22.120   3.125  50.511  1.00  0.00     0.051 A 
HETATM    6  C10 UNL     1      21.340   2.962  51.614  1.00  0.00    -0.027 A 
HETATM    7  C11 UNL     1      22.067   4.096  51.674  1.00  0.00     0.041 A 
HETATM    8  C12 UNL     1      22.929   4.420  50.604  1.00  0.00     0.017 A 
HETATM    9  C13 UNL     1      23.646   4.521  49.517  1.00  0.00    -0.079 A 
HETATM   10  C22 UNL     1      22.933   3.372  49.442  1.00  0.00     0.047 A 
HETATM   11  C23 UNL     1      23.926   4.974  51.603  1.00  0.00     0.135 C 
HETATM   12  N2  UNL     1      24.111   3.864  52.605  1.00  0.00    -0.389 N 
HETATM   13  H27 UNL     1      24.132   4.079  53.625  1.00  0.00     0.159 HD
ENDROOT
BRANCH   9  14
HETATM   14  C14 UNL     1      24.587   5.430  48.908  1.00  0.00     0.015 C 
HETATM   15  C15 UNL     1      25.978   5.400  49.512  1.00  0.00     0.039 C 
HETATM   16  C16 UNL     1      26.860   6.148  48.540  1.00  0.00     0.273 C 
HETATM   17  N1  UNL     1      26.442   7.509  48.349  1.00  0.00     0.097 N 
HETATM   18  C20 UNL     1      25.045   7.641  48.017  1.00  0.00     0.273 C 
HETATM   19  C21 UNL     1      24.143   6.870  48.941  1.00  0.00     0.039 C 
BRANCH  17  20
HETATM   20  C17 UNL     1      26.844   8.384  49.420  1.00  0.00     0.270 C 
HETATM   21  C18 UNL     1      26.466   9.813  49.158  1.00  0.00     0.205 C 
HETATM   22  O2  UNL     1      27.666  10.182  49.780  1.00  0.00    -0.387 OA
HETATM   23  C19 UNL     1      28.214   8.999  49.244  1.00  0.00     0.205 C 
ENDBRANCH  17  20
ENDBRANCH   9  14
BRANCH   1  24
HETATM   24  C5  UNL     1      25.300   1.724  52.998  1.00  0.00     0.029 C 
BRANCH  24  25
HETATM   25  C4  UNL     1      25.965   1.157  53.939  1.00  0.00     0.004 C 
BRANCH  25  26
HETATM   26  C3  UNL     1      27.315   0.560  53.886  1.00  0.00     0.019 C 
HETATM   27  C2  UNL     1      27.842  -0.519  53.403  1.00  0.00     0.008 C 
HETATM   28  C1  UNL     1      26.961  -1.460  52.712  1.00  0.00     0.062 C 
HETATM   29 CL1  UNL     1      29.522  -0.924  53.525  1.00  0.00    -0.089 Cl
ENDBRANCH  25  26
ENDBRANCH  24  25
ENDBRANCH   1  24
TORSDOF 5
ENDMDL
MODEL 7
REMARK VINA RESULT:      -7.2      4.480      9.154
REMARK  5 active torsions:
REMARK  status: ('A' for Active; 'I' for Inactive)
REMARK    1  A    between atoms: C3_4  and  C4_5 
REMARK    2  A    between atoms: C4_5  and  C5_6 
REMARK    3  A    between atoms: C5_6  and  C6_7 
REMARK    4  A    between atoms: C13_15  and  C14_16 
REMARK    5  A    between atoms: N1_19  and  C17_20 
ROOT
HETATM    1  C6  UNL     1      24.425   3.305  51.456  1.00  0.00     0.031 C 
HETATM    2  C7  UNL     1      23.938   2.684  50.331  1.00  0.00     0.080 C 
HETATM    3  C8  UNL     1      23.065   2.860  49.072  1.00  0.00     0.164 C 
HETATM    4  O1  UNL     1      22.678   2.192  48.090  1.00  0.00    -0.292 OA
HETATM    5  C9  UNL     1      22.725   4.295  49.365  1.00  0.00     0.051 A 
HETATM    6  C10 UNL     1      21.717   3.995  50.228  1.00  0.00    -0.027 A 
HETATM    7  C11 UNL     1      22.407   5.085  50.619  1.00  0.00     0.041 A 
HETATM    8  C12 UNL     1      23.487   5.537  49.831  1.00  0.00     0.017 A 
HETATM    9  C13 UNL     1      24.431   5.776  48.959  1.00  0.00    -0.079 A 
HETATM   10  C22 UNL     1      23.758   4.673  48.555  1.00  0.00     0.047 A 
HETATM   11  C23 UNL     1      24.231   5.909  51.099  1.00  0.00     0.135 C 
HETATM   12  N2  UNL     1      24.188   4.659  51.939  1.00  0.00    -0.389 N 
HETATM   13  H27 UNL     1      23.978   4.720  52.958  1.00  0.00     0.159 HD
ENDROOT
BRANCH   9  14
HETATM   14  C14 UNL     1      25.481   6.736  48.721  1.00  0.00     0.015 C 
HETATM   15  C15 UNL     1      25.255   7.638  47.522  1.00  0.00     0.039 C 
HETATM   16  C16 UNL     1      26.268   8.751  47.652  1.00  0.00     0.273 C 
HETATM   17  N1  UNL     1      27.621   8.269  47.650  1.00  0.00     0.097 N 
HETATM   18  C20 UNL     1      27.858   7.213  48.602  1.00  0.00     0.273 C 
HETATM   19  C21 UNL     1      26.838   6.110  48.527  1.00  0.00     0.039 C 
BRANCH  17  20
HETATM   20  C17 UNL     1      28.110   7.950  46.333  1.00  0.00     0.270 C 
HETATM   21  C18 UNL     1      29.609   7.945  46.269  1.00  0.00     0.205 C 
HETATM   22  O2  UNL     1      29.496   8.483  44.980  1.00  0.00    -0.387 OA
HETATM   23  C19 UNL     1      28.347   9.151  45.446  1.00  0.00     0.205 C 
ENDBRANCH  17  20
ENDBRANCH   9  14
BRANCH   1  24
HETATM   24  C5  UNL     1      25.267   2.450  52.263  1.00  0.00     0.029 C 
BRANCH  24  25
HETATM   25  C4  UNL     1      25.656   1.583  53.127  1.00  0.00     0.004 C 
BRANCH  25  26
HETATM   26  C3  UNL     1      26.993   0.979  53.293  1.00  0.00     0.019 C 
HETATM   27  C2  UNL     1      27.530  -0.179  53.078  1.00  0.00     0.008 C 
HETATM   28  C1  UNL     1      26.680  -1.235  52.530  1.00  0.00     0.062 C 
HETATM   29 CL1  UNL     1      29.190  -0.560  53.400  1.00  0.00    -0.089 Cl
ENDBRANCH  25  26
ENDBRANCH  24  25
ENDBRANCH   1  24
TORSDOF 5
ENDMDL
MODEL 8
REMARK VINA RESULT:      -7.1      4.991      9.634
REMARK  5 active torsions:
REMARK  status: ('A' for Active; 'I' for Inactive)
REMARK    1  A    between atoms: C3_4  and  C4_5 
REMARK    2  A    between atoms: C4_5  and  C5_6 
REMARK    3  A    between atoms: C5_6  and  C6_7 
REMARK    4  A    between atoms: C13_15  and  C14_16 
REMARK    5  A    between atoms: N1_19  and  C17_20 
ROOT
HETATM    1  C6  UNL     1      23.909   3.249  50.976  1.00  0.00     0.031 C 
HETATM    2  C7  UNL     1      23.448   3.076  49.692  1.00  0.00     0.080 C 
HETATM    3  C8  UNL     1      22.789   3.772  48.485  1.00  0.00     0.164 C 
HETATM    4  O1  UNL     1      22.399   3.494  47.331  1.00  0.00    -0.292 OA
HETATM    5  C9  UNL     1      22.712   5.117  49.153  1.00  0.00     0.051 A 
HETATM    6  C10 UNL     1      21.566   4.836  49.831  1.00  0.00    -0.027 A 
HETATM    7  C11 UNL     1      22.408   5.598  50.558  1.00  0.00     0.041 A 
HETATM    8  C12 UNL     1      23.645   5.985  49.999  1.00  0.00     0.017 A 
HETATM    9  C13 UNL     1      24.717   6.225  49.292  1.00  0.00    -0.079 A 
HETATM   10  C22 UNL     1      23.890   5.451  48.549  1.00  0.00     0.047 A 
HETATM   11  C23 UNL     1      24.287   5.829  51.364  1.00  0.00     0.135 C 
HETATM   12  N2  UNL     1      23.892   4.444  51.808  1.00  0.00    -0.389 N 
HETATM   13  H27 UNL     1      23.575   4.280  52.788  1.00  0.00     0.159 HD
ENDROOT
BRANCH   9  14
HETATM   14  C14 UNL     1      25.959   6.949  49.401  1.00  0.00     0.015 C 
HETATM   15  C15 UNL     1      25.806   8.435  49.661  1.00  0.00     0.039 C 
HETATM   16  C16 UNL     1      27.178   8.922  50.067  1.00  0.00     0.273 C 
HETATM   17  N1  UNL     1      28.166   8.705  49.047  1.00  0.00     0.097 N 
HETATM   18  C20 UNL     1      28.200   7.350  48.556  1.00  0.00     0.273 C 
HETATM   19  C21 UNL     1      26.841   6.822  48.186  1.00  0.00     0.039 C 
BRANCH  17  20
HETATM   20  C17 UNL     1      28.112   9.679  47.987  1.00  0.00     0.270 C 
HETATM   21  C18 UNL     1      29.475  10.028  47.466  1.00  0.00     0.205 C 
HETATM   22  O2  UNL     1      29.013  11.341  47.308  1.00  0.00    -0.387 OA
HETATM   23  C19 UNL     1      28.219  11.114  48.449  1.00  0.00     0.205 C 
ENDBRANCH  17  20
ENDBRANCH   9  14
BRANCH   1  24
HETATM   24  C5  UNL     1      24.456   2.043  51.555  1.00  0.00     0.029 C 
BRANCH  24  25
HETATM   25  C4  UNL     1      24.603   0.997  52.285  1.00  0.00     0.004 C 
BRANCH  25  26
HETATM   26  C3  UNL     1      23.707   0.468  53.333  1.00  0.00     0.019 C 
HETATM   27  C2  UNL     1      22.493   0.022  53.389  1.00  0.00     0.008 C 
HETATM   28  C1  UNL     1      21.719  -0.005  52.148  1.00  0.00     0.062 C 
HETATM   29 CL1  UNL     1      21.724  -0.538  54.837  1.00  0.00    -0.089 Cl
ENDBRANCH  25  26
ENDBRANCH  24  25
ENDBRANCH   1  24
TORSDOF 5
ENDMDL
MODEL 9
REMARK VINA RESULT:      -7.0      8.005     12.269
REMARK  5 active torsions:
REMARK  status: ('A' for Active; 'I' for Inactive)
REMARK    1  A    between atoms: C3_4  and  C4_5 
REMARK    2  A    between atoms: C4_5  and  C5_6 
REMARK    3  A    between atoms: C5_6  and  C6_7 
REMARK    4  A    between atoms: C13_15  and  C14_16 
REMARK    5  A    between atoms: N1_19  and  C17_20 
ROOT
HETATM    1  C6  UNL     1      28.232   9.530  49.302  1.00  0.00     0.031 C 
HETATM    2  C7  UNL     1      27.990   9.655  47.954  1.00  0.00     0.080 C 
HETATM    3  C8  UNL     1      28.583  10.102  46.604  1.00  0.00     0.164 C 
HETATM    4  O1  UNL     1      28.248  10.175  45.402  1.00  0.00    -0.292 OA
HETATM    5  C9  UNL     1      29.910  10.503  47.185  1.00  0.00     0.051 A 
HETATM    6  C10 UNL     1      29.483  11.729  47.595  1.00  0.00    -0.027 A 
HETATM    7  C11 UNL     1      30.356  11.183  48.465  1.00  0.00     0.041 A 
HETATM    8  C12 UNL     1      30.901   9.910  48.189  1.00  0.00     0.017 A 
HETATM    9  C13 UNL     1      31.277   8.744  47.736  1.00  0.00    -0.079 A 
HETATM   10  C22 UNL     1      30.394   9.270  46.854  1.00  0.00     0.047 A 
HETATM   11  C23 UNL     1      30.842   9.586  49.669  1.00  0.00     0.135 C 
HETATM   12  N2  UNL     1      29.420   9.892  50.063  1.00  0.00    -0.389 N 
HETATM   13  H27 UNL     1      29.221  10.402  50.950  1.00  0.00     0.159 HD
ENDROOT
BRANCH   9  14
HETATM   14  C14 UNL     1      32.162   7.664  48.098  1.00  0.00     0.015 C 
HETATM   15  C15 UNL     1      33.425   7.571  47.263  1.00  0.00     0.039 C 
HETATM   16  C16 UNL     1      34.335   6.620  48.005  1.00  0.00     0.273 C 
HETATM   17  N1  UNL     1      33.759   5.314  48.162  1.00  0.00     0.097 N 
HETATM   18  C20 UNL     1      32.431   5.333  48.723  1.00  0.00     0.273 C 
HETATM   19  C21 UNL     1      31.513   6.305  48.034  1.00  0.00     0.039 C 
BRANCH  17  20
HETATM   20  C17 UNL     1      33.848   4.505  46.974  1.00  0.00     0.270 C 
HETATM   21  C18 UNL     1      33.146   3.189  47.129  1.00  0.00     0.205 C 
HETATM   22  O2  UNL     1      34.166   2.621  46.354  1.00  0.00    -0.387 OA
HETATM   23  C19 UNL     1      35.030   3.563  46.946  1.00  0.00     0.205 C 
ENDBRANCH  17  20
ENDBRANCH   9  14
BRANCH   1  24
HETATM   24  C5  UNL     1      27.114   8.980  50.036  1.00  0.00     0.029 C 
BRANCH  24  25
HETATM   25  C4  UNL     1      26.148   8.216  50.397  1.00  0.00     0.004 C 
BRANCH  25  26
HETATM   26  C3  UNL     1      25.147   7.530  49.555  1.00  0.00     0.019 C 
HETATM   27  C2  UNL     1      25.071   6.403  48.923  1.00  0.00     0.008 C 
HETATM   28  C1  UNL     1      26.219   5.501  48.994  1.00  0.00     0.062 C 
HETATM   29 CL1  UNL     1      23.698   5.896  47.994  1.00  0.00    -0.089 Cl
ENDBRANCH  25  26
ENDBRANCH  24  25
ENDBRANCH   1  24
TORSDOF 5
ENDMDL
