MODEL 1
REMARK VINA RESULT:      -9.3      0.000      0.000
REMARK  4 active torsions:
REMARK  status: ('A' for Active; 'I' for Inactive)
REMARK    1  A    between atoms: C5_5  and  C6_6 
REMARK    2  A    between atoms: C10_12  and  O1_13 
REMARK    3  A    between atoms: O1_13  and  C11_14 
REMARK    4  A    between atoms: C11_14  and  N3_16 
ROOT
HETATM    1  C1  UNL     1      28.648   0.300  54.723  1.00  0.00     0.049 C 
HETATM    2  C2  UNL     1      27.344   0.396  54.030  1.00  0.00    -0.041 A 
HETATM    3  C3  UNL     1      26.531   1.502  54.161  1.00  0.00     0.009 A 
HETATM    4  C4  UNL     1      25.324   1.553  53.500  1.00  0.00     0.014 A 
HETATM    5  C5  UNL     1      24.848   0.522  52.675  1.00  0.00    -0.005 A 
HETATM    6  C17 UNL     1      25.676  -0.569  52.560  1.00  0.00     0.037 A 
HETATM    7  C18 UNL     1      26.881  -0.619  53.221  1.00  0.00     0.051 A 
HETATM    8  C19 UNL     1      27.651  -1.815  53.017  1.00  0.00     0.100 C 
HETATM    9  N4  UNL     1      28.279  -2.788  52.869  1.00  0.00    -0.191 NA
ENDROOT
BRANCH   5  10
HETATM   10  C6  UNL     1      23.560   0.841  52.078  1.00  0.00     0.081 A 
HETATM   11  N1  UNL     1      23.611   1.672  50.997  1.00  0.00    -0.240 NA
HETATM   12  C7  UNL     1      22.536   2.081  50.322  1.00  0.00     0.234 A 
HETATM   13  N2  UNL     1      21.325   1.643  50.742  1.00  0.00    -0.241 NA
HETATM   14  C8  UNL     1      21.238   0.810  51.820  1.00  0.00     0.074 A 
HETATM   15  C9  UNL     1      19.967   0.426  52.191  1.00  0.00     0.072 A 
HETATM   16  C15 UNL     1      22.335   0.388  52.515  1.00  0.00     0.034 A 
HETATM   17  C10 UNL     1      19.848  -0.398  53.287  1.00  0.00     0.107 A 
HETATM   18  C13 UNL     1      21.001  -0.801  53.965  1.00  0.00     0.112 A 
HETATM   19  C14 UNL     1      22.274  -0.423  53.602  1.00  0.00     0.017 A 
HETATM   20  O2  UNL     1      21.522  -1.526  55.005  1.00  0.00    -0.343 OA
HETATM   21  C16 UNL     1      22.865  -1.179  54.702  1.00  0.00     0.218 A 
BRANCH  17  22
HETATM   22  O1  UNL     1      18.629  -0.845  53.748  1.00  0.00    -0.313 OA
BRANCH  22  23
HETATM   23  C11 UNL     1      17.688  -1.599  53.064  1.00  0.00     0.355 C 
HETATM   24  C12 UNL     1      17.722  -3.002  53.667  1.00  0.00     0.073 C 
BRANCH  23  25
HETATM   25  N3  UNL     1      16.341  -1.052  53.171  1.00  0.00     0.107 N 
HETATM   26  H12 UNL     1      15.617  -1.739  52.915  1.00  0.00     0.316 HD
HETATM   27  H13 UNL     1      16.177  -0.580  54.081  1.00  0.00     0.316 HD
ENDBRANCH  23  25
ENDBRANCH  22  23
ENDBRANCH  17  22
ENDBRANCH   5  10
TORSDOF 4
ENDMDL
MODEL 2
REMARK VINA RESULT:      -9.0      3.197      7.262
REMARK  4 active torsions:
REMARK  status: ('A' for Active; 'I' for Inactive)
REMARK    1  A    between atoms: C5_5  and  C6_6 
REMARK    2  A    between atoms: C10_12  and  O1_13 
REMARK    3  A    between atoms: O1_13  and  C11_14 
REMARK    4  A    between atoms: C11_14  and  N3_16 
ROOT
HETATM    1  C1  UNL     1      23.512   5.954  48.020  1.00  0.00     0.049 C 
HETATM    2  C2  UNL     1      23.468   4.936  49.093  1.00  0.00    -0.041 A 
HETATM    3  C3  UNL     1      23.271   3.599  48.817  1.00  0.00     0.009 A 
HETATM    4  C4  UNL     1      23.234   2.681  49.844  1.00  0.00     0.014 A 
HETATM    5  C5  UNL     1      23.388   3.025  51.196  1.00  0.00    -0.005 A 
HETATM    6  C17 UNL     1      23.583   4.363  51.445  1.00  0.00     0.037 A 
HETATM    7  C18 UNL     1      23.619   5.278  50.419  1.00  0.00     0.051 A 
HETATM    8  C19 UNL     1      23.828   6.644  50.813  1.00  0.00     0.100 C 
HETATM    9  N4  UNL     1      23.985   7.758  51.123  1.00  0.00    -0.191 NA
ENDROOT
BRANCH   5  10
HETATM   10  C6  UNL     1      23.335   1.864  52.072  1.00  0.00     0.081 A 
HETATM   11  N1  UNL     1      22.085   1.505  52.486  1.00  0.00    -0.240 NA
HETATM   12  C7  UNL     1      21.838   0.476  53.296  1.00  0.00     0.234 A 
HETATM   13  N2  UNL     1      22.894  -0.252  53.730  1.00  0.00    -0.241 NA
HETATM   14  C8  UNL     1      24.159   0.080  53.335  1.00  0.00     0.074 A 
HETATM   15  C9  UNL     1      25.177  -0.701  53.838  1.00  0.00     0.072 A 
HETATM   16  C15 UNL     1      24.418   1.133  52.507  1.00  0.00     0.034 A 
HETATM   17  C10 UNL     1      26.464  -0.378  53.473  1.00  0.00     0.107 A 
HETATM   18  C13 UNL     1      26.677   0.711  52.623  1.00  0.00     0.112 A 
HETATM   19  C14 UNL     1      25.667   1.496  52.116  1.00  0.00     0.017 A 
HETATM   20  O2  UNL     1      27.597   1.477  51.956  1.00  0.00    -0.343 OA
HETATM   21  C16 UNL     1      26.616   2.338  51.395  1.00  0.00     0.218 A 
BRANCH  17  22
HETATM   22  O1  UNL     1      27.559  -1.087  53.913  1.00  0.00    -0.313 OA
BRANCH  22  23
HETATM   23  C11 UNL     1      28.566  -1.656  53.147  1.00  0.00     0.355 C 
HETATM   24  C12 UNL     1      29.883  -1.048  53.624  1.00  0.00     0.073 C 
BRANCH  23  25
HETATM   25  N3  UNL     1      28.620  -3.108  53.276  1.00  0.00     0.107 N 
HETATM   26  H12 UNL     1      29.356  -3.525  52.690  1.00  0.00     0.316 HD
HETATM   27  H13 UNL     1      28.638  -3.416  54.267  1.00  0.00     0.316 HD
ENDBRANCH  23  25
ENDBRANCH  22  23
ENDBRANCH  17  22
ENDBRANCH   5  10
TORSDOF 4
ENDMDL
MODEL 3
REMARK VINA RESULT:      -8.8      2.977      4.222
REMARK  4 active torsions:
REMARK  status: ('A' for Active; 'I' for Inactive)
REMARK    1  A    between atoms: C5_5  and  C6_6 
REMARK    2  A    between atoms: C10_12  and  O1_13 
REMARK    3  A    between atoms: O1_13  and  C11_14 
REMARK    4  A    between atoms: C11_14  and  N3_16 
ROOT
HETATM    1  C1  UNL     1      30.097  -0.866  53.428  1.00  0.00     0.049 C 
HETATM    2  C2  UNL     1      28.636  -0.638  53.506  1.00  0.00    -0.041 A 
HETATM    3  C3  UNL     1      27.732  -1.533  52.975  1.00  0.00     0.009 A 
HETATM    4  C4  UNL     1      26.380  -1.284  53.067  1.00  0.00     0.014 A 
HETATM    5  C5  UNL     1      25.842  -0.144  53.684  1.00  0.00    -0.005 A 
HETATM    6  C17 UNL     1      26.764   0.733  54.206  1.00  0.00     0.037 A 
HETATM    7  C18 UNL     1      28.113   0.483  54.113  1.00  0.00     0.051 A 
HETATM    8  C19 UNL     1      28.970   1.478  54.697  1.00  0.00     0.100 C 
HETATM    9  N4  UNL     1      29.675   2.286  55.157  1.00  0.00    -0.191 NA
ENDROOT
BRANCH   5  10
HETATM   10  C6  UNL     1      24.388  -0.139  53.668  1.00  0.00     0.081 A 
HETATM   11  N1  UNL     1      23.793  -0.954  54.588  1.00  0.00    -0.240 NA
HETATM   12  C7  UNL     1      22.474  -1.088  54.719  1.00  0.00     0.234 A 
HETATM   13  N2  UNL     1      21.682  -0.372  53.886  1.00  0.00    -0.241 NA
HETATM   14  C8  UNL     1      22.243   0.453  52.954  1.00  0.00     0.074 A 
HETATM   15  C9  UNL     1      21.367   1.131  52.135  1.00  0.00     0.072 A 
HETATM   16  C15 UNL     1      23.594   0.594  52.814  1.00  0.00     0.034 A 
HETATM   17  C10 UNL     1      21.905   1.954  51.172  1.00  0.00     0.107 A 
HETATM   18  C13 UNL     1      23.294   2.063  51.069  1.00  0.00     0.112 A 
HETATM   19  C14 UNL     1      24.177   1.391  51.882  1.00  0.00     0.017 A 
HETATM   20  O2  UNL     1      24.350   2.637  50.410  1.00  0.00    -0.343 OA
HETATM   21  C16 UNL     1      25.327   1.977  51.201  1.00  0.00     0.218 A 
BRANCH  17  22
HETATM   22  O1  UNL     1      21.126   2.680  50.298  1.00  0.00    -0.313 OA
BRANCH  22  23
HETATM   23  C11 UNL     1      20.573   2.255  49.100  1.00  0.00     0.355 C 
HETATM   24  C12 UNL     1      21.601   1.338  48.439  1.00  0.00     0.073 C 
BRANCH  23  25
HETATM   25  N3  UNL     1      19.318   1.534  49.281  1.00  0.00     0.107 N 
HETATM   26  H12 UNL     1      18.598   2.112  49.737  1.00  0.00     0.316 HD
HETATM   27  H13 UNL     1      19.002   1.066  48.410  1.00  0.00     0.316 HD
ENDBRANCH  23  25
ENDBRANCH  22  23
ENDBRANCH  17  22
ENDBRANCH   5  10
TORSDOF 4
ENDMDL
MODEL 4
REMARK VINA RESULT:      -8.7      3.258      7.173
REMARK  4 active torsions:
REMARK  status: ('A' for Active; 'I' for Inactive)
REMARK    1  A    between atoms: C5_5  and  C6_6 
REMARK    2  A    between atoms: C10_12  and  O1_13 
REMARK    3  A    between atoms: O1_13  and  C11_14 
REMARK    4  A    between atoms: C11_14  and  N3_16 
ROOT
HETATM    1  C1  UNL     1      22.972   6.752  49.865  1.00  0.00     0.049 C 
HETATM    2  C2  UNL     1      23.050   5.417  50.499  1.00  0.00    -0.041 A 
HETATM    3  C3  UNL     1      23.301   5.267  51.847  1.00  0.00     0.009 A 
HETATM    4  C4  UNL     1      23.367   4.007  52.400  1.00  0.00     0.014 A 
HETATM    5  C5  UNL     1      23.190   2.826  51.662  1.00  0.00    -0.005 A 
HETATM    6  C17 UNL     1      22.941   3.003  50.321  1.00  0.00     0.037 A 
HETATM    7  C18 UNL     1      22.876   4.260  49.770  1.00  0.00     0.051 A 
HETATM    8  C19 UNL     1      22.610   4.307  48.359  1.00  0.00     0.100 C 
HETATM    9  N4  UNL     1      22.407   4.356  47.210  1.00  0.00    -0.191 NA
ENDROOT
BRANCH   5  10
HETATM   10  C6  UNL     1      23.282   1.635  52.492  1.00  0.00     0.081 A 
HETATM   11  N1  UNL     1      22.091   1.154  52.952  1.00  0.00    -0.240 NA
HETATM   12  C7  UNL     1      21.975   0.078  53.731  1.00  0.00     0.234 A 
HETATM   13  N2  UNL     1      23.111  -0.569  54.083  1.00  0.00    -0.241 NA
HETATM   14  C8  UNL     1      24.320  -0.115  53.641  1.00  0.00     0.074 A 
HETATM   15  C9  UNL     1      25.426  -0.821  54.061  1.00  0.00     0.072 A 
HETATM   16  C15 UNL     1      24.445   0.986  52.844  1.00  0.00     0.034 A 
HETATM   17  C10 UNL     1      26.660  -0.374  53.646  1.00  0.00     0.107 A 
HETATM   18  C13 UNL     1      26.734   0.759  52.832  1.00  0.00     0.112 A 
HETATM   19  C14 UNL     1      25.636   1.470  52.407  1.00  0.00     0.017 A 
HETATM   20  O2  UNL     1      27.549   1.626  52.151  1.00  0.00    -0.343 OA
HETATM   21  C16 UNL     1      26.471   2.418  51.675  1.00  0.00     0.218 A 
BRANCH  17  22
HETATM   22  O1  UNL     1      27.833  -1.000  54.003  1.00  0.00    -0.313 OA
BRANCH  22  23
HETATM   23  C11 UNL     1      28.740  -1.641  53.172  1.00  0.00     0.355 C 
HETATM   24  C12 UNL     1      30.135  -1.245  53.649  1.00  0.00     0.073 C 
BRANCH  23  25
HETATM   25  N3  UNL     1      28.605  -3.093  53.203  1.00  0.00     0.107 N 
HETATM   26  H12 UNL     1      29.301  -3.564  52.607  1.00  0.00     0.316 HD
HETATM   27  H13 UNL     1      28.552  -3.464  54.172  1.00  0.00     0.316 HD
ENDBRANCH  23  25
ENDBRANCH  22  23
ENDBRANCH  17  22
ENDBRANCH   5  10
TORSDOF 4
ENDMDL
MODEL 5
REMARK VINA RESULT:      -8.0      1.709      2.125
REMARK  4 active torsions:
REMARK  status: ('A' for Active; 'I' for Inactive)
REMARK    1  A    between atoms: C5_5  and  C6_6 
REMARK    2  A    between atoms: C10_12  and  O1_13 
REMARK    3  A    between atoms: O1_13  and  C11_14 
REMARK    4  A    between atoms: C11_14  and  N3_16 
ROOT
HETATM    1  C1  UNL     1      28.643   0.129  54.943  1.00  0.00     0.049 C 
HETATM    2  C2  UNL     1      27.609   0.556  53.973  1.00  0.00    -0.041 A 
HETATM    3  C3  UNL     1      27.065   1.823  54.002  1.00  0.00     0.009 A 
HETATM    4  C4  UNL     1      26.104   2.181  53.082  1.00  0.00     0.014 A 
HETATM    5  C5  UNL     1      25.625   1.318  52.085  1.00  0.00    -0.005 A 
HETATM    6  C17 UNL     1      26.184   0.061  52.077  1.00  0.00     0.037 A 
HETATM    7  C18 UNL     1      27.142  -0.296  52.995  1.00  0.00     0.051 A 
HETATM    8  C19 UNL     1      27.644  -1.637  52.879  1.00  0.00     0.100 C 
HETATM    9  N4  UNL     1      28.049  -2.729  52.802  1.00  0.00    -0.191 NA
ENDROOT
BRANCH   5  10
HETATM   10  C6  UNL     1      24.635   1.953  51.230  1.00  0.00     0.081 A 
HETATM   11  N1  UNL     1      25.130   2.868  50.346  1.00  0.00    -0.240 NA
HETATM   12  C7  UNL     1      24.378   3.557  49.489  1.00  0.00     0.234 A 
HETATM   13  N2  UNL     1      23.042   3.332  49.502  1.00  0.00    -0.241 NA
HETATM   14  C8  UNL     1      22.512   2.424  50.373  1.00  0.00     0.074 A 
HETATM   15  C9  UNL     1      21.144   2.269  50.332  1.00  0.00     0.072 A 
HETATM   16  C15 UNL     1      23.278   1.716  51.253  1.00  0.00     0.034 A 
HETATM   17  C10 UNL     1      20.580   1.374  51.212  1.00  0.00     0.107 A 
HETATM   18  C13 UNL     1      21.407   0.674  52.095  1.00  0.00     0.112 A 
HETATM   19  C14 UNL     1      22.774   0.822  52.143  1.00  0.00     0.017 A 
HETATM   20  O2  UNL     1      21.479  -0.249  53.106  1.00  0.00    -0.343 OA
HETATM   21  C16 UNL     1      22.891  -0.152  53.224  1.00  0.00     0.218 A 
BRANCH  17  22
HETATM   22  O1  UNL     1      19.224   1.137  51.262  1.00  0.00    -0.313 OA
BRANCH  22  23
HETATM   23  C11 UNL     1      18.546  -0.002  50.854  1.00  0.00     0.355 C 
HETATM   24  C12 UNL     1      17.776  -0.517  52.068  1.00  0.00     0.073 C 
BRANCH  23  25
HETATM   25  N3  UNL     1      17.619   0.255  49.758  1.00  0.00     0.107 N 
HETATM   26  H12 UNL     1      16.755   0.718  50.076  1.00  0.00     0.316 HD
HETATM   27  H13 UNL     1      18.080   0.719  48.952  1.00  0.00     0.316 HD
ENDBRANCH  23  25
ENDBRANCH  22  23
ENDBRANCH  17  22
ENDBRANCH   5  10
TORSDOF 4
ENDMDL
MODEL 6
REMARK VINA RESULT:      -8.0      3.574      7.942
REMARK  4 active torsions:
REMARK  status: ('A' for Active; 'I' for Inactive)
REMARK    1  A    between atoms: C5_5  and  C6_6 
REMARK    2  A    between atoms: C10_12  and  O1_13 
REMARK    3  A    between atoms: O1_13  and  C11_14 
REMARK    4  A    between atoms: C11_14  and  N3_16 
ROOT
HETATM    1  C1  UNL     1      19.944   3.389  47.529  1.00  0.00     0.049 C 
HETATM    2  C2  UNL     1      20.699   2.803  48.660  1.00  0.00    -0.041 A 
HETATM    3  C3  UNL     1      21.183   1.513  48.618  1.00  0.00     0.009 A 
HETATM    4  C4  UNL     1      21.880   1.004  49.692  1.00  0.00     0.014 A 
HETATM    5  C5  UNL     1      22.139   1.731  50.864  1.00  0.00    -0.005 A 
HETATM    6  C17 UNL     1      21.646   3.015  50.880  1.00  0.00     0.037 A 
HETATM    7  C18 UNL     1      20.950   3.522  49.808  1.00  0.00     0.051 A 
HETATM    8  C19 UNL     1      20.489   4.875  49.952  1.00  0.00     0.100 C 
HETATM    9  N4  UNL     1      20.097   5.969  50.063  1.00  0.00    -0.191 NA
ENDROOT
BRANCH   5  10
HETATM   10  C6  UNL     1      22.917   0.970  51.829  1.00  0.00     0.081 A 
HETATM   11  N1  UNL     1      22.205   0.066  52.564  1.00  0.00    -0.240 NA
HETATM   12  C7  UNL     1      22.741  -0.716  53.501  1.00  0.00     0.234 A 
HETATM   13  N2  UNL     1      24.071  -0.601  53.732  1.00  0.00    -0.241 NA
HETATM   14  C8  UNL     1      24.813   0.292  53.014  1.00  0.00     0.074 A 
HETATM   15  C9  UNL     1      26.154   0.358  53.325  1.00  0.00     0.072 A 
HETATM   16  C15 UNL     1      24.270   1.096  52.054  1.00  0.00     0.034 A 
HETATM   17  C10 UNL     1      26.922   1.264  52.631  1.00  0.00     0.107 A 
HETATM   18  C13 UNL     1      26.318   2.066  51.659  1.00  0.00     0.112 A 
HETATM   19  C14 UNL     1      24.981   2.007  51.341  1.00  0.00     0.017 A 
HETATM   20  O2  UNL     1      26.490   3.051  50.721  1.00  0.00    -0.343 OA
HETATM   21  C16 UNL     1      25.122   3.058  50.338  1.00  0.00     0.218 A 
BRANCH  17  22
HETATM   22  O1  UNL     1      28.273   1.417  52.857  1.00  0.00    -0.313 OA
BRANCH  22  23
HETATM   23  C11 UNL     1      28.995   1.032  53.976  1.00  0.00     0.355 C 
HETATM   24  C12 UNL     1      30.022   0.004  53.509  1.00  0.00     0.073 C 
BRANCH  23  25
HETATM   25  N3  UNL     1      29.676   2.149  54.620  1.00  0.00     0.107 N 
HETATM   26  H12 UNL     1      29.366   2.290  55.592  1.00  0.00     0.316 HD
HETATM   27  H13 UNL     1      30.707   2.103  54.503  1.00  0.00     0.316 HD
ENDBRANCH  23  25
ENDBRANCH  22  23
ENDBRANCH  17  22
ENDBRANCH   5  10
TORSDOF 4
ENDMDL
MODEL 7
REMARK VINA RESULT:      -7.8      3.725      8.025
REMARK  4 active torsions:
REMARK  status: ('A' for Active; 'I' for Inactive)
REMARK    1  A    between atoms: C5_5  and  C6_6 
REMARK    2  A    between atoms: C10_12  and  O1_13 
REMARK    3  A    between atoms: O1_13  and  C11_14 
REMARK    4  A    between atoms: C11_14  and  N3_16 
ROOT
HETATM    1  C1  UNL     1      20.799   6.351  47.801  1.00  0.00     0.049 C 
HETATM    2  C2  UNL     1      21.396   5.248  48.586  1.00  0.00    -0.041 A 
HETATM    3  C3  UNL     1      21.387   5.251  49.965  1.00  0.00     0.009 A 
HETATM    4  C4  UNL     1      21.954   4.206  50.661  1.00  0.00     0.014 A 
HETATM    5  C5  UNL     1      22.560   3.101  50.042  1.00  0.00    -0.005 A 
HETATM    6  C17 UNL     1      22.555   3.121  48.667  1.00  0.00     0.037 A 
HETATM    7  C18 UNL     1      21.990   4.165  47.974  1.00  0.00     0.051 A 
HETATM    8  C19 UNL     1      22.051   4.065  46.542  1.00  0.00     0.100 C 
HETATM    9  N4  UNL     1      22.107   4.001  45.378  1.00  0.00    -0.191 NA
ENDROOT
BRANCH   5  10
HETATM   10  C6  UNL     1      23.054   2.129  51.005  1.00  0.00     0.081 A 
HETATM   11  N1  UNL     1      22.098   1.350  51.588  1.00  0.00    -0.240 NA
HETATM   12  C7  UNL     1      22.356   0.411  52.498  1.00  0.00     0.234 A 
HETATM   13  N2  UNL     1      23.648   0.225  52.860  1.00  0.00    -0.241 NA
HETATM   14  C8  UNL     1      24.631   0.987  52.297  1.00  0.00     0.074 A 
HETATM   15  C9  UNL     1      25.914   0.746  52.736  1.00  0.00     0.072 A 
HETATM   16  C15 UNL     1      24.372   1.950  51.366  1.00  0.00     0.034 A 
HETATM   17  C10 UNL     1      26.923   1.512  52.200  1.00  0.00     0.107 A 
HETATM   18  C13 UNL     1      26.606   2.487  51.250  1.00  0.00     0.112 A 
HETATM   19  C14 UNL     1      25.328   2.735  50.805  1.00  0.00     0.017 A 
HETATM   20  O2  UNL     1      27.077   3.474  50.423  1.00  0.00    -0.343 OA
HETATM   21  C16 UNL     1      25.790   3.796  49.916  1.00  0.00     0.218 A 
BRANCH  17  22
HETATM   22  O1  UNL     1      28.243   1.359  52.563  1.00  0.00    -0.313 OA
BRANCH  22  23
HETATM   23  C11 UNL     1      28.751   1.105  53.828  1.00  0.00     0.355 C 
HETATM   24  C12 UNL     1      29.680  -0.099  53.699  1.00  0.00     0.073 C 
BRANCH  23  25
HETATM   25  N3  UNL     1      29.488   2.237  54.378  1.00  0.00     0.107 N 
HETATM   26  H12 UNL     1      29.134   3.141  54.032  1.00  0.00     0.316 HD
HETATM   27  H13 UNL     1      29.583   2.184  55.410  1.00  0.00     0.316 HD
ENDBRANCH  23  25
ENDBRANCH  22  23
ENDBRANCH  17  22
ENDBRANCH   5  10
TORSDOF 4
ENDMDL
MODEL 8
REMARK VINA RESULT:      -7.6      5.417      8.210
REMARK  4 active torsions:
REMARK  status: ('A' for Active; 'I' for Inactive)
REMARK    1  A    between atoms: C5_5  and  C6_6 
REMARK    2  A    between atoms: C10_12  and  O1_13 
REMARK    3  A    between atoms: O1_13  and  C11_14 
REMARK    4  A    between atoms: C11_14  and  N3_16 
ROOT
HETATM    1  C1  UNL     1      23.562  -0.761  53.612  1.00  0.00     0.049 C 
HETATM    2  C2  UNL     1      23.640   0.607  53.053  1.00  0.00    -0.041 A 
HETATM    3  C3  UNL     1      22.681   1.093  52.189  1.00  0.00     0.009 A 
HETATM    4  C4  UNL     1      22.790   2.372  51.689  1.00  0.00     0.014 A 
HETATM    5  C5  UNL     1      23.843   3.243  52.008  1.00  0.00    -0.005 A 
HETATM    6  C17 UNL     1      24.785   2.734  52.871  1.00  0.00     0.037 A 
HETATM    7  C18 UNL     1      24.676   1.458  53.370  1.00  0.00     0.051 A 
HETATM    8  C19 UNL     1      25.726   1.048  54.261  1.00  0.00     0.100 C 
HETATM    9  N4  UNL     1      26.581   0.699  54.975  1.00  0.00    -0.191 NA
ENDROOT
BRANCH   5  10
HETATM   10  C6  UNL     1      23.703   4.541  51.367  1.00  0.00     0.081 A 
HETATM   11  N1  UNL     1      22.583   5.241  51.711  1.00  0.00    -0.240 NA
HETATM   12  C7  UNL     1      22.279   6.444  51.222  1.00  0.00     0.234 A 
HETATM   13  N2  UNL     1      23.136   6.996  50.332  1.00  0.00    -0.241 NA
HETATM   14  C8  UNL     1      24.266   6.324  49.965  1.00  0.00     0.074 A 
HETATM   15  C9  UNL     1      25.074   6.949  49.041  1.00  0.00     0.072 A 
HETATM   16  C15 UNL     1      24.583   5.092  50.462  1.00  0.00     0.034 A 
HETATM   17  C10 UNL     1      26.210   6.286  48.638  1.00  0.00     0.107 A 
HETATM   18  C13 UNL     1      26.489   5.026  49.176  1.00  0.00     0.112 A 
HETATM   19  C14 UNL     1      25.689   4.393  50.099  1.00  0.00     0.017 A 
HETATM   20  O2  UNL     1      27.347   3.957  49.198  1.00  0.00    -0.343 OA
HETATM   21  C16 UNL     1      26.576   3.235  50.147  1.00  0.00     0.218 A 
BRANCH  17  22
HETATM   22  O1  UNL     1      27.091   6.814  47.720  1.00  0.00    -0.313 OA
BRANCH  22  23
HETATM   23  C11 UNL     1      28.455   7.015  47.871  1.00  0.00     0.355 C 
HETATM   24  C12 UNL     1      28.919   7.831  46.668  1.00  0.00     0.073 C 
BRANCH  23  25
HETATM   25  N3  UNL     1      28.788   7.722  49.103  1.00  0.00     0.107 N 
HETATM   26  H12 UNL     1      28.239   8.587  49.218  1.00  0.00     0.316 HD
HETATM   27  H13 UNL     1      28.779   7.098  49.932  1.00  0.00     0.316 HD
ENDBRANCH  23  25
ENDBRANCH  22  23
ENDBRANCH  17  22
ENDBRANCH   5  10
TORSDOF 4
ENDMDL
MODEL 9
REMARK VINA RESULT:      -7.5      3.652      5.854
REMARK  4 active torsions:
REMARK  status: ('A' for Active; 'I' for Inactive)
REMARK    1  A    between atoms: C5_5  and  C6_6 
REMARK    2  A    between atoms: C10_12  and  O1_13 
REMARK    3  A    between atoms: O1_13  and  C11_14 
REMARK    4  A    between atoms: C11_14  and  N3_16 
ROOT
HETATM    1  C1  UNL     1      29.024   0.046  54.573  1.00  0.00     0.049 C 
HETATM    2  C2  UNL     1      27.724   0.411  53.965  1.00  0.00    -0.041 A 
HETATM    3  C3  UNL     1      27.148   1.647  54.171  1.00  0.00     0.009 A 
HETATM    4  C4  UNL     1      25.937   1.948  53.588  1.00  0.00     0.014 A 
HETATM    5  C5  UNL     1      25.225   1.054  52.773  1.00  0.00    -0.005 A 
HETATM    6  C17 UNL     1      25.820  -0.171  52.583  1.00  0.00     0.037 A 
HETATM    7  C18 UNL     1      27.029  -0.471  53.166  1.00  0.00     0.051 A 
HETATM    8  C19 UNL     1      27.542  -1.784  52.889  1.00  0.00     0.100 C 
HETATM    9  N4  UNL     1      27.963  -2.853  52.682  1.00  0.00    -0.191 NA
ENDROOT
BRANCH   5  10
HETATM   10  C6  UNL     1      23.990   1.631  52.265  1.00  0.00     0.081 A 
HETATM   11  N1  UNL     1      22.853   1.220  52.898  1.00  0.00    -0.240 NA
HETATM   12  C7  UNL     1      21.628   1.633  52.569  1.00  0.00     0.234 A 
HETATM   13  N2  UNL     1      21.515   2.510  51.544  1.00  0.00    -0.241 NA
HETATM   14  C8  UNL     1      22.632   2.943  50.889  1.00  0.00     0.074 A 
HETATM   15  C9  UNL     1      22.424   3.821  49.847  1.00  0.00     0.072 A 
HETATM   16  C15 UNL     1      23.887   2.524  51.221  1.00  0.00     0.034 A 
HETATM   17  C10 UNL     1      23.531   4.258  49.155  1.00  0.00     0.107 A 
HETATM   18  C13 UNL     1      24.795   3.798  49.534  1.00  0.00     0.112 A 
HETATM   19  C14 UNL     1      25.012   2.922  50.573  1.00  0.00     0.017 A 
HETATM   20  O2  UNL     1      26.144   3.835  49.293  1.00  0.00    -0.343 OA
HETATM   21  C16 UNL     1      26.454   2.930  50.344  1.00  0.00     0.218 A 
BRANCH  17  22
HETATM   22  O1  UNL     1      23.445   5.135  48.097  1.00  0.00    -0.313 OA
BRANCH  22  23
HETATM   23  C11 UNL     1      23.345   6.517  48.148  1.00  0.00     0.355 C 
HETATM   24  C12 UNL     1      24.745   7.072  47.890  1.00  0.00     0.073 C 
BRANCH  23  25
HETATM   25  N3  UNL     1      22.416   7.052  47.159  1.00  0.00     0.107 N 
HETATM   26  H12 UNL     1      22.600   8.043  46.944  1.00  0.00     0.316 HD
HETATM   27  H13 UNL     1      22.335   6.443  46.322  1.00  0.00     0.316 HD
ENDBRANCH  23  25
ENDBRANCH  22  23
ENDBRANCH  17  22
ENDBRANCH   5  10
TORSDOF 4
ENDMDL
