MODEL 1
REMARK VINA RESULT:      -8.2      0.000      0.000
REMARK  5 active torsions:
REMARK  status: ('A' for Active; 'I' for Inactive)
REMARK    1  A    between atoms: C1_2  and  C2_3 
REMARK       I    between atoms: C1_2  and  N2_14 
REMARK    2  A    between atoms: C2_3  and  N1_4 
REMARK       I    between atoms: N1_4  and  C3_5 
REMARK    3  A    between atoms: C3_5  and  O3_7 
REMARK    4  A    between atoms: O3_7  and  C4_8 
REMARK    5  A    between atoms: N2_14  and  C10_15 
ROOT
HETATM    1  O1  UNL     1      28.661   2.472  52.774  1.00  0.00    -0.272 OA
HETATM    2  C1  UNL     1      27.799   1.541  52.676  1.00  0.00     0.236 C 
HETATM    3  N2  UNL     1      26.762   1.657  51.726  1.00  0.00    -0.346 N 
HETATM    4  H9  UNL     1      26.214   0.761  51.896  1.00  0.00     0.163 HD
ENDROOT
BRANCH   2   5
HETATM    5  C2  UNL     1      28.385   0.708  53.724  1.00  0.00     0.227 C 
BRANCH   5   6
HETATM    6  N1  UNL     1      27.473  -0.375  54.114  1.00  0.00    -0.328 N 
HETATM    7  C3  UNL     1      26.351   0.115  54.872  1.00  0.00     0.366 C 
HETATM    8  O2  UNL     1      26.367   1.365  55.061  1.00  0.00    -0.238 OA
HETATM    9  H3  UNL     1      27.529  -1.404  53.918  1.00  0.00     0.165 HD
BRANCH   7  10
HETATM   10  O3  UNL     1      25.427  -0.846  55.280  1.00  0.00    -0.262 OA
BRANCH  10  11
HETATM   11  C4  UNL     1      24.145  -0.940  54.760  1.00  0.00     0.081 A 
HETATM   12  C5  UNL     1      23.822  -0.479  53.501  1.00  0.00     0.037 A 
HETATM   13  C6  UNL     1      22.584  -0.535  52.920  1.00  0.00     0.003 A 
HETATM   14  C7  UNL     1      21.600  -1.119  53.711  1.00  0.00     0.000 A 
HETATM   15  C8  UNL     1      21.790  -1.624  54.991  1.00  0.00     0.003 A 
HETATM   16  C9  UNL     1      23.101  -1.501  55.463  1.00  0.00     0.037 A 
ENDBRANCH  10  11
ENDBRANCH   7  10
ENDBRANCH   5   6
ENDBRANCH   2   5
BRANCH   3  17
HETATM   17  C10 UNL     1      26.758   2.783  50.964  1.00  0.00     0.088 A 
HETATM   18  C11 UNL     1      25.414   2.477  50.979  1.00  0.00     0.072 A 
HETATM   19  C12 UNL     1      23.938   2.242  50.926  1.00  0.00    -0.012 C 
HETATM   20  C17 UNL     1      26.335   3.806  50.212  1.00  0.00     0.089 A 
HETATM   21  C13 UNL     1      22.713   2.667  50.477  1.00  0.00     0.023 C 
HETATM   22  C14 UNL     1      22.242   3.817  49.665  1.00  0.00     0.224 C 
HETATM   23  N3  UNL     1      23.138   4.751  49.271  1.00  0.00    -0.443 NA
HETATM   24  C15 UNL     1      24.129   5.333  49.016  1.00  0.00     0.274 C 
HETATM   25  N4  UNL     1      25.508   5.628  48.867  1.00  0.00    -0.310 N 
HETATM   26  C16 UNL     1      25.969   4.639  49.598  1.00  0.00    -0.054 C 
HETATM   27  H16 UNL     1      25.992   6.352  48.375  1.00  0.00     0.177 HD
ENDBRANCH   3  17
TORSDOF 5
ENDMDL
MODEL 2
REMARK VINA RESULT:      -8.2      2.903      7.810
REMARK  5 active torsions:
REMARK  status: ('A' for Active; 'I' for Inactive)
REMARK    1  A    between atoms: C1_2  and  C2_3 
REMARK       I    between atoms: C1_2  and  N2_14 
REMARK    2  A    between atoms: C2_3  and  N1_4 
REMARK       I    between atoms: N1_4  and  C3_5 
REMARK    3  A    between atoms: C3_5  and  O3_7 
REMARK    4  A    between atoms: O3_7  and  C4_8 
REMARK    5  A    between atoms: N2_14  and  C10_15 
ROOT
HETATM    1  O1  UNL     1      23.795   1.391  51.222  1.00  0.00    -0.272 OA
HETATM    2  C1  UNL     1      24.033   2.047  52.285  1.00  0.00     0.236 C 
HETATM    3  N2  UNL     1      24.794   1.449  53.313  1.00  0.00    -0.346 N 
HETATM    4  H9  UNL     1      24.801   2.216  54.049  1.00  0.00     0.163 HD
ENDROOT
BRANCH   2   5
HETATM    5  C2  UNL     1      23.312   3.246  51.863  1.00  0.00     0.227 C 
BRANCH   5   6
HETATM    6  N1  UNL     1      24.220   4.395  51.736  1.00  0.00    -0.328 N 
HETATM    7  C3  UNL     1      24.003   5.116  50.508  1.00  0.00     0.366 C 
HETATM    8  O2  UNL     1      23.091   4.628  49.782  1.00  0.00    -0.238 OA
HETATM    9  H3  UNL     1      24.963   4.740  52.391  1.00  0.00     0.165 HD
BRANCH   7  10
HETATM   10  O3  UNL     1      24.819   6.228  50.306  1.00  0.00    -0.262 OA
BRANCH  10  11
HETATM   11  C4  UNL     1      26.009   6.181  49.595  1.00  0.00     0.081 A 
HETATM   12  C5  UNL     1      26.680   7.319  49.199  1.00  0.00     0.037 A 
HETATM   13  C6  UNL     1      27.854   7.354  48.497  1.00  0.00     0.003 A 
HETATM   14  C7  UNL     1      28.376   6.104  48.181  1.00  0.00     0.000 A 
HETATM   15  C8  UNL     1      27.804   4.884  48.518  1.00  0.00     0.003 A 
HETATM   16  C9  UNL     1      26.606   4.994  49.233  1.00  0.00     0.037 A 
ENDBRANCH  10  11
ENDBRANCH   7  10
ENDBRANCH   5   6
ENDBRANCH   2   5
BRANCH   3  17
HETATM   17  C10 UNL     1      25.231   0.181  53.086  1.00  0.00     0.088 A 
HETATM   18  C11 UNL     1      26.420   0.817  53.372  1.00  0.00     0.072 A 
HETATM   19  C12 UNL     1      27.766   1.399  53.664  1.00  0.00    -0.012 C 
HETATM   20  C17 UNL     1      26.035  -0.879  52.949  1.00  0.00     0.089 A 
HETATM   21  C13 UNL     1      29.115   1.190  53.794  1.00  0.00     0.023 C 
HETATM   22  C14 UNL     1      30.003   0.007  53.669  1.00  0.00     0.224 C 
HETATM   23  N3  UNL     1      29.450  -1.204  53.426  1.00  0.00    -0.443 NA
HETATM   24  C15 UNL     1      28.711  -2.074  53.140  1.00  0.00     0.274 C 
HETATM   25  N4  UNL     1      27.537  -2.751  52.723  1.00  0.00    -0.310 N 
HETATM   26  C16 UNL     1      26.711  -1.738  52.843  1.00  0.00    -0.054 C 
HETATM   27  H16 UNL     1      27.371  -3.695  52.433  1.00  0.00     0.177 HD
ENDBRANCH   3  17
TORSDOF 5
ENDMDL
MODEL 3
REMARK VINA RESULT:      -8.1      2.611      4.816
REMARK  5 active torsions:
REMARK  status: ('A' for Active; 'I' for Inactive)
REMARK    1  A    between atoms: C1_2  and  C2_3 
REMARK       I    between atoms: C1_2  and  N2_14 
REMARK    2  A    between atoms: C2_3  and  N1_4 
REMARK       I    between atoms: N1_4  and  C3_5 
REMARK    3  A    between atoms: C3_5  and  O3_7 
REMARK    4  A    between atoms: O3_7  and  C4_8 
REMARK    5  A    between atoms: N2_14  and  C10_15 
ROOT
HETATM    1  O1  UNL     1      23.989   3.874  51.899  1.00  0.00    -0.272 OA
HETATM    2  C1  UNL     1      24.311   3.383  50.770  1.00  0.00     0.236 C 
HETATM    3  N2  UNL     1      24.859   4.227  49.780  1.00  0.00    -0.346 N 
HETATM    4  H9  UNL     1      25.001   3.548  48.973  1.00  0.00     0.163 HD
ENDROOT
BRANCH   2   5
HETATM    5  C2  UNL     1      23.907   2.018  51.100  1.00  0.00     0.227 C 
BRANCH   5   6
HETATM    6  N1  UNL     1      24.749   1.458  52.167  1.00  0.00    -0.328 N 
HETATM    7  C3  UNL     1      24.065   0.425  52.903  1.00  0.00     0.366 C 
HETATM    8  O2  UNL     1      22.888   0.204  52.501  1.00  0.00    -0.238 OA
HETATM    9  H3  UNL     1      25.731   1.699  52.445  1.00  0.00     0.165 HD
BRANCH   7  10
HETATM   10  O3  UNL     1      24.793  -0.168  53.933  1.00  0.00    -0.262 OA
BRANCH  10  11
HETATM   11  C4  UNL     1      26.173  -0.306  53.910  1.00  0.00     0.081 A 
HETATM   12  C5  UNL     1      26.817  -1.148  53.028  1.00  0.00     0.037 A 
HETATM   13  C6  UNL     1      28.170  -1.337  52.945  1.00  0.00     0.003 A 
HETATM   14  C7  UNL     1      28.915  -0.590  53.851  1.00  0.00     0.000 A 
HETATM   15  C8  UNL     1      28.394   0.293  54.789  1.00  0.00     0.003 A 
HETATM   16  C9  UNL     1      26.999   0.389  54.766  1.00  0.00     0.037 A 
ENDBRANCH  10  11
ENDBRANCH   7  10
ENDBRANCH   5   6
ENDBRANCH   2   5
BRANCH   3  17
HETATM   17  C10 UNL     1      25.007   5.537  50.111  1.00  0.00     0.088 A 
HETATM   18  C11 UNL     1      26.164   5.320  49.395  1.00  0.00     0.072 A 
HETATM   19  C12 UNL     1      27.449   5.200  48.639  1.00  0.00    -0.012 C 
HETATM   20  C17 UNL     1      25.514   6.770  50.218  1.00  0.00     0.089 A 
HETATM   21  C13 UNL     1      28.587   5.817  48.184  1.00  0.00     0.023 C 
HETATM   22  C14 UNL     1      29.136   7.193  48.279  1.00  0.00     0.224 C 
HETATM   23  N3  UNL     1      28.400   8.151  48.889  1.00  0.00    -0.443 NA
HETATM   24  C15 UNL     1      27.593   8.726  49.525  1.00  0.00     0.274 C 
HETATM   25  N4  UNL     1      26.481   8.974  50.369  1.00  0.00    -0.310 N 
HETATM   26  C16 UNL     1      25.947   7.777  50.293  1.00  0.00    -0.054 C 
HETATM   27  H16 UNL     1      26.182   9.789  50.865  1.00  0.00     0.177 HD
ENDBRANCH   3  17
TORSDOF 5
ENDMDL
MODEL 4
REMARK VINA RESULT:      -8.1      2.434      5.424
REMARK  5 active torsions:
REMARK  status: ('A' for Active; 'I' for Inactive)
REMARK    1  A    between atoms: C1_2  and  C2_3 
REMARK       I    between atoms: C1_2  and  N2_14 
REMARK    2  A    between atoms: C2_3  and  N1_4 
REMARK       I    between atoms: N1_4  and  C3_5 
REMARK    3  A    between atoms: C3_5  and  O3_7 
REMARK    4  A    between atoms: O3_7  and  C4_8 
REMARK    5  A    between atoms: N2_14  and  C10_15 
ROOT
HETATM    1  O1  UNL     1      26.834   2.967  50.728  1.00  0.00    -0.272 OA
HETATM    2  C1  UNL     1      25.849   2.876  51.529  1.00  0.00     0.236 C 
HETATM    3  N2  UNL     1      26.068   2.420  52.846  1.00  0.00    -0.346 N 
HETATM    4  H9  UNL     1      25.082   2.437  53.246  1.00  0.00     0.163 HD
ENDROOT
BRANCH   2   5
HETATM    5  C2  UNL     1      24.855   3.351  50.568  1.00  0.00     0.227 C 
BRANCH   5   6
HETATM    6  N1  UNL     1      23.670   2.483  50.556  1.00  0.00    -0.328 N 
HETATM    7  C3  UNL     1      22.764   2.797  51.631  1.00  0.00     0.366 C 
HETATM    8  O2  UNL     1      23.157   3.741  52.372  1.00  0.00    -0.238 OA
HETATM    9  H3  UNL     1      23.411   1.708  49.898  1.00  0.00     0.165 HD
BRANCH   7  10
HETATM   10  O3  UNL     1      21.605   2.024  51.692  1.00  0.00    -0.262 OA
BRANCH  10  11
HETATM   11  C4  UNL     1      21.474   0.912  52.511  1.00  0.00     0.081 A 
HETATM   12  C5  UNL     1      22.557   0.299  53.105  1.00  0.00     0.037 A 
HETATM   13  C6  UNL     1      22.509  -0.798  53.922  1.00  0.00     0.003 A 
HETATM   14  C7  UNL     1      21.230  -1.299  54.141  1.00  0.00     0.000 A 
HETATM   15  C8  UNL     1      20.058  -0.779  53.607  1.00  0.00     0.003 A 
HETATM   16  C9  UNL     1      20.252   0.339  52.790  1.00  0.00     0.037 A 
ENDBRANCH  10  11
ENDBRANCH   7  10
ENDBRANCH   5   6
ENDBRANCH   2   5
BRANCH   3  17
HETATM   17  C10 UNL     1      27.348   2.102  53.175  1.00  0.00     0.088 A 
HETATM   18  C11 UNL     1      26.827   0.850  52.924  1.00  0.00     0.072 A 
HETATM   19  C12 UNL     1      26.372  -0.553  52.679  1.00  0.00    -0.012 C 
HETATM   20  C17 UNL     1      28.457   1.396  53.423  1.00  0.00     0.089 A 
HETATM   21  C13 UNL     1      26.694  -1.886  52.645  1.00  0.00     0.023 C 
HETATM   22  C14 UNL     1      27.933  -2.666  52.893  1.00  0.00     0.224 C 
HETATM   23  N3  UNL     1      29.078  -2.003  53.175  1.00  0.00    -0.443 NA
HETATM   24  C15 UNL     1      29.868  -1.180  53.466  1.00  0.00     0.274 C 
HETATM   25  N4  UNL     1      30.423   0.067  53.851  1.00  0.00    -0.310 N 
HETATM   26  C16 UNL     1      29.357   0.800  53.621  1.00  0.00    -0.054 C 
HETATM   27  H16 UNL     1      31.329   0.325  54.187  1.00  0.00     0.177 HD
ENDBRANCH   3  17
TORSDOF 5
ENDMDL
MODEL 5
REMARK VINA RESULT:      -8.1      2.871      6.185
REMARK  5 active torsions:
REMARK  status: ('A' for Active; 'I' for Inactive)
REMARK    1  A    between atoms: C1_2  and  C2_3 
REMARK       I    between atoms: C1_2  and  N2_14 
REMARK    2  A    between atoms: C2_3  and  N1_4 
REMARK       I    between atoms: N1_4  and  C3_5 
REMARK    3  A    between atoms: C3_5  and  O3_7 
REMARK    4  A    between atoms: O3_7  and  C4_8 
REMARK    5  A    between atoms: N2_14  and  C10_15 
ROOT
HETATM    1  O1  UNL     1      25.116  -1.198  55.207  1.00  0.00    -0.272 OA
HETATM    2  C1  UNL     1      25.157  -0.410  54.209  1.00  0.00     0.236 C 
HETATM    3  N2  UNL     1      23.977  -0.158  53.476  1.00  0.00    -0.346 N 
HETATM    4  H9  UNL     1      24.330   0.501  52.721  1.00  0.00     0.163 HD
ENDROOT
BRANCH   2   5
HETATM    5  C2  UNL     1      26.584  -0.116  54.333  1.00  0.00     0.227 C 
BRANCH   5   6
HETATM    6  N1  UNL     1      26.917   1.171  53.708  1.00  0.00    -0.328 N 
HETATM    7  C3  UNL     1      26.993   1.067  52.273  1.00  0.00     0.366 C 
HETATM    8  O2  UNL     1      26.768  -0.095  51.832  1.00  0.00    -0.238 OA
HETATM    9  H3  UNL     1      27.094   2.106  54.149  1.00  0.00     0.165 HD
BRANCH   7  10
HETATM   10  O3  UNL     1      27.300   2.246  51.595  1.00  0.00    -0.262 OA
BRANCH  10  11
HETATM   11  C4  UNL     1      26.380   2.945  50.827  1.00  0.00     0.081 A 
HETATM   12  C5  UNL     1      25.019   2.764  50.957  1.00  0.00     0.037 A 
HETATM   13  C6  UNL     1      24.052   3.412  50.239  1.00  0.00     0.003 A 
HETATM   14  C7  UNL     1      24.537   4.326  49.309  1.00  0.00     0.000 A 
HETATM   15  C8  UNL     1      25.878   4.605  49.079  1.00  0.00     0.003 A 
HETATM   16  C9  UNL     1      26.759   3.871  49.880  1.00  0.00     0.037 A 
ENDBRANCH  10  11
ENDBRANCH   7  10
ENDBRANCH   5   6
ENDBRANCH   2   5
BRANCH   3  17
HETATM   17  C10 UNL     1      22.852  -0.793  53.900  1.00  0.00     0.088 A 
HETATM   18  C11 UNL     1      22.340  -0.005  52.891  1.00  0.00     0.072 A 
HETATM   19  C12 UNL     1      21.675   0.802  51.823  1.00  0.00    -0.012 C 
HETATM   20  C17 UNL     1      21.575  -1.177  54.008  1.00  0.00     0.089 A 
HETATM   21  C13 UNL     1      20.515   1.117  51.161  1.00  0.00     0.023 C 
HETATM   22  C14 UNL     1      19.103   0.670  51.262  1.00  0.00     0.224 C 
HETATM   23  N3  UNL     1      18.788  -0.310  52.141  1.00  0.00    -0.443 NA
HETATM   24  C15 UNL     1      18.809  -1.090  53.022  1.00  0.00     0.274 C 
HETATM   25  N4  UNL     1      19.258  -1.830  54.145  1.00  0.00    -0.310 N 
HETATM   26  C16 UNL     1      20.522  -1.480  54.079  1.00  0.00    -0.054 C 
HETATM   27  H16 UNL     1      18.783  -2.432  54.789  1.00  0.00     0.177 HD
ENDBRANCH   3  17
TORSDOF 5
ENDMDL
MODEL 6
REMARK VINA RESULT:      -7.9      5.010      8.237
REMARK  5 active torsions:
REMARK  status: ('A' for Active; 'I' for Inactive)
REMARK    1  A    between atoms: C1_2  and  C2_3 
REMARK       I    between atoms: C1_2  and  N2_14 
REMARK    2  A    between atoms: C2_3  and  N1_4 
REMARK       I    between atoms: N1_4  and  C3_5 
REMARK    3  A    between atoms: C3_5  and  O3_7 
REMARK    4  A    between atoms: O3_7  and  C4_8 
REMARK    5  A    between atoms: N2_14  and  C10_15 
ROOT
HETATM    1  O1  UNL     1      20.962   0.142  53.127  1.00  0.00    -0.272 OA
HETATM    2  C1  UNL     1      20.824  -0.836  53.929  1.00  0.00     0.236 C 
HETATM    3  N2  UNL     1      19.572  -1.482  54.023  1.00  0.00    -0.346 N 
HETATM    4  H9  UNL     1      19.767  -2.219  54.765  1.00  0.00     0.163 HD
ENDROOT
BRANCH   2   5
HETATM    5  C2  UNL     1      22.203  -0.804  54.413  1.00  0.00     0.227 C 
BRANCH   5   6
HETATM    6  N1  UNL     1      23.131  -0.403  53.347  1.00  0.00    -0.328 N 
HETATM    7  C3  UNL     1      24.506  -0.537  53.755  1.00  0.00     0.366 C 
HETATM    8  O2  UNL     1      24.650  -0.962  54.936  1.00  0.00    -0.238 OA
HETATM    9  H3  UNL     1      22.932  -0.054  52.378  1.00  0.00     0.165 HD
BRANCH   7  10
HETATM   10  O3  UNL     1      25.459  -0.183  52.801  1.00  0.00    -0.262 OA
BRANCH  10  11
HETATM   11  C4  UNL     1      26.814  -0.083  53.079  1.00  0.00     0.081 A 
HETATM   12  C5  UNL     1      27.423   1.120  53.368  1.00  0.00     0.037 A 
HETATM   13  C6  UNL     1      28.750   1.299  53.651  1.00  0.00     0.003 A 
HETATM   14  C7  UNL     1      29.507   0.132  53.634  1.00  0.00     0.000 A 
HETATM   15  C8  UNL     1      29.021  -1.140  53.360  1.00  0.00     0.003 A 
HETATM   16  C9  UNL     1      27.650  -1.179  53.087  1.00  0.00     0.037 A 
ENDBRANCH  10  11
ENDBRANCH   7  10
ENDBRANCH   5   6
ENDBRANCH   2   5
BRANCH   3  17
HETATM   17  C10 UNL     1      18.578  -1.000  53.231  1.00  0.00     0.088 A 
HETATM   18  C11 UNL     1      18.107  -2.268  53.494  1.00  0.00     0.072 A 
HETATM   19  C12 UNL     1      17.500  -3.618  53.709  1.00  0.00    -0.012 C 
HETATM   20  C17 UNL     1      17.445  -0.917  52.525  1.00  0.00     0.089 A 
HETATM   21  C13 UNL     1      16.451  -4.468  53.466  1.00  0.00     0.023 C 
HETATM   22  C14 UNL     1      15.180  -4.365  52.705  1.00  0.00     0.224 C 
HETATM   23  N3  UNL     1      14.859  -3.187  52.123  1.00  0.00    -0.443 NA
HETATM   24  C15 UNL     1      14.893  -2.098  51.676  1.00  0.00     0.274 C 
HETATM   25  N4  UNL     1      15.384  -0.830  51.276  1.00  0.00    -0.310 N 
HETATM   26  C16 UNL     1      16.509  -0.867  51.952  1.00  0.00    -0.054 C 
HETATM   27  H16 UNL     1      15.009  -0.120  50.678  1.00  0.00     0.177 HD
ENDBRANCH   3  17
TORSDOF 5
ENDMDL
MODEL 7
REMARK VINA RESULT:      -7.9      3.123      6.145
REMARK  5 active torsions:
REMARK  status: ('A' for Active; 'I' for Inactive)
REMARK    1  A    between atoms: C1_2  and  C2_3 
REMARK       I    between atoms: C1_2  and  N2_14 
REMARK    2  A    between atoms: C2_3  and  N1_4 
REMARK       I    between atoms: N1_4  and  C3_5 
REMARK    3  A    between atoms: C3_5  and  O3_7 
REMARK    4  A    between atoms: O3_7  and  C4_8 
REMARK    5  A    between atoms: N2_14  and  C10_15 
ROOT
HETATM    1  O1  UNL     1      22.213   3.830  51.140  1.00  0.00    -0.272 OA
HETATM    2  C1  UNL     1      23.098   3.054  50.658  1.00  0.00     0.236 C 
HETATM    3  N2  UNL     1      22.759   1.715  50.366  1.00  0.00    -0.346 N 
HETATM    4  H9  UNL     1      23.684   1.333  50.007  1.00  0.00     0.163 HD
ENDROOT
BRANCH   2   5
HETATM    5  C2  UNL     1      24.158   4.059  50.640  1.00  0.00     0.227 C 
BRANCH   5   6
HETATM    6  N1  UNL     1      25.265   3.680  51.530  1.00  0.00    -0.328 N 
HETATM    7  C3  UNL     1      26.372   3.119  50.799  1.00  0.00     0.366 C 
HETATM    8  O2  UNL     1      26.181   3.054  49.551  1.00  0.00    -0.238 OA
HETATM    9  H3  UNL     1      25.349   3.765  52.572  1.00  0.00     0.165 HD
BRANCH   7  10
HETATM   10  O3  UNL     1      27.472   2.735  51.565  1.00  0.00    -0.262 OA
BRANCH  10  11
HETATM   11  C4  UNL     1      27.478   1.615  52.382  1.00  0.00     0.081 A 
HETATM   12  C5  UNL     1      26.713   0.499  52.113  1.00  0.00     0.037 A 
HETATM   13  C6  UNL     1      26.664  -0.640  52.869  1.00  0.00     0.003 A 
HETATM   14  C7  UNL     1      27.480  -0.622  53.996  1.00  0.00     0.000 A 
HETATM   15  C8  UNL     1      28.298   0.433  54.381  1.00  0.00     0.003 A 
HETATM   16  C9  UNL     1      28.250   1.534  53.520  1.00  0.00     0.037 A 
ENDBRANCH  10  11
ENDBRANCH   7  10
ENDBRANCH   5   6
ENDBRANCH   2   5
BRANCH   3  17
HETATM   17  C10 UNL     1      21.478   1.341  50.628  1.00  0.00     0.088 A 
HETATM   18  C11 UNL     1      22.153   0.666  51.622  1.00  0.00     0.072 A 
HETATM   19  C12 UNL     1      22.777  -0.111  52.737  1.00  0.00    -0.012 C 
HETATM   20  C17 UNL     1      20.417   0.759  51.197  1.00  0.00     0.089 A 
HETATM   21  C13 UNL     1      22.596  -0.948  53.809  1.00  0.00     0.023 C 
HETATM   22  C14 UNL     1      21.415  -1.571  54.457  1.00  0.00     0.224 C 
HETATM   23  N3  UNL     1      20.179  -1.268  53.995  1.00  0.00    -0.443 NA
HETATM   24  C15 UNL     1      19.276  -0.890  53.343  1.00  0.00     0.274 C 
HETATM   25  N4  UNL     1      18.546  -0.316  52.272  1.00  0.00    -0.310 N 
HETATM   26  C16 UNL     1      19.558   0.273  51.679  1.00  0.00    -0.054 C 
HETATM   27  H16 UNL     1      17.574  -0.337  52.032  1.00  0.00     0.177 HD
ENDBRANCH   3  17
TORSDOF 5
ENDMDL
MODEL 8
REMARK VINA RESULT:      -7.9      3.615      6.128
REMARK  5 active torsions:
REMARK  status: ('A' for Active; 'I' for Inactive)
REMARK    1  A    between atoms: C1_2  and  C2_3 
REMARK       I    between atoms: C1_2  and  N2_14 
REMARK    2  A    between atoms: C2_3  and  N1_4 
REMARK       I    between atoms: N1_4  and  C3_5 
REMARK    3  A    between atoms: C3_5  and  O3_7 
REMARK    4  A    between atoms: O3_7  and  C4_8 
REMARK    5  A    between atoms: N2_14  and  C10_15 
ROOT
HETATM    1  O1  UNL     1      23.714   3.316  52.744  1.00  0.00    -0.272 OA
HETATM    2  C1  UNL     1      23.763   2.388  51.875  1.00  0.00     0.236 C 
HETATM    3  N2  UNL     1      24.998   1.766  51.595  1.00  0.00    -0.346 N 
HETATM    4  H9  UNL     1      24.722   1.071  50.839  1.00  0.00     0.163 HD
ENDROOT
BRANCH   2   5
HETATM    5  C2  UNL     1      22.336   2.429  51.560  1.00  0.00     0.227 C 
BRANCH   5   6
HETATM    6  N1  UNL     1      21.691   1.140  51.847  1.00  0.00    -0.328 N 
HETATM    7  C3  UNL     1      20.504   1.301  52.645  1.00  0.00     0.366 C 
HETATM    8  O2  UNL     1      20.249   2.501  52.949  1.00  0.00    -0.238 OA
HETATM    9  H3  UNL     1      21.968   0.171  51.556  1.00  0.00     0.165 HD
BRANCH   7  10
HETATM   10  O3  UNL     1      19.822   0.126  52.961  1.00  0.00    -0.262 OA
BRANCH  10  11
HETATM   11  C4  UNL     1      18.633  -0.251  52.353  1.00  0.00     0.081 A 
HETATM   12  C5  UNL     1      17.705  -1.055  52.980  1.00  0.00     0.037 A 
HETATM   13  C6  UNL     1      16.514  -1.469  52.448  1.00  0.00     0.003 A 
HETATM   14  C7  UNL     1      16.266  -1.010  51.159  1.00  0.00     0.000 A 
HETATM   15  C8  UNL     1      17.113  -0.196  50.417  1.00  0.00     0.003 A 
HETATM   16  C9  UNL     1      18.295   0.151  51.079  1.00  0.00     0.037 A 
ENDBRANCH  10  11
ENDBRANCH   7  10
ENDBRANCH   5   6
ENDBRANCH   2   5
BRANCH   3  17
HETATM   17  C10 UNL     1      26.076   2.214  52.292  1.00  0.00     0.088 A 
HETATM   18  C11 UNL     1      26.330   0.860  52.267  1.00  0.00     0.072 A 
HETATM   19  C12 UNL     1      26.706  -0.587  52.305  1.00  0.00    -0.012 C 
HETATM   20  C17 UNL     1      27.226   2.237  52.977  1.00  0.00     0.089 A 
HETATM   21  C13 UNL     1      27.609  -1.539  52.705  1.00  0.00     0.023 C 
HETATM   22  C14 UNL     1      28.898  -1.510  53.441  1.00  0.00     0.224 C 
HETATM   23  N3  UNL     1      29.419  -0.314  53.800  1.00  0.00    -0.443 NA
HETATM   24  C15 UNL     1      29.572   0.828  54.041  1.00  0.00     0.274 C 
HETATM   25  N4  UNL     1      29.303   2.211  54.200  1.00  0.00    -0.310 N 
HETATM   26  C16 UNL     1      28.170   2.236  53.536  1.00  0.00    -0.054 C 
HETATM   27  H16 UNL     1      29.803   2.945  54.661  1.00  0.00     0.177 HD
ENDBRANCH   3  17
TORSDOF 5
ENDMDL
MODEL 9
REMARK VINA RESULT:      -7.8      4.109      6.347
REMARK  5 active torsions:
REMARK  status: ('A' for Active; 'I' for Inactive)
REMARK    1  A    between atoms: C1_2  and  C2_3 
REMARK       I    between atoms: C1_2  and  N2_14 
REMARK    2  A    between atoms: C2_3  and  N1_4 
REMARK       I    between atoms: N1_4  and  C3_5 
REMARK    3  A    between atoms: C3_5  and  O3_7 
REMARK    4  A    between atoms: O3_7  and  C4_8 
REMARK    5  A    between atoms: N2_14  and  C10_15 
ROOT
HETATM    1  O1  UNL     1      25.773   5.084  48.924  1.00  0.00    -0.272 OA
HETATM    2  C1  UNL     1      26.816   4.521  49.386  1.00  0.00     0.236 C 
HETATM    3  N2  UNL     1      28.086   5.055  49.077  1.00  0.00    -0.346 N 
HETATM    4  H9  UNL     1      28.732   4.375  49.577  1.00  0.00     0.163 HD
ENDROOT
BRANCH   2   5
HETATM    5  C2  UNL     1      26.093   3.471  50.100  1.00  0.00     0.227 C 
BRANCH   5   6
HETATM    6  N1  UNL     1      26.816   3.056  51.311  1.00  0.00    -0.328 N 
HETATM    7  C3  UNL     1      26.045   2.136  52.107  1.00  0.00     0.366 C 
HETATM    8  O2  UNL     1      24.908   1.869  51.623  1.00  0.00    -0.238 OA
HETATM    9  H3  UNL     1      27.771   3.328  51.649  1.00  0.00     0.165 HD
BRANCH   7  10
HETATM   10  O3  UNL     1      26.658   1.683  53.275  1.00  0.00    -0.262 OA
BRANCH  10  11
HETATM   11  C4  UNL     1      27.597   0.663  53.296  1.00  0.00     0.081 A 
HETATM   12  C5  UNL     1      28.928   0.888  53.579  1.00  0.00     0.037 A 
HETATM   13  C6  UNL     1      29.910  -0.063  53.619  1.00  0.00     0.003 A 
HETATM   14  C7  UNL     1      29.476  -1.356  53.343  1.00  0.00     0.000 A 
HETATM   15  C8  UNL     1      28.169  -1.719  53.045  1.00  0.00     0.003 A 
HETATM   16  C9  UNL     1      27.267  -0.650  53.037  1.00  0.00     0.037 A 
ENDBRANCH  10  11
ENDBRANCH   7  10
ENDBRANCH   5   6
ENDBRANCH   2   5
BRANCH   3  17
HETATM   17  C10 UNL     1      28.104   6.161  48.286  1.00  0.00     0.088 A 
HETATM   18  C11 UNL     1      29.375   5.671  48.075  1.00  0.00     0.072 A 
HETATM   19  C12 UNL     1      30.773   5.236  47.772  1.00  0.00    -0.012 C 
HETATM   20  C17 UNL     1      28.518   7.107  47.436  1.00  0.00     0.089 A 
HETATM   21  C13 UNL     1      31.936   5.470  47.083  1.00  0.00     0.023 C 
HETATM   22  C14 UNL     1      32.385   6.505  46.117  1.00  0.00     0.224 C 
HETATM   23  N3  UNL     1      31.505   7.453  45.717  1.00  0.00    -0.443 NA
HETATM   24  C15 UNL     1      30.573   8.165  45.624  1.00  0.00     0.274 C 
HETATM   25  N4  UNL     1      29.323   8.778  45.895  1.00  0.00    -0.310 N 
HETATM   26  C16 UNL     1      28.875   7.873  46.736  1.00  0.00    -0.054 C 
HETATM   27  H16 UNL     1      28.900   9.621  45.562  1.00  0.00     0.177 HD
ENDBRANCH   3  17
TORSDOF 5
ENDMDL
