MODEL 1
REMARK VINA RESULT:      -6.5      0.000      0.000
REMARK  8 active torsions:
REMARK  status: ('A' for Active; 'I' for Inactive)
REMARK    1  A    between atoms: C1_2  and  C2_3 
REMARK       I    between atoms: C1_2  and  N1_11 
REMARK    2  A    between atoms: C2_3  and  C3_4 
REMARK    3  A    between atoms: N1_11  and  S1_12 
REMARK    4  A    between atoms: S1_12  and  C9_15 
REMARK    5  A    between atoms: C9_15  and  C10_16 
REMARK    6  A    between atoms: C10_16  and  N2_17 
REMARK    7  A    between atoms: N2_17  and  C11_18 
REMARK    8  A    between atoms: C11_18  and  C12_19 
ROOT
HETATM    1  O1  UNL     1      26.274  -1.442  53.701  1.00  0.00    -0.272 OA
HETATM    2  C1  UNL     1      25.784  -0.724  54.617  1.00  0.00     0.235 C 
HETATM    3  N1  UNL     1      26.499   0.427  55.115  1.00  0.00    -0.251 N 
HETATM    4  H7  UNL     1      26.108   1.021  55.875  1.00  0.00     0.181 HD
ENDROOT
BRANCH   3   5
HETATM    5  S1  UNL     1      28.020   0.590  54.258  1.00  0.00     0.257 S 
HETATM    6  O2  UNL     1      28.856  -0.642  54.417  1.00  0.00    -0.201 OA
HETATM    7  O3  UNL     1      28.828   1.739  54.846  1.00  0.00    -0.201 OA
BRANCH   5   8
HETATM    8  C9  UNL     1      27.593   0.913  52.599  1.00  0.00     0.165 C 
BRANCH   8   9
HETATM    9  C10 UNL     1      26.871   1.947  52.218  1.00  0.00     0.092 C 
BRANCH   9  10
HETATM   10  N2  UNL     1      26.034   2.651  51.529  1.00  0.00    -0.284 NA
BRANCH  10  11
HETATM   11  C11 UNL     1      26.498   3.143  50.262  1.00  0.00     0.180 C 
BRANCH  11  12
HETATM   12  C12 UNL     1      25.942   4.493  49.881  1.00  0.00     0.244 C 
HETATM   13  F1  UNL     1      26.450   4.829  48.633  1.00  0.00    -0.254 F 
ENDBRANCH  11  12
ENDBRANCH  10  11
ENDBRANCH   9  10
ENDBRANCH   8   9
ENDBRANCH   5   8
ENDBRANCH   3   5
BRANCH   2  14
HETATM   14  C2  UNL     1      24.447  -0.969  55.280  1.00  0.00     0.142 C 
BRANCH  14  15
HETATM   15  C3  UNL     1      23.381  -0.665  54.330  1.00  0.00    -0.049 A 
HETATM   16  C4  UNL     1      23.663   0.247  53.335  1.00  0.00     0.009 A 
HETATM   17  C5  UNL     1      22.601   0.561  52.477  1.00  0.00     0.019 A 
HETATM   18  C6  UNL     1      21.334  -0.018  52.624  1.00  0.00     0.011 A 
HETATM   19 BR1  UNL     1      19.914   0.426  51.413  1.00  0.00    -0.051 Br
HETATM   20  C7  UNL     1      21.140  -0.929  53.659  1.00  0.00     0.019 A 
HETATM   21  C8  UNL     1      22.141  -1.273  54.529  1.00  0.00     0.009 A 
ENDBRANCH  14  15
ENDBRANCH   2  14
TORSDOF 8
ENDMDL
MODEL 2
REMARK VINA RESULT:      -6.4      4.451      7.192
REMARK  8 active torsions:
REMARK  status: ('A' for Active; 'I' for Inactive)
REMARK    1  A    between atoms: C1_2  and  C2_3 
REMARK       I    between atoms: C1_2  and  N1_11 
REMARK    2  A    between atoms: C2_3  and  C3_4 
REMARK    3  A    between atoms: N1_11  and  S1_12 
REMARK    4  A    between atoms: S1_12  and  C9_15 
REMARK    5  A    between atoms: C9_15  and  C10_16 
REMARK    6  A    between atoms: C10_16  and  N2_17 
REMARK    7  A    between atoms: N2_17  and  C11_18 
REMARK    8  A    between atoms: C11_18  and  C12_19 
ROOT
HETATM    1  O1  UNL     1      26.923   2.597  49.977  1.00  0.00    -0.272 OA
HETATM    2  C1  UNL     1      25.967   3.315  50.383  1.00  0.00     0.235 C 
HETATM    3  N1  UNL     1      25.556   3.284  51.766  1.00  0.00    -0.251 N 
HETATM    4  H7  UNL     1      24.764   3.866  52.109  1.00  0.00     0.181 HD
ENDROOT
BRANCH   3   5
HETATM    5  S1  UNL     1      26.569   2.163  52.655  1.00  0.00     0.257 S 
HETATM    6  O2  UNL     1      26.412   2.358  54.132  1.00  0.00    -0.201 OA
HETATM    7  O3  UNL     1      28.036   2.423  52.338  1.00  0.00    -0.201 OA
BRANCH   5   8
HETATM    8  C9  UNL     1      26.090   0.573  52.124  1.00  0.00     0.165 C 
BRANCH   8   9
HETATM    9  C10 UNL     1      26.428  -0.538  52.746  1.00  0.00     0.092 C 
BRANCH   9  10
HETATM   10  N2  UNL     1      27.168  -1.418  53.336  1.00  0.00    -0.284 NA
BRANCH  10  11
HETATM   11  C11 UNL     1      28.586  -1.301  53.138  1.00  0.00     0.180 C 
BRANCH  11  12
HETATM   12  C12 UNL     1      29.273  -0.378  54.114  1.00  0.00     0.244 C 
HETATM   13  F1  UNL     1      30.430   0.099  53.510  1.00  0.00    -0.254 F 
ENDBRANCH  11  12
ENDBRANCH  10  11
ENDBRANCH   9  10
ENDBRANCH   8   9
ENDBRANCH   5   8
ENDBRANCH   3   5
BRANCH   2  14
HETATM   14  C2  UNL     1      25.165   4.254  49.509  1.00  0.00     0.142 C 
BRANCH  14  15
HETATM   15  C3  UNL     1      25.875   5.526  49.401  1.00  0.00    -0.049 A 
HETATM   16  C4  UNL     1      26.974   5.568  48.569  1.00  0.00     0.009 A 
HETATM   17  C5  UNL     1      27.666   6.786  48.534  1.00  0.00     0.019 A 
HETATM   18  C6  UNL     1      27.263   7.889  49.297  1.00  0.00     0.011 A 
HETATM   19 BR1  UNL     1      28.230   9.543  49.202  1.00  0.00    -0.051 Br
HETATM   20  C7  UNL     1      26.141   7.755  50.111  1.00  0.00     0.019 A 
HETATM   21  C8  UNL     1      25.426   6.589  50.186  1.00  0.00     0.009 A 
ENDBRANCH  14  15
ENDBRANCH   2  14
TORSDOF 8
ENDMDL
MODEL 3
REMARK VINA RESULT:      -6.2      3.581      6.261
REMARK  8 active torsions:
REMARK  status: ('A' for Active; 'I' for Inactive)
REMARK    1  A    between atoms: C1_2  and  C2_3 
REMARK       I    between atoms: C1_2  and  N1_11 
REMARK    2  A    between atoms: C2_3  and  C3_4 
REMARK    3  A    between atoms: N1_11  and  S1_12 
REMARK    4  A    between atoms: S1_12  and  C9_15 
REMARK    5  A    between atoms: C9_15  and  C10_16 
REMARK    6  A    between atoms: C10_16  and  N2_17 
REMARK    7  A    between atoms: N2_17  and  C11_18 
REMARK    8  A    between atoms: C11_18  and  C12_19 
ROOT
HETATM    1  O1  UNL     1      25.426   2.736  53.365  1.00  0.00    -0.272 OA
HETATM    2  C1  UNL     1      25.501   2.072  52.294  1.00  0.00     0.235 C 
HETATM    3  N1  UNL     1      26.359   0.914  52.201  1.00  0.00    -0.251 N 
HETATM    4  H7  UNL     1      26.434   0.365  51.321  1.00  0.00     0.181 HD
ENDROOT
BRANCH   3   5
HETATM    5  S1  UNL     1      27.173   0.663  53.733  1.00  0.00     0.257 S 
HETATM    6  O2  UNL     1      27.654   1.963  54.301  1.00  0.00    -0.201 OA
HETATM    7  O3  UNL     1      28.409  -0.203  53.529  1.00  0.00    -0.201 OA
BRANCH   5   8
HETATM    8  C9  UNL     1      26.012  -0.139  54.758  1.00  0.00     0.165 C 
BRANCH   8   9
HETATM    9  C10 UNL     1      24.879  -0.648  54.319  1.00  0.00     0.092 C 
BRANCH   9  10
HETATM   10  N2  UNL     1      23.694  -0.702  53.806  1.00  0.00    -0.284 NA
BRANCH  10  11
HETATM   11  C11 UNL     1      22.626  -1.071  54.693  1.00  0.00     0.180 C 
BRANCH  11  12
HETATM   12  C12 UNL     1      21.276  -0.527  54.296  1.00  0.00     0.244 C 
HETATM   13  F1  UNL     1      20.892   0.405  55.252  1.00  0.00    -0.254 F 
ENDBRANCH  11  12
ENDBRANCH  10  11
ENDBRANCH   9  10
ENDBRANCH   8   9
ENDBRANCH   5   8
ENDBRANCH   3   5
BRANCH   2  14
HETATM   14  C2  UNL     1      24.737   2.392  51.028  1.00  0.00     0.142 C 
BRANCH  14  15
HETATM   15  C3  UNL     1      25.373   3.526  50.363  1.00  0.00    -0.049 A 
HETATM   16  C4  UNL     1      24.734   4.746  50.444  1.00  0.00     0.009 A 
HETATM   17  C5  UNL     1      25.340   5.799  49.746  1.00  0.00     0.019 A 
HETATM   18  C6  UNL     1      26.521   5.619  49.013  1.00  0.00     0.011 A 
HETATM   19 BR1  UNL     1      27.325   7.096  48.090  1.00  0.00    -0.051 Br
HETATM   20  C7  UNL     1      27.095   4.351  48.987  1.00  0.00     0.019 A 
HETATM   21  C8  UNL     1      26.548   3.285  49.649  1.00  0.00     0.009 A 
ENDBRANCH  14  15
ENDBRANCH   2  14
TORSDOF 8
ENDMDL
MODEL 4
REMARK VINA RESULT:      -6.2      4.670      6.172
REMARK  8 active torsions:
REMARK  status: ('A' for Active; 'I' for Inactive)
REMARK    1  A    between atoms: C1_2  and  C2_3 
REMARK       I    between atoms: C1_2  and  N1_11 
REMARK    2  A    between atoms: C2_3  and  C3_4 
REMARK    3  A    between atoms: N1_11  and  S1_12 
REMARK    4  A    between atoms: S1_12  and  C9_15 
REMARK    5  A    between atoms: C9_15  and  C10_16 
REMARK    6  A    between atoms: C10_16  and  N2_17 
REMARK    7  A    between atoms: N2_17  and  C11_18 
REMARK    8  A    between atoms: C11_18  and  C12_19 
ROOT
HETATM    1  O1  UNL     1      23.788   1.452  51.120  1.00  0.00    -0.272 OA
HETATM    2  C1  UNL     1      23.803   1.628  52.370  1.00  0.00     0.235 C 
HETATM    3  N1  UNL     1      23.665   2.951  52.932  1.00  0.00    -0.251 N 
HETATM    4  H7  UNL     1      23.684   3.107  53.961  1.00  0.00     0.181 HD
ENDROOT
BRANCH   3   5
HETATM    5  S1  UNL     1      23.485   4.122  51.640  1.00  0.00     0.257 S 
HETATM    6  O2  UNL     1      24.518   3.904  50.576  1.00  0.00    -0.201 OA
HETATM    7  O3  UNL     1      23.710   5.529  52.178  1.00  0.00    -0.201 OA
BRANCH   5   8
HETATM    8  C9  UNL     1      21.854   3.931  51.054  1.00  0.00     0.165 C 
BRANCH   8   9
HETATM    9  C10 UNL     1      20.850   3.532  51.807  1.00  0.00     0.092 C 
BRANCH   9  10
HETATM   10  N2  UNL     1      20.201   2.876  52.712  1.00  0.00    -0.284 NA
BRANCH  10  11
HETATM   11  C11 UNL     1      19.644   1.613  52.315  1.00  0.00     0.180 C 
BRANCH  11  12
HETATM   12  C12 UNL     1      20.250   0.421  53.015  1.00  0.00     0.244 C 
HETATM   13  F1  UNL     1      20.709   0.842  54.257  1.00  0.00    -0.254 F 
ENDBRANCH  11  12
ENDBRANCH  10  11
ENDBRANCH   9  10
ENDBRANCH   8   9
ENDBRANCH   5   8
ENDBRANCH   3   5
BRANCH   2  14
HETATM   14  C2  UNL     1      23.963   0.524  53.392  1.00  0.00     0.142 C 
BRANCH  14  15
HETATM   15  C3  UNL     1      25.375   0.161  53.483  1.00  0.00    -0.049 A 
HETATM   16  C4  UNL     1      26.176   0.937  54.294  1.00  0.00     0.009 A 
HETATM   17  C5  UNL     1      27.535   0.597  54.312  1.00  0.00     0.019 A 
HETATM   18  C6  UNL     1      28.044  -0.464  53.552  1.00  0.00     0.011 A 
HETATM   19 BR1  UNL     1      29.909  -0.905  53.624  1.00  0.00    -0.051 Br
HETATM   20  C7  UNL     1      27.160  -1.192  52.760  1.00  0.00     0.019 A 
HETATM   21  C8  UNL     1      25.822  -0.906  52.702  1.00  0.00     0.009 A 
ENDBRANCH  14  15
ENDBRANCH   2  14
TORSDOF 8
ENDMDL
MODEL 5
REMARK VINA RESULT:      -6.1      4.328      5.600
REMARK  8 active torsions:
REMARK  status: ('A' for Active; 'I' for Inactive)
REMARK    1  A    between atoms: C1_2  and  C2_3 
REMARK       I    between atoms: C1_2  and  N1_11 
REMARK    2  A    between atoms: C2_3  and  C3_4 
REMARK    3  A    between atoms: N1_11  and  S1_12 
REMARK    4  A    between atoms: S1_12  and  C9_15 
REMARK    5  A    between atoms: C9_15  and  C10_16 
REMARK    6  A    between atoms: C10_16  and  N2_17 
REMARK    7  A    between atoms: N2_17  and  C11_18 
REMARK    8  A    between atoms: C11_18  and  C12_19 
ROOT
HETATM    1  O1  UNL     1      23.990   1.974  50.775  1.00  0.00    -0.272 OA
HETATM    2  C1  UNL     1      24.339   2.433  51.899  1.00  0.00     0.235 C 
HETATM    3  N1  UNL     1      24.699   3.823  52.050  1.00  0.00    -0.251 N 
HETATM    4  H7  UNL     1      24.996   4.209  52.969  1.00  0.00     0.181 HD
ENDROOT
BRANCH   3   5
HETATM    5  S1  UNL     1      24.553   4.638  50.505  1.00  0.00     0.257 S 
HETATM    6  O2  UNL     1      24.735   6.117  50.664  1.00  0.00    -0.201 OA
HETATM    7  O3  UNL     1      23.154   4.434  49.940  1.00  0.00    -0.201 OA
BRANCH   5   8
HETATM    8  C9  UNL     1      25.755   3.912  49.473  1.00  0.00     0.165 C 
BRANCH   8   9
HETATM    9  C10 UNL     1      26.836   4.538  49.056  1.00  0.00     0.092 C 
BRANCH   9  10
HETATM   10  N2  UNL     1      28.049   4.718  48.646  1.00  0.00    -0.284 NA
BRANCH  10  11
HETATM   11  C11 UNL     1      28.390   6.045  48.214  1.00  0.00     0.180 C 
BRANCH  11  12
HETATM   12  C12 UNL     1      27.334   7.082  48.506  1.00  0.00     0.244 C 
HETATM   13  F1  UNL     1      26.701   7.397  47.310  1.00  0.00    -0.254 F 
ENDBRANCH  11  12
ENDBRANCH  10  11
ENDBRANCH   9  10
ENDBRANCH   8   9
ENDBRANCH   5   8
ENDBRANCH   3   5
BRANCH   2  14
HETATM   14  C2  UNL     1      24.424   1.619  53.171  1.00  0.00     0.142 C 
BRANCH  14  15
HETATM   15  C3  UNL     1      25.738   0.986  53.244  1.00  0.00    -0.049 A 
HETATM   16  C4  UNL     1      25.848  -0.300  52.757  1.00  0.00     0.009 A 
HETATM   17  C5  UNL     1      27.107  -0.898  52.896  1.00  0.00     0.019 A 
HETATM   18  C6  UNL     1      28.183  -0.230  53.494  1.00  0.00     0.011 A 
HETATM   19 BR1  UNL     1      29.894  -1.083  53.645  1.00  0.00    -0.051 Br
HETATM   20  C7  UNL     1      27.979   1.067  53.959  1.00  0.00     0.019 A 
HETATM   21  C8  UNL     1      26.770   1.702  53.850  1.00  0.00     0.009 A 
ENDBRANCH  14  15
ENDBRANCH   2  14
TORSDOF 8
ENDMDL
MODEL 6
REMARK VINA RESULT:      -6.0      1.716      1.926
REMARK  8 active torsions:
REMARK  status: ('A' for Active; 'I' for Inactive)
REMARK    1  A    between atoms: C1_2  and  C2_3 
REMARK       I    between atoms: C1_2  and  N1_11 
REMARK    2  A    between atoms: C2_3  and  C3_4 
REMARK    3  A    between atoms: N1_11  and  S1_12 
REMARK    4  A    between atoms: S1_12  and  C9_15 
REMARK    5  A    between atoms: C9_15  and  C10_16 
REMARK    6  A    between atoms: C10_16  and  N2_17 
REMARK    7  A    between atoms: N2_17  and  C11_18 
REMARK    8  A    between atoms: C11_18  and  C12_19 
ROOT
HETATM    1  O1  UNL     1      24.159   0.874  53.656  1.00  0.00    -0.272 OA
HETATM    2  C1  UNL     1      24.146  -0.294  54.136  1.00  0.00     0.235 C 
HETATM    3  N1  UNL     1      25.377  -0.961  54.489  1.00  0.00    -0.251 N 
HETATM    4  H7  UNL     1      25.378  -1.926  54.877  1.00  0.00     0.181 HD
ENDROOT
BRANCH   3   5
HETATM    5  S1  UNL     1      26.735   0.093  54.148  1.00  0.00     0.257 S 
HETATM    6  O2  UNL     1      27.985  -0.422  54.793  1.00  0.00    -0.201 OA
HETATM    7  O3  UNL     1      26.482   1.475  54.738  1.00  0.00    -0.201 OA
BRANCH   5   8
HETATM    8  C9  UNL     1      26.848   0.169  52.410  1.00  0.00     0.165 C 
BRANCH   8   9
HETATM    9  C10 UNL     1      26.841   1.294  51.725  1.00  0.00     0.092 C 
BRANCH   9  10
HETATM   10  N2  UNL     1      27.076   2.529  51.423  1.00  0.00    -0.284 NA
BRANCH  10  11
HETATM   11  C11 UNL     1      26.148   3.158  50.524  1.00  0.00     0.180 C 
BRANCH  11  12
HETATM   12  C12 UNL     1      24.743   3.271  51.064  1.00  0.00     0.244 C 
HETATM   13  F1  UNL     1      23.994   2.233  50.524  1.00  0.00    -0.254 F 
ENDBRANCH  11  12
ENDBRANCH  10  11
ENDBRANCH   9  10
ENDBRANCH   8   9
ENDBRANCH   5   8
ENDBRANCH   3   5
BRANCH   2  14
HETATM   14  C2  UNL     1      22.895  -1.106  54.389  1.00  0.00     0.142 C 
BRANCH  14  15
HETATM   15  C3  UNL     1      21.856  -0.681  53.456  1.00  0.00    -0.049 A 
HETATM   16  C4  UNL     1      22.259  -0.283  52.198  1.00  0.00     0.009 A 
HETATM   17  C5  UNL     1      21.242   0.174  51.349  1.00  0.00     0.019 A 
HETATM   18  C6  UNL     1      19.903   0.222  51.755  1.00  0.00     0.011 A 
HETATM   19 BR1  UNL     1      18.543   0.837  50.550  1.00  0.00    -0.051 Br
HETATM   20  C7  UNL     1      19.588  -0.199  53.045  1.00  0.00     0.019 A 
HETATM   21  C8  UNL     1      20.539  -0.655  53.919  1.00  0.00     0.009 A 
ENDBRANCH  14  15
ENDBRANCH   2  14
TORSDOF 8
ENDMDL
MODEL 7
REMARK VINA RESULT:      -5.9      4.185      5.453
REMARK  8 active torsions:
REMARK  status: ('A' for Active; 'I' for Inactive)
REMARK    1  A    between atoms: C1_2  and  C2_3 
REMARK       I    between atoms: C1_2  and  N1_11 
REMARK    2  A    between atoms: C2_3  and  C3_4 
REMARK    3  A    between atoms: N1_11  and  S1_12 
REMARK    4  A    between atoms: S1_12  and  C9_15 
REMARK    5  A    between atoms: C9_15  and  C10_16 
REMARK    6  A    between atoms: C10_16  and  N2_17 
REMARK    7  A    between atoms: N2_17  and  C11_18 
REMARK    8  A    between atoms: C11_18  and  C12_19 
ROOT
HETATM    1  O1  UNL     1      24.470   1.654  51.673  1.00  0.00    -0.272 OA
HETATM    2  C1  UNL     1      23.723   1.207  52.588  1.00  0.00     0.235 C 
HETATM    3  N1  UNL     1      22.431   1.798  52.843  1.00  0.00    -0.251 N 
HETATM    4  H7  UNL     1      21.812   1.443  53.600  1.00  0.00     0.181 HD
ENDROOT
BRANCH   3   5
HETATM    5  S1  UNL     1      22.159   3.119  51.722  1.00  0.00     0.257 S 
HETATM    6  O2  UNL     1      20.752   3.624  51.825  1.00  0.00    -0.201 OA
HETATM    7  O3  UNL     1      22.339   2.631  50.291  1.00  0.00    -0.201 OA
BRANCH   5   8
HETATM    8  C9  UNL     1      23.348   4.329  52.122  1.00  0.00     0.165 C 
BRANCH   8   9
HETATM    9  C10 UNL     1      23.913   5.121  51.234  1.00  0.00     0.092 C 
BRANCH   9  10
HETATM   10  N2  UNL     1      24.294   5.573  50.085  1.00  0.00    -0.284 NA
BRANCH  10  11
HETATM   11  C11 UNL     1      24.986   4.650  49.228  1.00  0.00     0.180 C 
BRANCH  11  12
HETATM   12  C12 UNL     1      26.247   4.077  49.826  1.00  0.00     0.244 C 
HETATM   13  F1  UNL     1      27.208   4.022  48.825  1.00  0.00    -0.254 F 
ENDBRANCH  11  12
ENDBRANCH  10  11
ENDBRANCH   9  10
ENDBRANCH   8   9
ENDBRANCH   5   8
ENDBRANCH   3   5
BRANCH   2  14
HETATM   14  C2  UNL     1      24.074   0.048  53.495  1.00  0.00     0.142 C 
BRANCH  14  15
HETATM   15  C3  UNL     1      25.525  -0.116  53.518  1.00  0.00    -0.049 A 
HETATM   16  C4  UNL     1      26.065  -1.089  52.704  1.00  0.00     0.009 A 
HETATM   17  C5  UNL     1      27.453  -1.258  52.795  1.00  0.00     0.019 A 
HETATM   18  C6  UNL     1      28.239  -0.486  53.660  1.00  0.00     0.011 A 
HETATM   19 BR1  UNL     1      30.138  -0.740  53.736  1.00  0.00    -0.051 Br
HETATM   20  C7  UNL     1      27.607   0.474  54.446  1.00  0.00     0.019 A 
HETATM   21  C8  UNL     1      26.254   0.683  54.400  1.00  0.00     0.009 A 
ENDBRANCH  14  15
ENDBRANCH   2  14
TORSDOF 8
ENDMDL
MODEL 8
REMARK VINA RESULT:      -5.9      1.900      2.207
REMARK  8 active torsions:
REMARK  status: ('A' for Active; 'I' for Inactive)
REMARK    1  A    between atoms: C1_2  and  C2_3 
REMARK       I    between atoms: C1_2  and  N1_11 
REMARK    2  A    between atoms: C2_3  and  C3_4 
REMARK    3  A    between atoms: N1_11  and  S1_12 
REMARK    4  A    between atoms: S1_12  and  C9_15 
REMARK    5  A    between atoms: C9_15  and  C10_16 
REMARK    6  A    between atoms: C10_16  and  N2_17 
REMARK    7  A    between atoms: N2_17  and  C11_18 
REMARK    8  A    between atoms: C11_18  and  C12_19 
ROOT
HETATM    1  O1  UNL     1      25.229  -1.088  53.286  1.00  0.00    -0.272 OA
HETATM    2  C1  UNL     1      25.075  -0.876  54.521  1.00  0.00     0.235 C 
HETATM    3  N1  UNL     1      26.091  -0.193  55.286  1.00  0.00    -0.251 N 
HETATM    4  H7  UNL     1      25.977  -0.020  56.306  1.00  0.00     0.181 HD
ENDROOT
BRANCH   3   5
HETATM    5  S1  UNL     1      27.428   0.234  54.236  1.00  0.00     0.257 S 
HETATM    6  O2  UNL     1      27.619  -0.800  53.169  1.00  0.00    -0.201 OA
HETATM    7  O3  UNL     1      28.724   0.275  55.036  1.00  0.00    -0.201 OA
BRANCH   5   8
HETATM    8  C9  UNL     1      27.041   1.809  53.597  1.00  0.00     0.165 C 
BRANCH   8   9
HETATM    9  C10 UNL     1      25.812   2.223  53.369  1.00  0.00     0.092 C 
BRANCH   9  10
HETATM   10  N2  UNL     1      24.836   3.024  53.089  1.00  0.00    -0.284 NA
BRANCH  10  11
HETATM   11  C11 UNL     1      24.288   2.930  51.765  1.00  0.00     0.180 C 
BRANCH  11  12
HETATM   12  C12 UNL     1      23.096   3.824  51.523  1.00  0.00     0.244 C 
HETATM   13  F1  UNL     1      22.634   4.263  52.758  1.00  0.00    -0.254 F 
ENDBRANCH  11  12
ENDBRANCH  10  11
ENDBRANCH   9  10
ENDBRANCH   8   9
ENDBRANCH   5   8
ENDBRANCH   3   5
BRANCH   2  14
HETATM   14  C2  UNL     1      23.861  -1.295  55.320  1.00  0.00     0.142 C 
BRANCH  14  15
HETATM   15  C3  UNL     1      22.655  -0.928  54.583  1.00  0.00    -0.049 A 
HETATM   16  C4  UNL     1      21.596  -1.811  54.622  1.00  0.00     0.009 A 
HETATM   17  C5  UNL     1      20.478  -1.455  53.856  1.00  0.00     0.019 A 
HETATM   18  C6  UNL     1      20.442  -0.277  53.100  1.00  0.00     0.011 A 
HETATM   19 BR1  UNL     1      18.881   0.178  52.082  1.00  0.00    -0.051 Br
HETATM   20  C7  UNL     1      21.559   0.554  53.119  1.00  0.00     0.019 A 
HETATM   21  C8  UNL     1      22.680   0.258  53.848  1.00  0.00     0.009 A 
ENDBRANCH  14  15
ENDBRANCH   2  14
TORSDOF 8
ENDMDL
MODEL 9
REMARK VINA RESULT:      -5.8      4.529      5.931
REMARK  8 active torsions:
REMARK  status: ('A' for Active; 'I' for Inactive)
REMARK    1  A    between atoms: C1_2  and  C2_3 
REMARK       I    between atoms: C1_2  and  N1_11 
REMARK    2  A    between atoms: C2_3  and  C3_4 
REMARK    3  A    between atoms: N1_11  and  S1_12 
REMARK    4  A    between atoms: S1_12  and  C9_15 
REMARK    5  A    between atoms: C9_15  and  C10_16 
REMARK    6  A    between atoms: C10_16  and  N2_17 
REMARK    7  A    between atoms: N2_17  and  C11_18 
REMARK    8  A    between atoms: C11_18  and  C12_19 
ROOT
HETATM    1  O1  UNL     1      24.012   2.333  50.616  1.00  0.00    -0.272 OA
HETATM    2  C1  UNL     1      24.256   2.850  51.742  1.00  0.00     0.235 C 
HETATM    3  N1  UNL     1      24.489   4.269  51.869  1.00  0.00    -0.251 N 
HETATM    4  H7  UNL     1      24.700   4.703  52.791  1.00  0.00     0.181 HD
ENDROOT
BRANCH   3   5
HETATM    5  S1  UNL     1      24.364   5.027  50.293  1.00  0.00     0.257 S 
HETATM    6  O2  UNL     1      22.962   4.944  49.772  1.00  0.00    -0.201 OA
HETATM    7  O3  UNL     1      25.242   4.291  49.291  1.00  0.00    -0.201 OA
BRANCH   5   8
HETATM    8  C9  UNL     1      24.911   6.668  50.515  1.00  0.00     0.165 C 
BRANCH   8   9
HETATM    9  C10 UNL     1      25.929   7.193  49.865  1.00  0.00     0.092 C 
BRANCH   9  10
HETATM   10  N2  UNL     1      26.940   7.957  49.614  1.00  0.00    -0.284 NA
BRANCH  10  11
HETATM   11  C11 UNL     1      27.725   7.625  48.457  1.00  0.00     0.180 C 
BRANCH  11  12
HETATM   12  C12 UNL     1      27.937   6.145  48.258  1.00  0.00     0.244 C 
HETATM   13  F1  UNL     1      29.134   5.973  47.574  1.00  0.00    -0.254 F 
ENDBRANCH  11  12
ENDBRANCH  10  11
ENDBRANCH   9  10
ENDBRANCH   8   9
ENDBRANCH   5   8
ENDBRANCH   3   5
BRANCH   2  14
HETATM   14  C2  UNL     1      24.336   2.080  53.042  1.00  0.00     0.142 C 
BRANCH  14  15
HETATM   15  C3  UNL     1      25.622   1.392  53.110  1.00  0.00    -0.049 A 
HETATM   16  C4  UNL     1      25.651   0.068  52.725  1.00  0.00     0.009 A 
HETATM   17  C5  UNL     1      26.887  -0.578  52.858  1.00  0.00     0.019 A 
HETATM   18  C6  UNL     1      28.019   0.083  53.352  1.00  0.00     0.011 A 
HETATM   19 BR1  UNL     1      29.696  -0.837  53.498  1.00  0.00    -0.051 Br
HETATM   20  C7  UNL     1      27.896   1.421  53.717  1.00  0.00     0.019 A 
HETATM   21  C8  UNL     1      26.713   2.103  53.609  1.00  0.00     0.009 A 
ENDBRANCH  14  15
ENDBRANCH   2  14
TORSDOF 8
ENDMDL
