MODEL 1
REMARK VINA RESULT:      -7.1      0.000      0.000
REMARK  9 active torsions:
REMARK  status: ('A' for Active; 'I' for Inactive)
REMARK    1  A    between atoms: O1_2  and  C2_3 
REMARK    2  A    between atoms: C4_5  and  N1_6 
REMARK    3  A    between atoms: C7_9  and  O2_10 
REMARK    4  A    between atoms: O2_10  and  C8_11 
REMARK    5  A    between atoms: C9_12  and  C10_13 
REMARK    6  A    between atoms: C9_12  and  N3_15 
REMARK    7  A    between atoms: C10_13  and  N2_14 
REMARK    8  A    between atoms: N3_15  and  C11_16 
REMARK    9  A    between atoms: C16_21  and  N4_22 
ROOT
HETATM    1  C8  UNL     1      26.124   1.879  53.456  1.00  0.00     0.169 C 
HETATM    2  C9  UNL     1      25.042   2.076  52.717  1.00  0.00     0.056 C 
ENDROOT
BRANCH   2   3
HETATM    3  C10 UNL     1      24.217   0.935  52.303  1.00  0.00     0.325 C 
BRANCH   3   4
HETATM    4  N2  UNL     1      23.372   0.451  53.405  1.00  0.00     0.083 N 
HETATM    5  H14 UNL     1      22.675   1.184  53.605  1.00  0.00     0.313 HD
HETATM    6  H15 UNL     1      22.909  -0.401  53.071  1.00  0.00     0.313 HD
ENDBRANCH   3   4
ENDBRANCH   2   3
BRANCH   2   7
HETATM    7  N3  UNL     1      24.787   3.431  52.387  1.00  0.00    -0.380 N 
HETATM    8  H16 UNL     1      24.734   4.132  53.147  1.00  0.00     0.160 HD
BRANCH   7   9
HETATM    9  C11 UNL     1      24.596   3.891  51.036  1.00  0.00     0.134 A 
HETATM   10  C12 UNL     1      25.463   3.244  50.026  1.00  0.00     0.058 A 
HETATM   11  C13 UNL     1      26.157   4.269  49.222  1.00  0.00    -0.024 A 
HETATM   12  C14 UNL     1      26.211   5.586  49.167  1.00  0.00    -0.002 A 
HETATM   13  C15 UNL     1      25.363   6.233  50.160  1.00  0.00     0.026 A 
HETATM   14  C16 UNL     1      24.717   5.356  50.906  1.00  0.00     0.026 A 
BRANCH  14  15
HETATM   15  N4  UNL     1      23.855   5.918  51.919  1.00  0.00    -0.401 N 
HETATM   16  H23 UNL     1      23.667   6.258  52.880  1.00  0.00     0.156 HD
HETATM   17  H24 UNL     1      23.196   6.320  52.606  1.00  0.00     0.156 HD
ENDBRANCH  14  15
ENDBRANCH   7   9
ENDBRANCH   2   7
BRANCH   1  18
HETATM   18  O2  UNL     1      26.236   0.527  53.687  1.00  0.00    -0.318 OA
BRANCH  18  19
HETATM   19  C7  UNL     1      27.384  -0.212  53.555  1.00  0.00     0.112 A 
HETATM   20  C2  UNL     1      28.673   0.044  54.221  1.00  0.00     0.101 A 
HETATM   21  C3  UNL     1      29.487  -0.906  53.808  1.00  0.00     0.052 A 
HETATM   22  C4  UNL     1      28.837  -1.837  52.873  1.00  0.00     0.275 A 
HETATM   23  C5  UNL     1      27.458  -1.273  52.788  1.00  0.00    -0.011 A 
HETATM   24  C6  UNL     1      26.438  -1.898  51.945  1.00  0.00     0.049 C 
BRANCH  20  25
HETATM   25  O1  UNL     1      28.960   1.079  55.101  1.00  0.00    -0.353 OA
HETATM   26  C1  UNL     1      29.771   2.152  54.629  1.00  0.00     0.210 C 
ENDBRANCH  20  25
BRANCH  22  27
HETATM   27  N1  UNL     1      28.777  -3.166  53.451  1.00  0.00     0.090 N 
HETATM   28  H6  UNL     1      27.829  -3.559  53.320  1.00  0.00     0.314 HD
HETATM   29  H7  UNL     1      29.511  -3.768  53.047  1.00  0.00     0.314 HD
ENDBRANCH  22  27
ENDBRANCH  18  19
ENDBRANCH   1  18
TORSDOF 9
ENDMDL
MODEL 2
REMARK VINA RESULT:      -7.0      3.129      6.795
REMARK  9 active torsions:
REMARK  status: ('A' for Active; 'I' for Inactive)
REMARK    1  A    between atoms: O1_2  and  C2_3 
REMARK    2  A    between atoms: C4_5  and  N1_6 
REMARK    3  A    between atoms: C7_9  and  O2_10 
REMARK    4  A    between atoms: O2_10  and  C8_11 
REMARK    5  A    between atoms: C9_12  and  C10_13 
REMARK    6  A    between atoms: C9_12  and  N3_15 
REMARK    7  A    between atoms: C10_13  and  N2_14 
REMARK    8  A    between atoms: N3_15  and  C11_16 
REMARK    9  A    between atoms: C16_21  and  N4_22 
ROOT
HETATM    1  C8  UNL     1      23.876   0.611  52.537  1.00  0.00     0.169 C 
HETATM    2  C9  UNL     1      24.672   1.495  53.120  1.00  0.00     0.056 C 
ENDROOT
BRANCH   2   3
HETATM    3  C10 UNL     1      24.334   2.922  53.092  1.00  0.00     0.325 C 
BRANCH   3   4
HETATM    4  N2  UNL     1      24.937   3.598  51.934  1.00  0.00     0.083 N 
HETATM    5  H14 UNL     1      25.579   4.318  52.296  1.00  0.00     0.313 HD
HETATM    6  H15 UNL     1      25.459   2.884  51.413  1.00  0.00     0.313 HD
ENDBRANCH   3   4
ENDBRANCH   2   3
BRANCH   2   7
HETATM    7  N3  UNL     1      25.821   0.940  53.738  1.00  0.00    -0.380 N 
HETATM    8  H16 UNL     1      25.798   0.734  54.753  1.00  0.00     0.160 HD
BRANCH   7   9
HETATM    9  C11 UNL     1      27.035   0.642  53.022  1.00  0.00     0.134 A 
HETATM   10  C12 UNL     1      27.271  -0.795  52.761  1.00  0.00     0.058 A 
HETATM   11  C13 UNL     1      28.621  -1.178  53.219  1.00  0.00    -0.024 A 
HETATM   12  C14 UNL     1      29.655  -0.591  53.791  1.00  0.00    -0.002 A 
HETATM   13  C15 UNL     1      29.431   0.825  54.055  1.00  0.00     0.026 A 
HETATM   14  C16 UNL     1      28.234   1.218  53.661  1.00  0.00     0.026 A 
BRANCH  14  15
HETATM   15  N4  UNL     1      27.932   2.612  53.890  1.00  0.00    -0.401 N 
HETATM   16  H23 UNL     1      28.148   3.547  54.282  1.00  0.00     0.156 HD
HETATM   17  H24 UNL     1      27.667   3.602  54.025  1.00  0.00     0.156 HD
ENDBRANCH  14  15
ENDBRANCH   7   9
ENDBRANCH   2   7
BRANCH   1  18
HETATM   18  O2  UNL     1      22.818   1.298  51.987  1.00  0.00    -0.318 OA
BRANCH  18  19
HETATM   19  C7  UNL     1      21.519   0.858  51.941  1.00  0.00     0.112 A 
HETATM   20  C2  UNL     1      20.695   0.435  53.087  1.00  0.00     0.101 A 
HETATM   21  C3  UNL     1      19.526   0.095  52.585  1.00  0.00     0.052 A 
HETATM   22  C4  UNL     1      19.472   0.257  51.124  1.00  0.00     0.275 A 
HETATM   23  C5  UNL     1      20.843   0.764  50.822  1.00  0.00    -0.011 A 
HETATM   24  C6  UNL     1      21.248   1.071  49.449  1.00  0.00     0.049 C 
BRANCH  20  25
HETATM   25  O1  UNL     1      21.084   0.405  54.420  1.00  0.00    -0.353 OA
HETATM   26  C1  UNL     1      21.653  -0.802  54.923  1.00  0.00     0.210 C 
ENDBRANCH  20  25
BRANCH  22  27
HETATM   27  N1  UNL     1      18.497   1.270  50.768  1.00  0.00     0.090 N 
HETATM   28  H6  UNL     1      18.984   2.147  50.514  1.00  0.00     0.314 HD
HETATM   29  H7  UNL     1      17.883   0.929  50.013  1.00  0.00     0.314 HD
ENDBRANCH  22  27
ENDBRANCH  18  19
ENDBRANCH   1  18
TORSDOF 9
ENDMDL
MODEL 3
REMARK VINA RESULT:      -6.8      2.515      6.952
REMARK  9 active torsions:
REMARK  status: ('A' for Active; 'I' for Inactive)
REMARK    1  A    between atoms: O1_2  and  C2_3 
REMARK    2  A    between atoms: C4_5  and  N1_6 
REMARK    3  A    between atoms: C7_9  and  O2_10 
REMARK    4  A    between atoms: O2_10  and  C8_11 
REMARK    5  A    between atoms: C9_12  and  C10_13 
REMARK    6  A    between atoms: C9_12  and  N3_15 
REMARK    7  A    between atoms: C10_13  and  N2_14 
REMARK    8  A    between atoms: N3_15  and  C11_16 
REMARK    9  A    between atoms: C16_21  and  N4_22 
ROOT
HETATM    1  C8  UNL     1      25.679   2.903  51.332  1.00  0.00     0.169 C 
HETATM    2  C9  UNL     1      25.018   2.187  52.229  1.00  0.00     0.056 C 
ENDROOT
BRANCH   2   3
HETATM    3  C10 UNL     1      23.556   2.275  52.309  1.00  0.00     0.325 C 
BRANCH   3   4
HETATM    4  N2  UNL     1      22.907   1.455  51.275  1.00  0.00     0.083 N 
HETATM    5  H14 UNL     1      22.845   2.029  50.421  1.00  0.00     0.313 HD
HETATM    6  H15 UNL     1      23.514   0.643  51.117  1.00  0.00     0.313 HD
ENDBRANCH   3   4
ENDBRANCH   2   3
BRANCH   2   7
HETATM    7  N3  UNL     1      25.834   1.375  53.056  1.00  0.00    -0.380 N 
HETATM    8  H16 UNL     1      25.496   1.117  54.000  1.00  0.00     0.160 HD
BRANCH   7   9
HETATM    9  C11 UNL     1      27.126   0.881  52.649  1.00  0.00     0.134 A 
HETATM   10  C12 UNL     1      27.176  -0.569  52.354  1.00  0.00     0.058 A 
HETATM   11  C13 UNL     1      28.276  -1.200  53.108  1.00  0.00    -0.024 A 
HETATM   12  C14 UNL     1      29.209  -0.825  53.962  1.00  0.00    -0.002 A 
HETATM   13  C15 UNL     1      29.165   0.601  54.261  1.00  0.00     0.026 A 
HETATM   14  C16 UNL     1      28.196   1.214  53.608  1.00  0.00     0.026 A 
BRANCH  14  15
HETATM   15  N4  UNL     1      28.083   2.633  53.852  1.00  0.00    -0.401 N 
HETATM   16  H23 UNL     1      28.321   3.622  53.650  1.00  0.00     0.156 HD
HETATM   17  H24 UNL     1      27.966   3.637  54.069  1.00  0.00     0.156 HD
ENDBRANCH  14  15
ENDBRANCH   7   9
ENDBRANCH   2   7
BRANCH   1  18
HETATM   18  O2  UNL     1      24.758   3.633  50.616  1.00  0.00    -0.318 OA
BRANCH  18  19
HETATM   19  C7  UNL     1      24.748   4.999  50.488  1.00  0.00     0.112 A 
HETATM   20  C2  UNL     1      23.795   5.931  51.116  1.00  0.00     0.101 A 
HETATM   21  C3  UNL     1      24.157   7.135  50.722  1.00  0.00     0.052 A 
HETATM   22  C4  UNL     1      25.331   7.109  49.836  1.00  0.00     0.275 A 
HETATM   23  C5  UNL     1      25.624   5.648  49.760  1.00  0.00    -0.011 A 
HETATM   24  C6  UNL     1      26.744   5.144  48.963  1.00  0.00     0.049 C 
BRANCH  20  25
HETATM   25  O1  UNL     1      22.737   5.597  51.950  1.00  0.00    -0.353 OA
HETATM   26  C1  UNL     1      21.500   5.225  51.345  1.00  0.00     0.210 C 
ENDBRANCH  20  25
BRANCH  22  27
HETATM   27  N1  UNL     1      26.447   7.789  50.466  1.00  0.00     0.090 N 
HETATM   28  H6  UNL     1      26.440   8.789  50.199  1.00  0.00     0.314 HD
HETATM   29  H7  UNL     1      26.421   7.655  51.488  1.00  0.00     0.314 HD
ENDBRANCH  22  27
ENDBRANCH  18  19
ENDBRANCH   1  18
TORSDOF 9
ENDMDL
MODEL 4
REMARK VINA RESULT:      -6.7      2.985      7.137
REMARK  9 active torsions:
REMARK  status: ('A' for Active; 'I' for Inactive)
REMARK    1  A    between atoms: O1_2  and  C2_3 
REMARK    2  A    between atoms: C4_5  and  N1_6 
REMARK    3  A    between atoms: C7_9  and  O2_10 
REMARK    4  A    between atoms: O2_10  and  C8_11 
REMARK    5  A    between atoms: C9_12  and  C10_13 
REMARK    6  A    between atoms: C9_12  and  N3_15 
REMARK    7  A    between atoms: C10_13  and  N2_14 
REMARK    8  A    between atoms: N3_15  and  C11_16 
REMARK    9  A    between atoms: C16_21  and  N4_22 
ROOT
HETATM    1  C8  UNL     1      24.040   0.088  53.007  1.00  0.00     0.169 C 
HETATM    2  C9  UNL     1      25.089   0.641  52.415  1.00  0.00     0.056 C 
ENDROOT
BRANCH   2   3
HETATM    3  C10 UNL     1      24.999   2.007  51.886  1.00  0.00     0.325 C 
BRANCH   3   4
HETATM    4  N2  UNL     1      25.111   3.010  52.956  1.00  0.00     0.083 N 
HETATM    5  H14 UNL     1      24.179   3.431  53.083  1.00  0.00     0.313 HD
HETATM    6  H15 UNL     1      25.396   2.508  53.804  1.00  0.00     0.313 HD
ENDBRANCH   3   4
ENDBRANCH   2   3
BRANCH   2   7
HETATM    7  N3  UNL     1      26.238  -0.185  52.352  1.00  0.00    -0.380 N 
HETATM    8  H16 UNL     1      26.430  -0.716  51.484  1.00  0.00     0.160 HD
BRANCH   7   9
HETATM    9  C11 UNL     1      27.167  -0.329  53.444  1.00  0.00     0.134 A 
HETATM   10  C12 UNL     1      27.895   0.906  53.813  1.00  0.00     0.058 A 
HETATM   11  C13 UNL     1      29.347   0.645  53.849  1.00  0.00    -0.024 A 
HETATM   12  C14 UNL     1      30.156  -0.376  53.641  1.00  0.00    -0.002 A 
HETATM   13  C15 UNL     1      29.448  -1.596  53.275  1.00  0.00     0.026 A 
HETATM   14  C16 UNL     1      28.141  -1.416  53.230  1.00  0.00     0.026 A 
BRANCH  14  15
HETATM   15  N4  UNL     1      27.365  -2.580  52.871  1.00  0.00    -0.401 N 
HETATM   16  H23 UNL     1      27.237  -3.604  52.771  1.00  0.00     0.156 HD
HETATM   17  H24 UNL     1      26.768  -3.378  52.599  1.00  0.00     0.156 HD
ENDBRANCH  14  15
ENDBRANCH   7   9
ENDBRANCH   2   7
BRANCH   1  18
HETATM   18  O2  UNL     1      23.014   1.005  52.987  1.00  0.00    -0.318 OA
BRANCH  18  19
HETATM   19  C7  UNL     1      21.725   0.750  52.593  1.00  0.00     0.112 A 
HETATM   20  C2  UNL     1      21.227   0.690  51.208  1.00  0.00     0.101 A 
HETATM   21  C3  UNL     1      19.940   0.423  51.299  1.00  0.00     0.052 A 
HETATM   22  C4  UNL     1      19.491   0.286  52.693  1.00  0.00     0.275 A 
HETATM   23  C5  UNL     1      20.756   0.523  53.447  1.00  0.00    -0.011 A 
HETATM   24  C6  UNL     1      20.781   0.483  54.910  1.00  0.00     0.049 C 
BRANCH  20  25
HETATM   25  O1  UNL     1      21.971   0.880  50.051  1.00  0.00    -0.353 OA
HETATM   26  C1  UNL     1      21.286   1.318  48.880  1.00  0.00     0.210 C 
ENDBRANCH  20  25
BRANCH  22  27
HETATM   27  N1  UNL     1      19.033  -1.068  52.941  1.00  0.00     0.090 N 
HETATM   28  H6  UNL     1      19.454  -1.423  53.816  1.00  0.00     0.314 HD
HETATM   29  H7  UNL     1      18.002  -1.102  52.958  1.00  0.00     0.314 HD
ENDBRANCH  22  27
ENDBRANCH  18  19
ENDBRANCH   1  18
TORSDOF 9
ENDMDL
MODEL 5
REMARK VINA RESULT:      -6.7      2.568      4.253
REMARK  9 active torsions:
REMARK  status: ('A' for Active; 'I' for Inactive)
REMARK    1  A    between atoms: O1_2  and  C2_3 
REMARK    2  A    between atoms: C4_5  and  N1_6 
REMARK    3  A    between atoms: C7_9  and  O2_10 
REMARK    4  A    between atoms: O2_10  and  C8_11 
REMARK    5  A    between atoms: C9_12  and  C10_13 
REMARK    6  A    between atoms: C9_12  and  N3_15 
REMARK    7  A    between atoms: C10_13  and  N2_14 
REMARK    8  A    between atoms: N3_15  and  C11_16 
REMARK    9  A    between atoms: C16_21  and  N4_22 
ROOT
HETATM    1  C8  UNL     1      23.435   2.681  51.644  1.00  0.00     0.169 C 
HETATM    2  C9  UNL     1      24.618   3.276  51.611  1.00  0.00     0.056 C 
ENDROOT
BRANCH   2   3
HETATM    3  C10 UNL     1      25.846   2.472  51.615  1.00  0.00     0.325 C 
BRANCH   3   4
HETATM    4  N2  UNL     1      26.498   2.488  52.932  1.00  0.00     0.083 N 
HETATM    5  H14 UNL     1      27.352   3.059  52.848  1.00  0.00     0.313 HD
HETATM    6  H15 UNL     1      25.838   2.925  53.585  1.00  0.00     0.313 HD
ENDBRANCH   3   4
ENDBRANCH   2   3
BRANCH   2   7
HETATM    7  N3  UNL     1      24.569   4.692  51.576  1.00  0.00    -0.380 N 
HETATM    8  H16 UNL     1      24.478   5.215  52.465  1.00  0.00     0.160 HD
BRANCH   7   9
HETATM    9  C11 UNL     1      24.640   5.454  50.355  1.00  0.00     0.134 A 
HETATM   10  C12 UNL     1      25.464   4.846  49.286  1.00  0.00     0.058 A 
HETATM   11  C13 UNL     1      26.448   5.827  48.788  1.00  0.00    -0.024 A 
HETATM   12  C14 UNL     1      26.785   7.077  49.037  1.00  0.00    -0.002 A 
HETATM   13  C15 UNL     1      25.981   7.683  50.091  1.00  0.00     0.026 A 
HETATM   14  C16 UNL     1      25.082   6.845  50.571  1.00  0.00     0.026 A 
BRANCH  14  15
HETATM   15  N4  UNL     1      24.243   7.369  51.624  1.00  0.00    -0.401 N 
HETATM   16  H23 UNL     1      23.434   7.919  51.966  1.00  0.00     0.156 HD
HETATM   17  H24 UNL     1      23.677   7.719  52.415  1.00  0.00     0.156 HD
ENDBRANCH  14  15
ENDBRANCH   7   9
ENDBRANCH   2   7
BRANCH   1  18
HETATM   18  O2  UNL     1      23.648   1.322  51.677  1.00  0.00    -0.318 OA
BRANCH  18  19
HETATM   19  C7  UNL     1      23.092   0.450  52.579  1.00  0.00     0.112 A 
HETATM   20  C2  UNL     1      23.778  -0.196  53.711  1.00  0.00     0.101 A 
HETATM   21  C3  UNL     1      22.870  -0.946  54.302  1.00  0.00     0.052 A 
HETATM   22  C4  UNL     1      21.558  -0.867  53.642  1.00  0.00     0.275 A 
HETATM   23  C5  UNL     1      21.835   0.082  52.524  1.00  0.00    -0.011 A 
HETATM   24  C6  UNL     1      20.783   0.463  51.580  1.00  0.00     0.049 C 
BRANCH  20  25
HETATM   25  O1  UNL     1      25.109  -0.039  54.072  1.00  0.00    -0.353 OA
HETATM   26  C1  UNL     1      26.069  -0.912  53.482  1.00  0.00     0.210 C 
ENDBRANCH  20  25
BRANCH  22  27
HETATM   27  N1  UNL     1      20.581  -0.278  54.538  1.00  0.00     0.090 N 
HETATM   28  H6  UNL     1      20.936  -0.312  55.509  1.00  0.00     0.314 HD
HETATM   29  H7  UNL     1      20.349   0.681  54.238  1.00  0.00     0.314 HD
ENDBRANCH  22  27
ENDBRANCH  18  19
ENDBRANCH   1  18
TORSDOF 9
ENDMDL
MODEL 6
REMARK VINA RESULT:      -6.7      2.955      6.800
REMARK  9 active torsions:
REMARK  status: ('A' for Active; 'I' for Inactive)
REMARK    1  A    between atoms: O1_2  and  C2_3 
REMARK    2  A    between atoms: C4_5  and  N1_6 
REMARK    3  A    between atoms: C7_9  and  O2_10 
REMARK    4  A    between atoms: O2_10  and  C8_11 
REMARK    5  A    between atoms: C9_12  and  C10_13 
REMARK    6  A    between atoms: C9_12  and  N3_15 
REMARK    7  A    between atoms: C10_13  and  N2_14 
REMARK    8  A    between atoms: N3_15  and  C11_16 
REMARK    9  A    between atoms: C16_21  and  N4_22 
ROOT
HETATM    1  C8  UNL     1      24.449   1.990  52.070  1.00  0.00     0.169 C 
HETATM    2  C9  UNL     1      24.308   1.164  53.096  1.00  0.00     0.056 C 
ENDROOT
BRANCH   2   3
HETATM    3  C10 UNL     1      22.971   0.720  53.506  1.00  0.00     0.325 C 
BRANCH   3   4
HETATM    4  N2  UNL     1      22.653  -0.609  52.965  1.00  0.00     0.083 N 
HETATM    5  H14 UNL     1      22.748  -0.556  51.940  1.00  0.00     0.313 HD
HETATM    6  H15 UNL     1      23.343  -1.261  53.354  1.00  0.00     0.313 HD
ENDBRANCH   3   4
ENDBRANCH   2   3
BRANCH   2   7
HETATM    7  N3  UNL     1      25.523   0.781  53.719  1.00  0.00    -0.380 N 
HETATM    8  H16 UNL     1      25.537   0.629  54.743  1.00  0.00     0.160 HD
BRANCH   7   9
HETATM    9  C11 UNL     1      26.754   0.588  52.996  1.00  0.00     0.134 A 
HETATM   10  C12 UNL     1      27.087  -0.822  52.692  1.00  0.00     0.058 A 
HETATM   11  C13 UNL     1      28.460  -1.125  53.140  1.00  0.00    -0.024 A 
HETATM   12  C14 UNL     1      29.452  -0.486  53.729  1.00  0.00    -0.002 A 
HETATM   13  C15 UNL     1      29.132   0.902  54.035  1.00  0.00     0.026 A 
HETATM   14  C16 UNL     1      27.911   1.225  53.652  1.00  0.00     0.026 A 
BRANCH  14  15
HETATM   15  N4  UNL     1      27.515   2.587  53.922  1.00  0.00    -0.401 N 
HETATM   16  H23 UNL     1      27.565   3.609  53.754  1.00  0.00     0.156 HD
HETATM   17  H24 UNL     1      27.196   3.543  54.155  1.00  0.00     0.156 HD
ENDBRANCH  14  15
ENDBRANCH   7   9
ENDBRANCH   2   7
BRANCH   1  18
HETATM   18  O2  UNL     1      23.194   2.268  51.579  1.00  0.00    -0.318 OA
BRANCH  18  19
HETATM   19  C7  UNL     1      22.788   2.090  50.280  1.00  0.00     0.112 A 
HETATM   20  C2  UNL     1      21.791   1.119  49.798  1.00  0.00     0.101 A 
HETATM   21  C3  UNL     1      21.717   1.295  48.495  1.00  0.00     0.052 A 
HETATM   22  C4  UNL     1      22.619   2.354  48.018  1.00  0.00     0.275 A 
HETATM   23  C5  UNL     1      23.267   2.798  49.287  1.00  0.00    -0.011 A 
HETATM   24  C6  UNL     1      24.268   3.867  49.288  1.00  0.00     0.049 C 
BRANCH  20  25
HETATM   25  O1  UNL     1      21.081   0.208  50.570  1.00  0.00    -0.353 OA
HETATM   26  C1  UNL     1      19.799   0.598  51.055  1.00  0.00     0.210 C 
ENDBRANCH  20  25
BRANCH  22  27
HETATM   27  N1  UNL     1      21.851   3.453  47.463  1.00  0.00     0.090 N 
HETATM   28  H6  UNL     1      20.841   3.266  47.582  1.00  0.00     0.314 HD
HETATM   29  H7  UNL     1      22.139   4.346  47.891  1.00  0.00     0.314 HD
ENDBRANCH  22  27
ENDBRANCH  18  19
ENDBRANCH   1  18
TORSDOF 9
ENDMDL
MODEL 7
REMARK VINA RESULT:      -6.7      2.028      3.126
REMARK  9 active torsions:
REMARK  status: ('A' for Active; 'I' for Inactive)
REMARK    1  A    between atoms: O1_2  and  C2_3 
REMARK    2  A    between atoms: C4_5  and  N1_6 
REMARK    3  A    between atoms: C7_9  and  O2_10 
REMARK    4  A    between atoms: O2_10  and  C8_11 
REMARK    5  A    between atoms: C9_12  and  C10_13 
REMARK    6  A    between atoms: C9_12  and  N3_15 
REMARK    7  A    between atoms: C10_13  and  N2_14 
REMARK    8  A    between atoms: N3_15  and  C11_16 
REMARK    9  A    between atoms: C16_21  and  N4_22 
ROOT
HETATM    1  C8  UNL     1      24.211   3.178  52.339  1.00  0.00     0.169 C 
HETATM    2  C9  UNL     1      24.611   4.086  51.462  1.00  0.00     0.056 C 
ENDROOT
BRANCH   2   3
HETATM    3  C10 UNL     1      25.322   3.673  50.246  1.00  0.00     0.325 C 
BRANCH   3   4
HETATM    4  N2  UNL     1      26.778   3.821  50.395  1.00  0.00     0.083 N 
HETATM    5  H14 UNL     1      27.062   3.266  51.215  1.00  0.00     0.313 HD
HETATM    6  H15 UNL     1      27.202   3.441  49.542  1.00  0.00     0.313 HD
ENDBRANCH   3   4
ENDBRANCH   2   3
BRANCH   2   7
HETATM    7  N3  UNL     1      24.296   5.424  51.809  1.00  0.00    -0.380 N 
HETATM    8  H16 UNL     1      24.417   5.732  52.790  1.00  0.00     0.160 HD
BRANCH   7   9
HETATM    9  C11 UNL     1      23.810   6.392  50.858  1.00  0.00     0.134 A 
HETATM   10  C12 UNL     1      22.688   5.928  50.011  1.00  0.00     0.058 A 
HETATM   11  C13 UNL     1      23.000   6.159  48.587  1.00  0.00    -0.024 A 
HETATM   12  C14 UNL     1      23.995   6.657  47.880  1.00  0.00    -0.002 A 
HETATM   13  C15 UNL     1      25.106   7.114  48.705  1.00  0.00     0.026 A 
HETATM   14  C16 UNL     1      24.875   6.931  49.991  1.00  0.00     0.026 A 
BRANCH  14  15
HETATM   15  N4  UNL     1      25.932   7.356  50.879  1.00  0.00    -0.401 N 
HETATM   16  H23 UNL     1      26.467   7.298  51.765  1.00  0.00     0.156 HD
HETATM   17  H24 UNL     1      26.703   7.699  51.476  1.00  0.00     0.156 HD
ENDBRANCH  14  15
ENDBRANCH   7   9
ENDBRANCH   2   7
BRANCH   1  18
HETATM   18  O2  UNL     1      24.589   1.942  51.866  1.00  0.00    -0.318 OA
BRANCH  18  19
HETATM   19  C7  UNL     1      25.268   0.988  52.581  1.00  0.00     0.112 A 
HETATM   20  C2  UNL     1      26.716   0.957  52.846  1.00  0.00     0.101 A 
HETATM   21  C3  UNL     1      26.928  -0.128  53.563  1.00  0.00     0.052 A 
HETATM   22  C4  UNL     1      25.691  -0.880  53.826  1.00  0.00     0.275 A 
HETATM   23  C5  UNL     1      24.671  -0.044  53.128  1.00  0.00    -0.011 A 
HETATM   24  C6  UNL     1      23.258  -0.424  53.126  1.00  0.00     0.049 C 
BRANCH  20  25
HETATM   25  O1  UNL     1      27.657   1.886  52.422  1.00  0.00    -0.353 OA
HETATM   26  C1  UNL     1      28.549   2.426  53.394  1.00  0.00     0.210 C 
ENDBRANCH  20  25
BRANCH  22  27
HETATM   27  N1  UNL     1      25.407  -0.894  55.248  1.00  0.00     0.090 N 
HETATM   28  H6  UNL     1      24.492  -0.445  55.424  1.00  0.00     0.314 HD
HETATM   29  H7  UNL     1      25.449  -1.857  55.614  1.00  0.00     0.314 HD
ENDBRANCH  22  27
ENDBRANCH  18  19
ENDBRANCH   1  18
TORSDOF 9
ENDMDL
MODEL 8
REMARK VINA RESULT:      -6.4      2.873      4.722
REMARK  9 active torsions:
REMARK  status: ('A' for Active; 'I' for Inactive)
REMARK    1  A    between atoms: O1_2  and  C2_3 
REMARK    2  A    between atoms: C4_5  and  N1_6 
REMARK    3  A    between atoms: C7_9  and  O2_10 
REMARK    4  A    between atoms: O2_10  and  C8_11 
REMARK    5  A    between atoms: C9_12  and  C10_13 
REMARK    6  A    between atoms: C9_12  and  N3_15 
REMARK    7  A    between atoms: C10_13  and  N2_14 
REMARK    8  A    between atoms: N3_15  and  C11_16 
REMARK    9  A    between atoms: C16_21  and  N4_22 
ROOT
HETATM    1  C8  UNL     1      24.433   2.934  50.560  1.00  0.00     0.169 C 
HETATM    2  C9  UNL     1      25.696   3.302  50.718  1.00  0.00     0.056 C 
ENDROOT
BRANCH   2   3
HETATM    3  C10 UNL     1      26.685   2.342  51.221  1.00  0.00     0.325 C 
BRANCH   3   4
HETATM    4  N2  UNL     1      26.880   2.476  52.672  1.00  0.00     0.083 N 
HETATM    5  H14 UNL     1      27.344   1.616  53.001  1.00  0.00     0.313 HD
HETATM    6  H15 UNL     1      27.489   3.288  52.816  1.00  0.00     0.313 HD
ENDBRANCH   3   4
ENDBRANCH   2   3
BRANCH   2   7
HETATM    7  N3  UNL     1      25.968   4.649  50.370  1.00  0.00    -0.380 N 
HETATM    8  H16 UNL     1      25.909   5.380  51.101  1.00  0.00     0.160 HD
BRANCH   7   9
HETATM    9  C11 UNL     1      26.328   5.062  49.038  1.00  0.00     0.134 A 
HETATM   10  C12 UNL     1      27.739   4.816  48.666  1.00  0.00     0.058 A 
HETATM   11  C13 UNL     1      28.348   6.055  48.145  1.00  0.00    -0.024 A 
HETATM   12  C14 UNL     1      27.978   7.302  47.927  1.00  0.00    -0.002 A 
HETATM   13  C15 UNL     1      26.590   7.555  48.293  1.00  0.00     0.026 A 
HETATM   14  C16 UNL     1      25.997   6.474  48.765  1.00  0.00     0.026 A 
BRANCH  14  15
HETATM   15  N4  UNL     1      24.617   6.641  49.154  1.00  0.00    -0.401 N 
HETATM   16  H23 UNL     1      23.816   6.480  49.793  1.00  0.00     0.156 HD
HETATM   17  H24 UNL     1      23.621   6.792  49.386  1.00  0.00     0.156 HD
ENDBRANCH  14  15
ENDBRANCH   7   9
ENDBRANCH   2   7
BRANCH   1  18
HETATM   18  O2  UNL     1      24.330   1.615  50.938  1.00  0.00    -0.318 OA
BRANCH  18  19
HETATM   19  C7  UNL     1      23.384   1.101  51.790  1.00  0.00     0.112 A 
HETATM   20  C2  UNL     1      23.604   0.642  53.172  1.00  0.00     0.101 A 
HETATM   21  C3  UNL     1      22.431   0.230  53.606  1.00  0.00     0.052 A 
HETATM   22  C4  UNL     1      21.373   0.374  52.595  1.00  0.00     0.275 A 
HETATM   23  C5  UNL     1      22.127   0.957  51.446  1.00  0.00    -0.011 A 
HETATM   24  C6  UNL     1      21.453   1.273  50.185  1.00  0.00     0.049 C 
BRANCH  20  25
HETATM   25  O1  UNL     1      24.808   0.647  53.864  1.00  0.00    -0.353 OA
HETATM   26  C1  UNL     1      25.470  -0.600  54.063  1.00  0.00     0.210 C 
ENDBRANCH  20  25
BRANCH  22  27
HETATM   27  N1  UNL     1      20.376   1.327  53.045  1.00  0.00     0.090 N 
HETATM   28  H6  UNL     1      19.861   1.702  52.230  1.00  0.00     0.314 HD
HETATM   29  H7  UNL     1      19.749   0.890  53.739  1.00  0.00     0.314 HD
ENDBRANCH  22  27
ENDBRANCH  18  19
ENDBRANCH   1  18
TORSDOF 9
ENDMDL
MODEL 9
REMARK VINA RESULT:      -6.4      3.147      6.669
REMARK  9 active torsions:
REMARK  status: ('A' for Active; 'I' for Inactive)
REMARK    1  A    between atoms: O1_2  and  C2_3 
REMARK    2  A    between atoms: C4_5  and  N1_6 
REMARK    3  A    between atoms: C7_9  and  O2_10 
REMARK    4  A    between atoms: O2_10  and  C8_11 
REMARK    5  A    between atoms: C9_12  and  C10_13 
REMARK    6  A    between atoms: C9_12  and  N3_15 
REMARK    7  A    between atoms: C10_13  and  N2_14 
REMARK    8  A    between atoms: N3_15  and  C11_16 
REMARK    9  A    between atoms: C16_21  and  N4_22 
ROOT
HETATM    1  C8  UNL     1      24.673   2.929  50.572  1.00  0.00     0.169 C 
HETATM    2  C9  UNL     1      25.193   2.943  51.790  1.00  0.00     0.056 C 
ENDROOT
BRANCH   2   3
HETATM    3  C10 UNL     1      24.334   3.182  52.955  1.00  0.00     0.325 C 
BRANCH   3   4
HETATM    4  N2  UNL     1      24.069   4.616  53.145  1.00  0.00     0.083 N 
HETATM    5  H14 UNL     1      24.134   4.810  54.155  1.00  0.00     0.313 HD
HETATM    6  H15 UNL     1      24.802   5.123  52.636  1.00  0.00     0.313 HD
ENDBRANCH   3   4
ENDBRANCH   2   3
BRANCH   2   7
HETATM    7  N3  UNL     1      26.591   2.714  51.839  1.00  0.00    -0.380 N 
HETATM    8  H16 UNL     1      27.236   3.472  51.553  1.00  0.00     0.160 HD
BRANCH   7   9
HETATM    9  C11 UNL     1      27.172   1.469  52.272  1.00  0.00     0.134 A 
HETATM   10  C12 UNL     1      26.492   0.254  51.771  1.00  0.00     0.058 A 
HETATM   11  C13 UNL     1      26.174  -0.648  52.895  1.00  0.00    -0.024 A 
HETATM   12  C14 UNL     1      26.330  -0.659  54.205  1.00  0.00    -0.002 A 
HETATM   13  C15 UNL     1      26.996   0.535  54.708  1.00  0.00     0.026 A 
HETATM   14  C16 UNL     1      27.304   1.376  53.739  1.00  0.00     0.026 A 
BRANCH  14  15
HETATM   15  N4  UNL     1      27.967   2.589  54.156  1.00  0.00    -0.401 N 
HETATM   16  H23 UNL     1      28.309   3.554  53.988  1.00  0.00     0.156 HD
HETATM   17  H24 UNL     1      28.451   3.434  54.504  1.00  0.00     0.156 HD
ENDBRANCH  14  15
ENDBRANCH   7   9
ENDBRANCH   2   7
BRANCH   1  18
HETATM   18  O2  UNL     1      23.322   3.166  50.689  1.00  0.00    -0.318 OA
BRANCH  18  19
HETATM   19  C7  UNL     1      22.325   2.345  50.224  1.00  0.00     0.112 A 
HETATM   20  C2  UNL     1      21.558   1.364  51.012  1.00  0.00     0.101 A 
HETATM   21  C3  UNL     1      20.715   0.805  50.168  1.00  0.00     0.052 A 
HETATM   22  C4  UNL     1      20.842   1.343  48.805  1.00  0.00     0.275 A 
HETATM   23  C5  UNL     1      21.933   2.347  48.973  1.00  0.00    -0.011 A 
HETATM   24  C6  UNL     1      22.404   3.146  47.840  1.00  0.00     0.049 C 
BRANCH  20  25
HETATM   25  O1  UNL     1      21.704   1.093  52.366  1.00  0.00    -0.353 OA
HETATM   26  C1  UNL     1      22.428  -0.077  52.739  1.00  0.00     0.210 C 
ENDBRANCH  20  25
BRANCH  22  27
HETATM   27  N1  UNL     1      19.620   2.024  48.420  1.00  0.00     0.090 N 
HETATM   28  H6  UNL     1      19.611   2.976  48.824  1.00  0.00     0.314 HD
HETATM   29  H7  UNL     1      19.521   2.032  47.394  1.00  0.00     0.314 HD
ENDBRANCH  22  27
ENDBRANCH  18  19
ENDBRANCH   1  18
TORSDOF 9
ENDMDL
