MODEL 1
REMARK VINA RESULT:      -9.8      0.000      0.000
REMARK  3 active torsions:
REMARK  status: ('A' for Active; 'I' for Inactive)
REMARK    1  A    between atoms: C2_4  and  C3_5 
REMARK    2  A    between atoms: C9_11  and  N2_12 
REMARK    3  A    between atoms: N2_12  and  C10_13 
ROOT
HETATM    1  C3  UNL     1      24.347  -0.573  54.087  1.00  0.00    -0.022 A 
HETATM    2  C4  UNL     1      23.677  -1.170  55.157  1.00  0.00     0.014 A 
HETATM    3  C5  UNL     1      22.289  -1.192  55.131  1.00  0.00     0.033 A 
HETATM    4  C6  UNL     1      21.598  -0.637  54.073  1.00  0.00     0.063 A 
HETATM    5  C7  UNL     1      22.271  -0.050  53.022  1.00  0.00     0.041 A 
HETATM    6  C8  UNL     1      23.662  -0.014  53.024  1.00  0.00     0.030 A 
HETATM    7  C9  UNL     1      21.534   0.527  51.919  1.00  0.00     0.162 A 
HETATM    8  N4  UNL     1      20.231   0.519  51.869  1.00  0.00    -0.140 NA
HETATM    9  N5  UNL     1      19.488  -0.060  52.900  1.00  0.00    -0.217 N 
HETATM   10  N6  UNL     1      20.167  -0.638  54.003  1.00  0.00    -0.284 N 
HETATM   11  H12 UNL     1      18.457  -0.148  53.010  1.00  0.00     0.210 HD
HETATM   12  H13 UNL     1      19.718  -1.103  54.841  1.00  0.00     0.188 HD
ENDROOT
BRANCH   7  13
HETATM   13  N2  UNL     1      22.196   1.137  50.825  1.00  0.00    -0.339 N 
HETATM   14  H5  UNL     1      22.243   0.558  49.952  1.00  0.00     0.167 HD
BRANCH  13  15
HETATM   15  C10 UNL     1      22.786   2.425  50.826  1.00  0.00     0.034 A 
HETATM   16  C11 UNL     1      22.246   3.397  51.670  1.00  0.00     0.032 A 
HETATM   17  C12 UNL     1      22.711   4.687  51.775  1.00  0.00     0.035 A 
HETATM   18  C13 UNL     1      23.784   5.081  51.008  1.00  0.00     0.066 A 
HETATM   19  N3  UNL     1      24.202   6.350  51.148  1.00  0.00    -0.260 NA
HETATM   20  C17 UNL     1      24.345   4.149  50.162  1.00  0.00    -0.005 A 
HETATM   21  C14 UNL     1      25.249   6.803  50.427  1.00  0.00     0.117 A 
HETATM   22  C15 UNL     1      25.833   5.873  49.563  1.00  0.00     0.020 A 
HETATM   23  C16 UNL     1      25.411   4.567  49.413  1.00  0.00     0.015 A 
HETATM   24  C18 UNL     1      23.852   2.866  50.084  1.00  0.00     0.043 A 
ENDBRANCH  13  15
ENDBRANCH   7  13
BRANCH   1  25
HETATM   25  C2  UNL     1      25.825  -0.521  54.061  1.00  0.00     0.013 A 
HETATM   26  C1  UNL     1      26.604   0.246  54.935  1.00  0.00     0.164 A 
HETATM   27  N1  UNL     1      27.872  -0.000  54.564  1.00  0.00    -0.106 N 
HETATM   28  F1  UNL     1      28.931   0.567  55.182  1.00  0.00    -0.075 F 
HETATM   29  N7  UNL     1      27.923  -0.846  53.545  1.00  0.00    -0.154 NA
HETATM   30  C19 UNL     1      26.655  -1.203  53.192  1.00  0.00     0.155 A 
ENDBRANCH   1  25
TORSDOF 3
ENDMDL
MODEL 2
REMARK VINA RESULT:      -9.8      2.566      6.551
REMARK  3 active torsions:
REMARK  status: ('A' for Active; 'I' for Inactive)
REMARK    1  A    between atoms: C2_4  and  C3_5 
REMARK    2  A    between atoms: C9_11  and  N2_12 
REMARK    3  A    between atoms: N2_12  and  C10_13 
ROOT
HETATM    1  C3  UNL     1      22.071   1.012  51.593  1.00  0.00    -0.022 A 
HETATM    2  C4  UNL     1      21.411   1.264  50.388  1.00  0.00     0.014 A 
HETATM    3  C5  UNL     1      21.989   2.158  49.498  1.00  0.00     0.033 A 
HETATM    4  C6  UNL     1      23.184   2.777  49.802  1.00  0.00     0.063 A 
HETATM    5  C7  UNL     1      23.826   2.521  50.996  1.00  0.00     0.041 A 
HETATM    6  C8  UNL     1      23.268   1.629  51.906  1.00  0.00     0.030 A 
HETATM    7  C9  UNL     1      25.079   3.177  51.302  1.00  0.00     0.162 A 
HETATM    8  N4  UNL     1      25.645   4.020  50.483  1.00  0.00    -0.140 NA
HETATM    9  N5  UNL     1      25.048   4.324  49.258  1.00  0.00    -0.217 N 
HETATM   10  N6  UNL     1      23.818   3.706  48.914  1.00  0.00    -0.284 N 
HETATM   11  H12 UNL     1      25.365   4.966  48.503  1.00  0.00     0.210 HD
HETATM   12  H13 UNL     1      23.270   3.854  48.021  1.00  0.00     0.188 HD
ENDROOT
BRANCH   7  13
HETATM   13  N2  UNL     1      25.764   2.934  52.518  1.00  0.00    -0.339 N 
HETATM   14  H5  UNL     1      25.556   3.611  53.291  1.00  0.00     0.167 HD
BRANCH  13  15
HETATM   15  C10 UNL     1      26.683   1.883  52.757  1.00  0.00     0.034 A 
HETATM   16  C11 UNL     1      27.952   2.213  53.238  1.00  0.00     0.032 A 
HETATM   17  C12 UNL     1      28.945   1.302  53.513  1.00  0.00     0.035 A 
HETATM   18  C13 UNL     1      28.704  -0.039  53.312  1.00  0.00     0.066 A 
HETATM   19  N3  UNL     1      29.705  -0.889  53.596  1.00  0.00    -0.260 NA
HETATM   20  C17 UNL     1      27.463  -0.403  52.838  1.00  0.00    -0.005 A 
HETATM   21  C14 UNL     1      29.538  -2.216  53.423  1.00  0.00     0.117 A 
HETATM   22  C15 UNL     1      28.285  -2.608  52.944  1.00  0.00     0.020 A 
HETATM   23  C16 UNL     1      27.251  -1.742  52.649  1.00  0.00     0.015 A 
HETATM   24  C18 UNL     1      26.493   0.537  52.574  1.00  0.00     0.043 A 
ENDBRANCH  13  15
ENDBRANCH   7  13
BRANCH   1  25
HETATM   25  C2  UNL     1      21.502   0.068  52.579  1.00  0.00     0.013 A 
HETATM   26  C1  UNL     1      22.264  -0.774  53.398  1.00  0.00     0.164 A 
HETATM   27  N1  UNL     1      21.359  -1.448  54.127  1.00  0.00    -0.106 N 
HETATM   28  F1  UNL     1      21.712  -2.370  55.048  1.00  0.00    -0.075 F 
HETATM   29  N7  UNL     1      20.122  -1.086  53.819  1.00  0.00    -0.154 NA
HETATM   30  C19 UNL     1      20.160  -0.130  52.847  1.00  0.00     0.155 A 
ENDBRANCH   1  25
TORSDOF 3
ENDMDL
MODEL 3
REMARK VINA RESULT:      -9.4      2.835      4.885
REMARK  3 active torsions:
REMARK  status: ('A' for Active; 'I' for Inactive)
REMARK    1  A    between atoms: C2_4  and  C3_5 
REMARK    2  A    between atoms: C9_11  and  N2_12 
REMARK    3  A    between atoms: N2_12  and  C10_13 
ROOT
HETATM    1  C3  UNL     1      21.303  -0.307  52.762  1.00  0.00    -0.022 A 
HETATM    2  C4  UNL     1      20.666  -1.067  53.745  1.00  0.00     0.014 A 
HETATM    3  C5  UNL     1      21.428  -1.539  54.806  1.00  0.00     0.033 A 
HETATM    4  C6  UNL     1      22.777  -1.262  54.878  1.00  0.00     0.063 A 
HETATM    5  C7  UNL     1      23.396  -0.511  53.901  1.00  0.00     0.041 A 
HETATM    6  C8  UNL     1      22.656  -0.025  52.828  1.00  0.00     0.030 A 
HETATM    7  C9  UNL     1      24.812  -0.226  53.990  1.00  0.00     0.162 A 
HETATM    8  N4  UNL     1      25.550  -0.656  54.975  1.00  0.00    -0.140 NA
HETATM    9  N5  UNL     1      24.987  -1.422  55.998  1.00  0.00    -0.217 N 
HETATM   10  N6  UNL     1      23.603  -1.727  55.953  1.00  0.00    -0.284 N 
HETATM   11  H12 UNL     1      25.432  -1.836  56.843  1.00  0.00     0.210 HD
HETATM   12  H13 UNL     1      23.063  -2.296  56.664  1.00  0.00     0.188 HD
ENDROOT
BRANCH   7  13
HETATM   13  N2  UNL     1      25.476   0.543  53.003  1.00  0.00    -0.339 N 
HETATM   14  H5  UNL     1      26.405   0.169  52.695  1.00  0.00     0.167 HD
BRANCH  13  15
HETATM   15  C10 UNL     1      24.995   1.744  52.425  1.00  0.00     0.034 A 
HETATM   16  C11 UNL     1      24.580   2.767  53.280  1.00  0.00     0.032 A 
HETATM   17  C12 UNL     1      24.090   3.983  52.864  1.00  0.00     0.035 A 
HETATM   18  C13 UNL     1      23.990   4.244  51.515  1.00  0.00     0.066 A 
HETATM   19  N3  UNL     1      23.508   5.446  51.159  1.00  0.00    -0.260 NA
HETATM   20  C17 UNL     1      24.391   3.258  50.640  1.00  0.00    -0.005 A 
HETATM   21  C14 UNL     1      23.383   5.768  49.855  1.00  0.00     0.117 A 
HETATM   22  C15 UNL     1      23.785   4.782  48.950  1.00  0.00     0.020 A 
HETATM   23  C16 UNL     1      24.282   3.544  49.306  1.00  0.00     0.015 A 
HETATM   24  C18 UNL     1      24.877   2.053  51.094  1.00  0.00     0.043 A 
ENDBRANCH  13  15
ENDBRANCH   7  13
BRANCH   1  25
HETATM   25  C2  UNL     1      20.542   0.223  51.610  1.00  0.00     0.013 A 
HETATM   26  C1  UNL     1      21.125   0.813  50.483  1.00  0.00     0.164 A 
HETATM   27  N1  UNL     1      20.085   1.145  49.699  1.00  0.00    -0.106 N 
HETATM   28  F1  UNL     1      20.245   1.748  48.500  1.00  0.00    -0.075 F 
HETATM   29  N7  UNL     1      18.931   0.807  50.255  1.00  0.00    -0.154 NA
HETATM   30  C19 UNL     1      19.168   0.221  51.464  1.00  0.00     0.155 A 
ENDBRANCH   1  25
TORSDOF 3
ENDMDL
MODEL 4
REMARK VINA RESULT:      -9.4      3.098      7.305
REMARK  3 active torsions:
REMARK  status: ('A' for Active; 'I' for Inactive)
REMARK    1  A    between atoms: C2_4  and  C3_5 
REMARK    2  A    between atoms: C9_11  and  N2_12 
REMARK    3  A    between atoms: N2_12  and  C10_13 
ROOT
HETATM    1  C3  UNL     1      26.184   6.458  49.399  1.00  0.00    -0.022 A 
HETATM    2  C4  UNL     1      25.591   7.699  49.639  1.00  0.00     0.014 A 
HETATM    3  C5  UNL     1      24.403   7.730  50.357  1.00  0.00     0.033 A 
HETATM    4  C6  UNL     1      23.831   6.563  50.816  1.00  0.00     0.063 A 
HETATM    5  C7  UNL     1      24.425   5.342  50.572  1.00  0.00     0.041 A 
HETATM    6  C8  UNL     1      25.615   5.283  49.856  1.00  0.00     0.030 A 
HETATM    7  C9  UNL     1      23.814   4.125  51.062  1.00  0.00     0.162 A 
HETATM    8  N4  UNL     1      22.699   4.127  51.739  1.00  0.00    -0.140 NA
HETATM    9  N5  UNL     1      22.045   5.328  52.021  1.00  0.00    -0.217 N 
HETATM   10  N6  UNL     1      22.607   6.547  51.562  1.00  0.00    -0.284 N 
HETATM   11  H12 UNL     1      21.161   5.498  52.542  1.00  0.00     0.210 HD
HETATM   12  H13 UNL     1      22.208   7.516  51.710  1.00  0.00     0.188 HD
ENDROOT
BRANCH   7  13
HETATM   13  N2  UNL     1      24.400   2.857  50.828  1.00  0.00    -0.339 N 
HETATM   14  H5  UNL     1      24.177   2.426  49.899  1.00  0.00     0.167 HD
BRANCH  13  15
HETATM   15  C10 UNL     1      25.232   2.149  51.730  1.00  0.00     0.034 A 
HETATM   16  C11 UNL     1      24.730   0.985  52.316  1.00  0.00     0.032 A 
HETATM   17  C12 UNL     1      25.421   0.198  53.208  1.00  0.00     0.035 A 
HETATM   18  C13 UNL     1      26.700   0.556  53.572  1.00  0.00     0.066 A 
HETATM   19  N3  UNL     1      27.333  -0.245  54.445  1.00  0.00    -0.260 NA
HETATM   20  C17 UNL     1      27.230   1.699  53.015  1.00  0.00    -0.005 A 
HETATM   21  C14 UNL     1      28.588   0.044  54.845  1.00  0.00     0.117 A 
HETATM   22  C15 UNL     1      29.145   1.200  54.290  1.00  0.00     0.020 A 
HETATM   23  C16 UNL     1      28.503   2.029  53.393  1.00  0.00     0.015 A 
HETATM   24  C18 UNL     1      26.508   2.461  52.124  1.00  0.00     0.043 A 
ENDBRANCH  13  15
ENDBRANCH   7  13
BRANCH   1  25
HETATM   25  C2  UNL     1      27.450   6.363  48.640  1.00  0.00     0.013 A 
HETATM   26  C1  UNL     1      28.256   5.220  48.588  1.00  0.00     0.164 A 
HETATM   27  N1  UNL     1      29.288   5.568  47.801  1.00  0.00    -0.106 N 
HETATM   28  F1  UNL     1      30.295   4.717  47.506  1.00  0.00    -0.075 F 
HETATM   29  N7  UNL     1      29.173   6.818  47.376  1.00  0.00    -0.154 NA
HETATM   30  C19 UNL     1      28.028   7.362  47.880  1.00  0.00     0.155 A 
ENDBRANCH   1  25
TORSDOF 3
ENDMDL
MODEL 5
REMARK VINA RESULT:      -9.2      3.035      5.173
REMARK  3 active torsions:
REMARK  status: ('A' for Active; 'I' for Inactive)
REMARK    1  A    between atoms: C2_4  and  C3_5 
REMARK    2  A    between atoms: C9_11  and  N2_12 
REMARK    3  A    between atoms: N2_12  and  C10_13 
ROOT
HETATM    1  C3  UNL     1      20.969  -0.545  53.407  1.00  0.00    -0.022 A 
HETATM    2  C4  UNL     1      21.327  -1.263  54.550  1.00  0.00     0.014 A 
HETATM    3  C5  UNL     1      22.661  -1.266  54.932  1.00  0.00     0.033 A 
HETATM    4  C6  UNL     1      23.603  -0.576  54.197  1.00  0.00     0.063 A 
HETATM    5  C7  UNL     1      23.238   0.130  53.070  1.00  0.00     0.041 A 
HETATM    6  C8  UNL     1      21.908   0.149  52.665  1.00  0.00     0.030 A 
HETATM    7  C9  UNL     1      24.236   0.850  52.309  1.00  0.00     0.162 A 
HETATM    8  N4  UNL     1      25.496   0.864  52.646  1.00  0.00    -0.140 NA
HETATM    9  N5  UNL     1      25.933   0.171  53.777  1.00  0.00    -0.217 N 
HETATM   10  N6  UNL     1      24.990  -0.550  54.554  1.00  0.00    -0.284 N 
HETATM   11  H12 UNL     1      26.889   0.084  54.177  1.00  0.00     0.210 HD
HETATM   12  H13 UNL     1      25.197  -1.112  55.427  1.00  0.00     0.188 HD
ENDROOT
BRANCH   7  13
HETATM   13  N2  UNL     1      23.893   1.585  51.147  1.00  0.00    -0.339 N 
HETATM   14  H5  UNL     1      23.208   1.116  50.508  1.00  0.00     0.167 HD
BRANCH  13  15
HETATM   15  C10 UNL     1      24.396   2.861  50.795  1.00  0.00     0.034 A 
HETATM   16  C11 UNL     1      23.762   3.989  51.321  1.00  0.00     0.032 A 
HETATM   17  C12 UNL     1      24.138   5.287  51.067  1.00  0.00     0.035 A 
HETATM   18  C13 UNL     1      25.211   5.528  50.238  1.00  0.00     0.066 A 
HETATM   19  N3  UNL     1      25.539   6.813  50.021  1.00  0.00    -0.260 NA
HETATM   20  C17 UNL     1      25.863   4.440  49.699  1.00  0.00    -0.005 A 
HETATM   21  C14 UNL     1      26.580   7.122  49.221  1.00  0.00     0.117 A 
HETATM   22  C15 UNL     1      27.255   6.032  48.664  1.00  0.00     0.020 A 
HETATM   23  C16 UNL     1      26.926   4.710  48.881  1.00  0.00     0.015 A 
HETATM   24  C18 UNL     1      25.458   3.155  49.978  1.00  0.00     0.043 A 
ENDBRANCH  13  15
ENDBRANCH   7  13
BRANCH   1  25
HETATM   25  C2  UNL     1      19.562  -0.505  52.953  1.00  0.00     0.013 A 
HETATM   26  C1  UNL     1      18.544  -1.317  53.465  1.00  0.00     0.164 A 
HETATM   27  N1  UNL     1      17.445  -0.956  52.780  1.00  0.00    -0.106 N 
HETATM   28  F1  UNL     1      16.239  -1.524  52.994  1.00  0.00    -0.075 F 
HETATM   29  N7  UNL     1      17.714   0.001  51.903  1.00  0.00    -0.154 NA
HETATM   30  C19 UNL     1      19.038   0.319  51.975  1.00  0.00     0.155 A 
ENDBRANCH   1  25
TORSDOF 3
ENDMDL
MODEL 6
REMARK VINA RESULT:      -9.0      1.819      3.035
REMARK  3 active torsions:
REMARK  status: ('A' for Active; 'I' for Inactive)
REMARK    1  A    between atoms: C2_4  and  C3_5 
REMARK    2  A    between atoms: C9_11  and  N2_12 
REMARK    3  A    between atoms: N2_12  and  C10_13 
ROOT
HETATM    1  C3  UNL     1      24.730   0.543  53.305  1.00  0.00    -0.022 A 
HETATM    2  C4  UNL     1      23.710  -0.409  53.268  1.00  0.00     0.014 A 
HETATM    3  C5  UNL     1      22.432   0.011  52.925  1.00  0.00     0.033 A 
HETATM    4  C6  UNL     1      22.185   1.336  52.631  1.00  0.00     0.063 A 
HETATM    5  C7  UNL     1      23.201   2.269  52.672  1.00  0.00     0.041 A 
HETATM    6  C8  UNL     1      24.490   1.873  53.012  1.00  0.00     0.030 A 
HETATM    7  C9  UNL     1      22.928   3.655  52.359  1.00  0.00     0.162 A 
HETATM    8  N4  UNL     1      21.737   4.076  52.034  1.00  0.00    -0.140 NA
HETATM    9  N5  UNL     1      20.664   3.185  51.974  1.00  0.00    -0.217 N 
HETATM   10  N6  UNL     1      20.883   1.816  52.272  1.00  0.00    -0.284 N 
HETATM   11  H12 UNL     1      19.666   3.358  51.734  1.00  0.00     0.210 HD
HETATM   12  H13 UNL     1      20.155   1.047  52.262  1.00  0.00     0.188 HD
ENDROOT
BRANCH   7  13
HETATM   13  N2  UNL     1      23.949   4.636  52.391  1.00  0.00    -0.339 N 
HETATM   14  H5  UNL     1      24.368   4.815  53.335  1.00  0.00     0.167 HD
BRANCH  13  15
HETATM   15  C10 UNL     1      24.427   5.372  51.279  1.00  0.00     0.034 A 
HETATM   16  C11 UNL     1      24.983   4.667  50.210  1.00  0.00     0.032 A 
HETATM   17  C12 UNL     1      25.487   5.246  49.069  1.00  0.00     0.035 A 
HETATM   18  C13 UNL     1      25.456   6.616  48.939  1.00  0.00     0.066 A 
HETATM   19  N3  UNL     1      25.959   7.134  47.805  1.00  0.00    -0.260 NA
HETATM   20  C17 UNL     1      24.914   7.347  49.973  1.00  0.00    -0.005 A 
HETATM   21  C14 UNL     1      25.960   8.469  47.611  1.00  0.00     0.117 A 
HETATM   22  C15 UNL     1      25.414   9.229  48.648  1.00  0.00     0.020 A 
HETATM   23  C16 UNL     1      24.895   8.707  49.816  1.00  0.00     0.015 A 
HETATM   24  C18 UNL     1      24.418   6.732  51.100  1.00  0.00     0.043 A 
ENDBRANCH  13  15
ENDBRANCH   7  13
BRANCH   1  25
HETATM   25  C2  UNL     1      26.111   0.153  53.662  1.00  0.00     0.013 A 
HETATM   26  C1  UNL     1      27.058  -0.328  52.750  1.00  0.00     0.164 A 
HETATM   27  N1  UNL     1      28.157  -0.555  53.488  1.00  0.00    -0.106 N 
HETATM   28  F1  UNL     1      29.303  -1.031  52.955  1.00  0.00    -0.075 F 
HETATM   29  N7  UNL     1      27.955  -0.252  54.763  1.00  0.00    -0.154 NA
HETATM   30  C19 UNL     1      26.678   0.199  54.922  1.00  0.00     0.155 A 
ENDBRANCH   1  25
TORSDOF 3
ENDMDL
MODEL 7
REMARK VINA RESULT:      -8.9      2.005      3.429
REMARK  3 active torsions:
REMARK  status: ('A' for Active; 'I' for Inactive)
REMARK    1  A    between atoms: C2_4  and  C3_5 
REMARK    2  A    between atoms: C9_11  and  N2_12 
REMARK    3  A    between atoms: N2_12  and  C10_13 
ROOT
HETATM    1  C3  UNL     1      25.036   0.912  52.781  1.00  0.00    -0.022 A 
HETATM    2  C4  UNL     1      23.813   0.429  53.250  1.00  0.00     0.014 A 
HETATM    3  C5  UNL     1      22.658   0.800  52.574  1.00  0.00     0.033 A 
HETATM    4  C6  UNL     1      22.726   1.624  51.471  1.00  0.00     0.063 A 
HETATM    5  C7  UNL     1      23.940   2.096  51.016  1.00  0.00     0.041 A 
HETATM    6  C8  UNL     1      25.112   1.739  51.675  1.00  0.00     0.030 A 
HETATM    7  C9  UNL     1      23.997   2.959  49.856  1.00  0.00     0.162 A 
HETATM    8  N4  UNL     1      22.928   3.322  49.203  1.00  0.00    -0.140 NA
HETATM    9  N5  UNL     1      21.667   2.880  49.609  1.00  0.00    -0.217 N 
HETATM   10  N6  UNL     1      21.562   2.032  50.741  1.00  0.00    -0.284 N 
HETATM   11  H12 UNL     1      20.730   3.075  49.202  1.00  0.00     0.210 HD
HETATM   12  H13 UNL     1      20.668   1.634  51.146  1.00  0.00     0.188 HD
ENDROOT
BRANCH   7  13
HETATM   13  N2  UNL     1      25.228   3.459  49.365  1.00  0.00    -0.339 N 
HETATM   14  H5  UNL     1      25.854   2.747  48.919  1.00  0.00     0.167 HD
BRANCH  13  15
HETATM   15  C10 UNL     1      25.663   4.805  49.436  1.00  0.00     0.034 A 
HETATM   16  C11 UNL     1      24.997   5.669  50.307  1.00  0.00     0.032 A 
HETATM   17  C12 UNL     1      25.307   6.998  50.479  1.00  0.00     0.035 A 
HETATM   18  C13 UNL     1      26.342   7.548  49.756  1.00  0.00     0.066 A 
HETATM   19  N3  UNL     1      26.607   8.849  49.961  1.00  0.00    -0.260 NA
HETATM   20  C17 UNL     1      27.024   6.726  48.886  1.00  0.00    -0.005 A 
HETATM   21  C14 UNL     1      27.608   9.452  49.287  1.00  0.00     0.117 A 
HETATM   22  C15 UNL     1      28.313   8.636  48.399  1.00  0.00     0.020 A 
HETATM   23  C16 UNL     1      28.049   7.298  48.182  1.00  0.00     0.015 A 
HETATM   24  C18 UNL     1      26.685   5.400  48.741  1.00  0.00     0.043 A 
ENDBRANCH  13  15
ENDBRANCH   7  13
BRANCH   1  25
HETATM   25  C2  UNL     1      26.299   0.549  53.460  1.00  0.00     0.013 A 
HETATM   26  C1  UNL     1      27.573   0.736  52.912  1.00  0.00     0.164 A 
HETATM   27  N1  UNL     1      28.417   0.277  53.851  1.00  0.00    -0.106 N 
HETATM   28  F1  UNL     1      29.758   0.288  53.688  1.00  0.00    -0.075 F 
HETATM   29  N7  UNL     1      27.763  -0.169  54.914  1.00  0.00    -0.154 NA
HETATM   30  C19 UNL     1      26.423  -0.018  54.714  1.00  0.00     0.155 A 
ENDBRANCH   1  25
TORSDOF 3
ENDMDL
MODEL 8
REMARK VINA RESULT:      -8.8      2.317      3.941
REMARK  3 active torsions:
REMARK  status: ('A' for Active; 'I' for Inactive)
REMARK    1  A    between atoms: C2_4  and  C3_5 
REMARK    2  A    between atoms: C9_11  and  N2_12 
REMARK    3  A    between atoms: N2_12  and  C10_13 
ROOT
HETATM    1  C3  UNL     1      22.667   0.748  52.161  1.00  0.00    -0.022 A 
HETATM    2  C4  UNL     1      21.591   0.016  51.657  1.00  0.00     0.014 A 
HETATM    3  C5  UNL     1      20.787   0.611  50.693  1.00  0.00     0.033 A 
HETATM    4  C6  UNL     1      21.051   1.890  50.252  1.00  0.00     0.063 A 
HETATM    5  C7  UNL     1      22.117   2.605  50.758  1.00  0.00     0.041 A 
HETATM    6  C8  UNL     1      22.939   2.032  51.724  1.00  0.00     0.030 A 
HETATM    7  C9  UNL     1      22.384   3.946  50.284  1.00  0.00     0.162 A 
HETATM    8  N4  UNL     1      21.645   4.527  49.380  1.00  0.00    -0.140 NA
HETATM    9  N5  UNL     1      20.550   3.861  48.827  1.00  0.00    -0.217 N 
HETATM   10  N6  UNL     1      20.250   2.544  49.260  1.00  0.00    -0.284 N 
HETATM   11  H12 UNL     1      19.871   4.179  48.106  1.00  0.00     0.210 HD
HETATM   12  H13 UNL     1      19.451   1.938  48.918  1.00  0.00     0.188 HD
ENDROOT
BRANCH   7  13
HETATM   13  N2  UNL     1      23.472   4.704  50.783  1.00  0.00    -0.339 N 
HETATM   14  H5  UNL     1      23.299   5.185  51.698  1.00  0.00     0.167 HD
BRANCH  13  15
HETATM   15  C10 UNL     1      24.731   4.860  50.154  1.00  0.00     0.034 A 
HETATM   16  C11 UNL     1      25.556   3.739  50.042  1.00  0.00     0.032 A 
HETATM   17  C12 UNL     1      26.802   3.740  49.459  1.00  0.00     0.035 A 
HETATM   18  C13 UNL     1      27.302   4.914  48.940  1.00  0.00     0.066 A 
HETATM   19  N3  UNL     1      28.522   4.863  48.380  1.00  0.00    -0.260 NA
HETATM   20  C17 UNL     1      26.516   6.042  49.032  1.00  0.00    -0.005 A 
HETATM   21  C14 UNL     1      29.073   5.975  47.851  1.00  0.00     0.117 A 
HETATM   22  C15 UNL     1      28.292   7.131  47.934  1.00  0.00     0.020 A 
HETATM   23  C16 UNL     1      27.038   7.193  48.506  1.00  0.00     0.015 A 
HETATM   24  C18 UNL     1      25.274   6.002  49.622  1.00  0.00     0.043 A 
ENDBRANCH  13  15
ENDBRANCH   7  13
BRANCH   1  25
HETATM   25  C2  UNL     1      23.558   0.166  53.188  1.00  0.00     0.013 A 
HETATM   26  C1  UNL     1      24.917   0.474  53.322  1.00  0.00     0.164 A 
HETATM   27  N1  UNL     1      25.332  -0.267  54.363  1.00  0.00    -0.106 N 
HETATM   28  F1  UNL     1      26.607  -0.243  54.807  1.00  0.00    -0.075 F 
HETATM   29  N7  UNL     1      24.343  -0.993  54.865  1.00  0.00    -0.154 NA
HETATM   30  C19 UNL     1      23.203  -0.754  54.157  1.00  0.00     0.155 A 
ENDBRANCH   1  25
TORSDOF 3
ENDMDL
MODEL 9
REMARK VINA RESULT:      -8.7      2.890      4.826
REMARK  3 active torsions:
REMARK  status: ('A' for Active; 'I' for Inactive)
REMARK    1  A    between atoms: C2_4  and  C3_5 
REMARK    2  A    between atoms: C9_11  and  N2_12 
REMARK    3  A    between atoms: N2_12  and  C10_13 
ROOT
HETATM    1  C3  UNL     1      25.943   0.777  52.215  1.00  0.00    -0.022 A 
HETATM    2  C4  UNL     1      24.645   0.577  52.688  1.00  0.00     0.014 A 
HETATM    3  C5  UNL     1      23.637   1.404  52.208  1.00  0.00     0.033 A 
HETATM    4  C6  UNL     1      23.920   2.394  51.291  1.00  0.00     0.063 A 
HETATM    5  C7  UNL     1      25.207   2.583  50.831  1.00  0.00     0.041 A 
HETATM    6  C8  UNL     1      26.234   1.768  51.295  1.00  0.00     0.030 A 
HETATM    7  C9  UNL     1      25.489   3.624  49.866  1.00  0.00     0.162 A 
HETATM    8  N4  UNL     1      24.561   4.413  49.400  1.00  0.00    -0.140 NA
HETATM    9  N5  UNL     1      23.238   4.277  49.823  1.00  0.00    -0.217 N 
HETATM   10  N6  UNL     1      22.913   3.269  50.768  1.00  0.00    -0.284 N 
HETATM   11  H12 UNL     1      22.392   4.818  49.551  1.00  0.00     0.210 HD
HETATM   12  H13 UNL     1      21.953   3.068  51.164  1.00  0.00     0.188 HD
ENDROOT
BRANCH   7  13
HETATM   13  N2  UNL     1      26.799   3.842  49.374  1.00  0.00    -0.339 N 
HETATM   14  H5  UNL     1      27.456   3.032  49.478  1.00  0.00     0.167 HD
BRANCH  13  15
HETATM   15  C10 UNL     1      27.273   5.037  48.779  1.00  0.00     0.034 A 
HETATM   16  C11 UNL     1      28.624   5.112  48.436  1.00  0.00     0.032 A 
HETATM   17  C12 UNL     1      29.224   6.205  47.854  1.00  0.00     0.035 A 
HETATM   18  C13 UNL     1      28.466   7.321  47.577  1.00  0.00     0.066 A 
HETATM   19  N3  UNL     1      29.096   8.362  47.007  1.00  0.00    -0.260 NA
HETATM   20  C17 UNL     1      27.127   7.284  47.900  1.00  0.00    -0.005 A 
HETATM   21  C14 UNL     1      28.415   9.487  46.708  1.00  0.00     0.117 A 
HETATM   22  C15 UNL     1      27.055   9.470  47.027  1.00  0.00     0.020 A 
HETATM   23  C16 UNL     1      26.398   8.406  47.611  1.00  0.00     0.015 A 
HETATM   24  C18 UNL     1      26.562   6.172  48.481  1.00  0.00     0.043 A 
ENDBRANCH  13  15
ENDBRANCH   7  13
BRANCH   1  25
HETATM   25  C2  UNL     1      27.056  -0.074  52.689  1.00  0.00     0.013 A 
HETATM   26  C1  UNL     1      28.304   0.412  53.097  1.00  0.00     0.164 A 
HETATM   27  N1  UNL     1      28.999  -0.685  53.442  1.00  0.00    -0.106 N 
HETATM   28  F1  UNL     1      30.270  -0.625  53.896  1.00  0.00    -0.075 F 
HETATM   29  N7  UNL     1      28.279  -1.786  53.278  1.00  0.00    -0.154 NA
HETATM   30  C19 UNL     1      27.045  -1.451  52.804  1.00  0.00     0.155 A 
ENDBRANCH   1  25
TORSDOF 3
ENDMDL
