MODEL 1
REMARK VINA RESULT:      -9.6      0.000      0.000
REMARK  0 active torsions:
REMARK  status: ('A' for Active; 'I' for Inactive)
ROOT
HETATM    1  O1  UNL     1      23.366   4.736  49.231  1.00  0.00    -0.266 OA
HETATM    2  C1  UNL     1      23.634   3.523  49.160  1.00  0.00     0.270 C 
HETATM    3  C2  UNL     1      24.512   3.777  50.281  1.00  0.00     0.126 C 
HETATM    4  N1  UNL     1      25.823   3.749  50.174  1.00  0.00    -0.173 NA
HETATM    5  N2  UNL     1      26.544   3.155  51.263  1.00  0.00    -0.281 N 
HETATM    6  C3  UNL     1      25.819   2.623  52.412  1.00  0.00     0.038 C 
HETATM    7  C4  UNL     1      24.476   2.724  52.378  1.00  0.00    -0.019 C 
HETATM    8  C5  UNL     1      24.141   4.050  51.718  1.00  0.00     0.108 C 
HETATM    9  C6  UNL     1      23.344   1.936  52.753  1.00  0.00    -0.024 C 
HETATM   10  C7  UNL     1      23.196   0.747  53.295  1.00  0.00     0.142 C 
HETATM   11  O2  UNL     1      24.471   0.311  53.477  1.00  0.00    -0.362 OA
HETATM   12  C8  UNL     1      24.891  -0.730  54.348  1.00  0.00     0.181 C 
HETATM   13  C9  UNL     1      26.393  -0.498  54.634  1.00  0.00     0.096 C 
HETATM   14  C10 UNL     1      27.138  -0.517  53.364  1.00  0.00     0.092 C 
HETATM   15  F1  UNL     1      27.677  -1.498  52.641  1.00  0.00    -0.211 F 
HETATM   16  C11 UNL     1      27.255   0.736  52.920  1.00  0.00     0.017 C 
HETATM   17  C12 UNL     1      26.801   2.058  53.427  1.00  0.00     0.089 C 
HETATM   18  C13 UNL     1      21.986   2.463  52.509  1.00  0.00     0.069 C 
HETATM   19  C14 UNL     1      20.954   1.495  52.887  1.00  0.00    -0.006 C 
HETATM   20  C15 UNL     1      20.092   0.986  51.994  1.00  0.00     0.079 C 
HETATM   21  N3  UNL     1      19.826   1.110  50.577  1.00  0.00    -0.399 N 
HETATM   22  C16 UNL     1      19.165   2.317  50.186  1.00  0.00     0.119 C 
HETATM   23  C17 UNL     1      18.906   2.532  48.751  1.00  0.00     0.024 C 
HETATM   24  C18 UNL     1      20.096   2.687  47.839  1.00  0.00    -0.010 C 
HETATM   25  C19 UNL     1      21.260   1.842  48.176  1.00  0.00     0.024 C 
HETATM   26  C20 UNL     1      22.489   2.411  47.435  1.00  0.00     0.126 C 
HETATM   27  N4  UNL     1      22.723   3.656  48.128  1.00  0.00    -0.347 N 
HETATM   28  C21 UNL     1      21.789   4.544  47.382  1.00  0.00     0.126 C 
HETATM   29  C22 UNL     1      20.372   4.131  47.640  1.00  0.00     0.024 C 
HETATM   30  H1  UNL     1      27.602   3.129  51.169  1.00  0.00     0.189 HD
HETATM   31  H16 UNL     1      20.151   0.281  50.008  1.00  0.00     0.158 HD
ENDROOT
TORSDOF 0
ENDMDL
MODEL 2
REMARK VINA RESULT:      -9.2      2.849      5.379
REMARK  0 active torsions:
REMARK  status: ('A' for Active; 'I' for Inactive)
ROOT
HETATM    1  O1  UNL     1      20.672   5.487  48.666  1.00  0.00    -0.266 OA
HETATM    2  C1  UNL     1      20.953   5.401  49.875  1.00  0.00     0.270 C 
HETATM    3  C2  UNL     1      20.555   4.017  49.743  1.00  0.00     0.126 C 
HETATM    4  N1  UNL     1      19.457   3.541  50.289  1.00  0.00    -0.173 NA
HETATM    5  N2  UNL     1      19.544   2.230  50.867  1.00  0.00    -0.281 N 
HETATM    6  C3  UNL     1      20.806   1.498  50.827  1.00  0.00     0.038 C 
HETATM    7  C4  UNL     1      21.844   2.117  50.232  1.00  0.00    -0.019 C 
HETATM    8  C5  UNL     1      21.289   2.893  49.051  1.00  0.00     0.108 C 
HETATM    9  C6  UNL     1      23.253   2.252  50.432  1.00  0.00    -0.024 C 
HETATM   10  C7  UNL     1      24.097   1.796  51.331  1.00  0.00     0.142 C 
HETATM   11  O2  UNL     1      23.316   1.064  52.169  1.00  0.00    -0.362 OA
HETATM   12  C8  UNL     1      23.759   0.069  53.082  1.00  0.00     0.181 C 
HETATM   13  C9  UNL     1      22.543  -0.836  53.384  1.00  0.00     0.096 C 
HETATM   14  C10 UNL     1      21.458  -0.020  53.954  1.00  0.00     0.092 C 
HETATM   15  F1  UNL     1      21.169   0.368  55.195  1.00  0.00    -0.211 F 
HETATM   16  C11 UNL     1      20.649   0.363  52.964  1.00  0.00     0.017 C 
HETATM   17  C12 UNL     1      20.638   0.142  51.494  1.00  0.00     0.089 C 
HETATM   18  C13 UNL     1      24.038   3.078  49.493  1.00  0.00     0.069 C 
HETATM   19  C14 UNL     1      25.445   3.162  49.892  1.00  0.00    -0.006 C 
HETATM   20  C15 UNL     1      26.028   4.327  50.211  1.00  0.00     0.079 C 
HETATM   21  N3  UNL     1      25.649   5.721  50.299  1.00  0.00    -0.399 N 
HETATM   22  C16 UNL     1      25.514   6.395  49.044  1.00  0.00     0.119 C 
HETATM   23  C17 UNL     1      25.083   7.804  49.056  1.00  0.00     0.024 C 
HETATM   24  C18 UNL     1      23.697   8.110  49.562  1.00  0.00    -0.010 C 
HETATM   25  C19 UNL     1      23.244   7.276  50.694  1.00  0.00     0.024 C 
HETATM   26  C20 UNL     1      21.711   7.421  50.806  1.00  0.00     0.126 C 
HETATM   27  N4  UNL     1      21.244   6.730  49.628  1.00  0.00    -0.347 N 
HETATM   28  C21 UNL     1      21.335   7.833  48.632  1.00  0.00     0.126 C 
HETATM   29  C22 UNL     1      22.768   8.208  48.410  1.00  0.00     0.024 C 
HETATM   30  H1  UNL     1      18.656   1.853  51.312  1.00  0.00     0.189 HD
HETATM   31  H16 UNL     1      25.526   6.068  51.290  1.00  0.00     0.158 HD
ENDROOT
TORSDOF 0
ENDMDL
MODEL 3
REMARK VINA RESULT:      -9.0      1.295      1.483
REMARK  0 active torsions:
REMARK  status: ('A' for Active; 'I' for Inactive)
ROOT
HETATM    1  O1  UNL     1      21.973   5.539  49.501  1.00  0.00    -0.266 OA
HETATM    2  C1  UNL     1      22.412   4.413  49.205  1.00  0.00     0.270 C 
HETATM    3  C2  UNL     1      23.127   4.498  50.460  1.00  0.00     0.126 C 
HETATM    4  N1  UNL     1      24.433   4.643  50.523  1.00  0.00    -0.173 NA
HETATM    5  N2  UNL     1      25.114   3.898  51.543  1.00  0.00    -0.281 N 
HETATM    6  C3  UNL     1      24.355   3.039  52.446  1.00  0.00     0.038 C 
HETATM    7  C4  UNL     1      23.022   2.994  52.259  1.00  0.00    -0.019 C 
HETATM    8  C5  UNL     1      22.576   4.391  51.861  1.00  0.00     0.108 C 
HETATM    9  C6  UNL     1      21.977   2.019  52.303  1.00  0.00    -0.024 C 
HETATM   10  C7  UNL     1      21.940   0.729  52.553  1.00  0.00     0.142 C 
HETATM   11  O2  UNL     1      23.238   0.408  52.802  1.00  0.00    -0.362 OA
HETATM   12  C8  UNL     1      23.707  -0.752  53.476  1.00  0.00     0.181 C 
HETATM   13  C9  UNL     1      25.124  -0.425  54.000  1.00  0.00     0.096 C 
HETATM   14  C10 UNL     1      25.991  -0.068  52.865  1.00  0.00     0.092 C 
HETATM   15  F1  UNL     1      26.733  -0.790  52.025  1.00  0.00    -0.211 F 
HETATM   16  C11 UNL     1      25.978   1.258  52.720  1.00  0.00     0.017 C 
HETATM   17  C12 UNL     1      25.296   2.369  53.435  1.00  0.00     0.089 C 
HETATM   18  C13 UNL     1      20.592   2.433  52.002  1.00  0.00     0.069 C 
HETATM   19  C14 UNL     1      19.670   1.294  52.024  1.00  0.00    -0.006 C 
HETATM   20  C15 UNL     1      18.983   0.911  50.937  1.00  0.00     0.079 C 
HETATM   21  N3  UNL     1      18.850   1.327  49.558  1.00  0.00    -0.399 N 
HETATM   22  C16 UNL     1      18.072   2.510  49.352  1.00  0.00     0.119 C 
HETATM   23  C17 UNL     1      17.935   3.019  47.976  1.00  0.00     0.024 C 
HETATM   24  C18 UNL     1      19.179   3.512  47.283  1.00  0.00    -0.010 C 
HETATM   25  C19 UNL     1      20.408   2.749  47.580  1.00  0.00     0.024 C 
HETATM   26  C20 UNL     1      21.616   3.606  47.147  1.00  0.00     0.126 C 
HETATM   27  N4  UNL     1      21.603   4.677  48.116  1.00  0.00    -0.347 N 
HETATM   28  C21 UNL     1      20.637   5.602  47.462  1.00  0.00     0.126 C 
HETATM   29  C22 UNL     1      19.271   4.985  47.437  1.00  0.00     0.024 C 
HETATM   30  H1  UNL     1      26.169   4.014  51.586  1.00  0.00     0.189 HD
HETATM   31  H16 UNL     1      19.344   0.693  48.871  1.00  0.00     0.158 HD
ENDROOT
TORSDOF 0
ENDMDL
MODEL 4
REMARK VINA RESULT:      -8.4      3.058      6.612
REMARK  0 active torsions:
REMARK  status: ('A' for Active; 'I' for Inactive)
ROOT
HETATM    1  O1  UNL     1      26.862   2.089  50.694  1.00  0.00    -0.266 OA
HETATM    2  C1  UNL     1      26.205   2.877  51.399  1.00  0.00     0.270 C 
HETATM    3  C2  UNL     1      25.743   3.422  50.141  1.00  0.00     0.126 C 
HETATM    4  N1  UNL     1      26.107   4.610  49.708  1.00  0.00    -0.173 NA
HETATM    5  N2  UNL     1      25.093   5.399  49.068  1.00  0.00    -0.281 N 
HETATM    6  C3  UNL     1      23.741   4.869  48.924  1.00  0.00     0.038 C 
HETATM    7  C4  UNL     1      23.520   3.634  49.417  1.00  0.00    -0.019 C 
HETATM    8  C5  UNL     1      24.773   2.815  49.157  1.00  0.00     0.108 C 
HETATM    9  C6  UNL     1      22.482   2.941  50.113  1.00  0.00    -0.024 C 
HETATM   10  C7  UNL     1      21.293   3.283  50.558  1.00  0.00     0.142 C 
HETATM   11  O2  UNL     1      21.176   4.590  50.203  1.00  0.00    -0.362 OA
HETATM   12  C8  UNL     1      19.969   5.335  50.110  1.00  0.00     0.181 C 
HETATM   13  C9  UNL     1      20.252   6.533  49.176  1.00  0.00     0.096 C 
HETATM   14  C10 UNL     1      21.347   7.341  49.739  1.00  0.00     0.092 C 
HETATM   15  F1  UNL     1      21.380   8.336  50.625  1.00  0.00    -0.211 F 
HETATM   16  C11 UNL     1      22.498   6.932  49.201  1.00  0.00     0.017 C 
HETATM   17  C12 UNL     1      22.861   5.883  48.211  1.00  0.00     0.089 C 
HETATM   18  C13 UNL     1      22.684   1.526  50.485  1.00  0.00     0.069 C 
HETATM   19  C14 UNL     1      21.552   1.001  51.252  1.00  0.00    -0.006 C 
HETATM   20  C15 UNL     1      21.688   0.560  52.512  1.00  0.00     0.079 C 
HETATM   21  N3  UNL     1      22.749   0.421  53.486  1.00  0.00    -0.399 N 
HETATM   22  C16 UNL     1      23.652  -0.663  53.251  1.00  0.00     0.119 C 
HETATM   23  C17 UNL     1      24.786  -0.834  54.176  1.00  0.00     0.024 C 
HETATM   24  C18 UNL     1      25.831   0.252  54.214  1.00  0.00    -0.010 C 
HETATM   25  C19 UNL     1      25.314   1.626  54.058  1.00  0.00     0.024 C 
HETATM   26  C20 UNL     1      26.505   2.544  53.705  1.00  0.00     0.126 C 
HETATM   27  N4  UNL     1      26.840   2.120  52.366  1.00  0.00    -0.347 N 
HETATM   28  C21 UNL     1      27.738   0.975  52.677  1.00  0.00     0.126 C 
HETATM   29  C22 UNL     1      26.960  -0.127  53.329  1.00  0.00     0.024 C 
HETATM   30  H1  UNL     1      25.390   6.359  48.726  1.00  0.00     0.189 HD
HETATM   31  H16 UNL     1      22.716   1.142  54.258  1.00  0.00     0.158 HD
ENDROOT
TORSDOF 0
ENDMDL
MODEL 5
REMARK VINA RESULT:      -8.2      3.320      6.922
REMARK  0 active torsions:
REMARK  status: ('A' for Active; 'I' for Inactive)
ROOT
HETATM    1  O1  UNL     1      23.751   2.941  49.001  1.00  0.00    -0.266 OA
HETATM    2  C1  UNL     1      23.011   3.465  49.853  1.00  0.00     0.270 C 
HETATM    3  C2  UNL     1      21.936   3.137  48.941  1.00  0.00     0.126 C 
HETATM    4  N1  UNL     1      21.277   4.053  48.265  1.00  0.00    -0.173 NA
HETATM    5  N2  UNL     1      19.861   3.860  48.135  1.00  0.00    -0.281 N 
HETATM    6  C3  UNL     1      19.226   2.692  48.737  1.00  0.00     0.038 C 
HETATM    7  C4  UNL     1      20.034   1.841  49.399  1.00  0.00    -0.019 C 
HETATM    8  C5  UNL     1      21.347   1.781  48.637  1.00  0.00     0.108 C 
HETATM    9  C6  UNL     1      19.990   1.045  50.586  1.00  0.00    -0.024 C 
HETATM   10  C7  UNL     1      19.090   0.852  51.524  1.00  0.00     0.142 C 
HETATM   11  O2  UNL     1      18.046   1.635  51.141  1.00  0.00    -0.362 OA
HETATM   12  C8  UNL     1      16.700   1.523  51.583  1.00  0.00     0.181 C 
HETATM   13  C9  UNL     1      15.819   2.207  50.513  1.00  0.00     0.096 C 
HETATM   14  C10 UNL     1      16.229   3.614  50.371  1.00  0.00     0.092 C 
HETATM   15  F1  UNL     1      15.888   4.730  51.015  1.00  0.00    -0.211 F 
HETATM   16  C11 UNL     1      17.117   3.700  49.378  1.00  0.00     0.017 C 
HETATM   17  C12 UNL     1      17.732   2.712  48.454  1.00  0.00     0.089 C 
HETATM   18  C13 UNL     1      21.167   0.233  50.952  1.00  0.00     0.069 C 
HETATM   19  C14 UNL     1      20.972  -0.457  52.230  1.00  0.00    -0.006 C 
HETATM   20  C15 UNL     1      21.755  -0.222  53.294  1.00  0.00     0.079 C 
HETATM   21  N3  UNL     1      22.888   0.617  53.621  1.00  0.00    -0.399 N 
HETATM   22  C16 UNL     1      24.140   0.184  53.083  1.00  0.00     0.119 C 
HETATM   23  C17 UNL     1      25.329   1.017  53.335  1.00  0.00     0.024 C 
HETATM   24  C18 UNL     1      25.357   2.400  52.737  1.00  0.00    -0.010 C 
HETATM   25  C19 UNL     1      24.057   3.101  52.716  1.00  0.00     0.024 C 
HETATM   26  C20 UNL     1      24.170   4.280  51.726  1.00  0.00     0.126 C 
HETATM   27  N4  UNL     1      24.249   3.611  50.450  1.00  0.00    -0.347 N 
HETATM   28  C21 UNL     1      25.713   3.344  50.391  1.00  0.00     0.126 C 
HETATM   29  C22 UNL     1      26.099   2.360  51.453  1.00  0.00     0.024 C 
HETATM   30  H1  UNL     1      19.332   4.606  47.593  1.00  0.00     0.189 HD
HETATM   31  H16 UNL     1      22.643   1.447  54.228  1.00  0.00     0.158 HD
ENDROOT
TORSDOF 0
ENDMDL
MODEL 6
REMARK VINA RESULT:      -8.1      3.336      6.549
REMARK  0 active torsions:
REMARK  status: ('A' for Active; 'I' for Inactive)
ROOT
HETATM    1  O1  UNL     1      20.045   2.825  52.923  1.00  0.00    -0.266 OA
HETATM    2  C1  UNL     1      20.475   2.610  51.775  1.00  0.00     0.270 C 
HETATM    3  C2  UNL     1      20.602   4.048  51.687  1.00  0.00     0.126 C 
HETATM    4  N1  UNL     1      19.826   4.782  50.919  1.00  0.00    -0.173 NA
HETATM    5  N2  UNL     1      20.455   5.868  50.222  1.00  0.00    -0.281 N 
HETATM    6  C3  UNL     1      21.884   6.112  50.390  1.00  0.00     0.038 C 
HETATM    7  C4  UNL     1      22.546   5.275  51.212  1.00  0.00    -0.019 C 
HETATM    8  C5  UNL     1      21.613   4.942  52.364  1.00  0.00     0.108 C 
HETATM    9  C6  UNL     1      23.819   4.627  51.265  1.00  0.00    -0.024 C 
HETATM   10  C7  UNL     1      24.869   4.609  50.473  1.00  0.00     0.142 C 
HETATM   11  O2  UNL     1      24.513   5.421  49.442  1.00  0.00    -0.362 OA
HETATM   12  C8  UNL     1      25.393   6.038  48.511  1.00  0.00     0.181 C 
HETATM   13  C9  UNL     1      24.638   7.248  47.916  1.00  0.00     0.096 C 
HETATM   14  C10 UNL     1      23.402   6.780  47.267  1.00  0.00     0.092 C 
HETATM   15  F1  UNL     1      23.134   6.322  46.045  1.00  0.00    -0.211 F 
HETATM   16  C11 UNL     1      22.401   6.868  48.145  1.00  0.00     0.017 C 
HETATM   17  C12 UNL     1      22.305   7.314  49.561  1.00  0.00     0.089 C 
HETATM   18  C13 UNL     1      24.133   3.743  52.405  1.00  0.00     0.069 C 
HETATM   19  C14 UNL     1      25.445   3.111  52.256  1.00  0.00    -0.006 C 
HETATM   20  C15 UNL     1      25.591   1.781  52.166  1.00  0.00     0.079 C 
HETATM   21  N3  UNL     1      24.739   0.612  52.170  1.00  0.00    -0.399 N 
HETATM   22  C16 UNL     1      24.223   0.239  53.452  1.00  0.00     0.119 C 
HETATM   23  C17 UNL     1      23.308  -0.914  53.523  1.00  0.00     0.024 C 
HETATM   24  C18 UNL     1      21.974  -0.795  52.831  1.00  0.00    -0.010 C 
HETATM   25  C19 UNL     1      21.992  -0.051  51.556  1.00  0.00     0.024 C 
HETATM   26  C20 UNL     1      20.537   0.331  51.209  1.00  0.00     0.126 C 
HETATM   27  N4  UNL     1      20.226   1.322  52.211  1.00  0.00    -0.347 N 
HETATM   28  C21 UNL     1      19.790   0.433  53.323  1.00  0.00     0.126 C 
HETATM   29  C22 UNL     1      20.949  -0.376  53.819  1.00  0.00     0.024 C 
HETATM   30  H1  UNL     1      19.825   6.454  49.598  1.00  0.00     0.189 HD
HETATM   31  H16 UNL     1      24.611   0.173  51.217  1.00  0.00     0.158 HD
ENDROOT
TORSDOF 0
ENDMDL
MODEL 7
REMARK VINA RESULT:      -8.1      3.573      6.276
REMARK  0 active torsions:
REMARK  status: ('A' for Active; 'I' for Inactive)
ROOT
HETATM    1  O1  UNL     1      19.273   3.716  49.917  1.00  0.00    -0.266 OA
HETATM    2  C1  UNL     1      20.362   3.625  49.322  1.00  0.00     0.270 C 
HETATM    3  C2  UNL     1      20.375   5.070  49.383  1.00  0.00     0.126 C 
HETATM    4  N1  UNL     1      20.216   5.825  48.317  1.00  0.00    -0.173 NA
HETATM    5  N2  UNL     1      21.036   7.000  48.234  1.00  0.00    -0.281 N 
HETATM    6  C3  UNL     1      21.984   7.304  49.302  1.00  0.00     0.038 C 
HETATM    7  C4  UNL     1      22.033   6.436  50.331  1.00  0.00    -0.019 C 
HETATM    8  C5  UNL     1      20.614   5.955  50.583  1.00  0.00     0.108 C 
HETATM    9  C6  UNL     1      23.023   5.856  51.182  1.00  0.00    -0.024 C 
HETATM   10  C7  UNL     1      24.331   5.962  51.268  1.00  0.00     0.142 C 
HETATM   11  O2  UNL     1      24.652   6.840  50.280  1.00  0.00    -0.362 OA
HETATM   12  C8  UNL     1      25.859   7.582  50.169  1.00  0.00     0.181 C 
HETATM   13  C9  UNL     1      25.558   8.797  49.263  1.00  0.00     0.096 C 
HETATM   14  C10 UNL     1      25.089   8.321  47.951  1.00  0.00     0.092 C 
HETATM   15  F1  UNL     1      25.723   7.957  46.837  1.00  0.00    -0.211 F 
HETATM   16  C11 UNL     1      23.755   8.279  47.964  1.00  0.00     0.017 C 
HETATM   17  C12 UNL     1      22.722   8.595  48.986  1.00  0.00     0.089 C 
HETATM   18  C13 UNL     1      22.607   4.894  52.222  1.00  0.00     0.069 C 
HETATM   19  C14 UNL     1      23.757   4.349  52.947  1.00  0.00    -0.006 C 
HETATM   20  C15 UNL     1      24.054   3.041  52.934  1.00  0.00     0.079 C 
HETATM   21  N3  UNL     1      23.521   1.832  52.345  1.00  0.00    -0.399 N 
HETATM   22  C16 UNL     1      22.338   1.323  52.966  1.00  0.00     0.119 C 
HETATM   23  C17 UNL     1      21.712   0.120  52.387  1.00  0.00     0.024 C 
HETATM   24  C18 UNL     1      21.141   0.226  50.997  1.00  0.00    -0.010 C 
HETATM   25  C19 UNL     1      21.909   1.079  50.066  1.00  0.00     0.024 C 
HETATM   26  C20 UNL     1      20.998   1.410  48.865  1.00  0.00     0.126 C 
HETATM   27  N4  UNL     1      20.016   2.292  49.450  1.00  0.00    -0.347 N 
HETATM   28  C21 UNL     1      19.053   1.289  49.980  1.00  0.00     0.126 C 
HETATM   29  C22 UNL     1      19.686   0.503  51.087  1.00  0.00     0.024 C 
HETATM   30  H1  UNL     1      20.908   7.603  47.369  1.00  0.00     0.189 HD
HETATM   31  H16 UNL     1      24.085   1.471  51.526  1.00  0.00     0.158 HD
ENDROOT
TORSDOF 0
ENDMDL
MODEL 8
REMARK VINA RESULT:      -8.1      4.981      7.600
REMARK  0 active torsions:
REMARK  status: ('A' for Active; 'I' for Inactive)
ROOT
HETATM    1  O1  UNL     1      24.917   9.084  48.293  1.00  0.00    -0.266 OA
HETATM    2  C1  UNL     1      25.342   8.703  49.399  1.00  0.00     0.270 C 
HETATM    3  C2  UNL     1      24.447   7.580  49.217  1.00  0.00     0.126 C 
HETATM    4  N1  UNL     1      23.357   7.420  49.935  1.00  0.00    -0.173 NA
HETATM    5  N2  UNL     1      23.050   6.080  50.346  1.00  0.00    -0.281 N 
HETATM    6  C3  UNL     1      23.930   4.981  49.963  1.00  0.00     0.038 C 
HETATM    7  C4  UNL     1      25.010   5.301  49.224  1.00  0.00    -0.019 C 
HETATM    8  C5  UNL     1      24.592   6.410  48.274  1.00  0.00     0.108 C 
HETATM    9  C6  UNL     1      26.382   4.913  49.129  1.00  0.00    -0.024 C 
HETATM   10  C7  UNL     1      27.136   4.051  49.775  1.00  0.00     0.142 C 
HETATM   11  O2  UNL     1      26.289   3.496  50.684  1.00  0.00    -0.362 OA
HETATM   12  C8  UNL     1      26.480   2.269  51.375  1.00  0.00     0.181 C 
HETATM   13  C9  UNL     1      25.083   1.794  51.839  1.00  0.00     0.096 C 
HETATM   14  C10 UNL     1      24.484   2.820  52.707  1.00  0.00     0.092 C 
HETATM   15  F1  UNL     1      24.565   3.066  54.014  1.00  0.00    -0.211 F 
HETATM   16  C11 UNL     1      23.721   3.619  51.958  1.00  0.00     0.017 C 
HETATM   17  C12 UNL     1      23.388   3.669  50.510  1.00  0.00     0.089 C 
HETATM   18  C13 UNL     1      27.250   5.570  48.131  1.00  0.00     0.069 C 
HETATM   19  C14 UNL     1      28.634   5.101  48.225  1.00  0.00    -0.006 C 
HETATM   20  C15 UNL     1      29.648   5.926  48.528  1.00  0.00     0.079 C 
HETATM   21  N3  UNL     1      29.827   7.328  48.834  1.00  0.00    -0.399 N 
HETATM   22  C16 UNL     1      29.745   8.212  47.712  1.00  0.00     0.119 C 
HETATM   23  C17 UNL     1      29.870   9.659  47.958  1.00  0.00     0.024 C 
HETATM   24  C18 UNL     1      28.797  10.327  48.778  1.00  0.00    -0.010 C 
HETATM   25  C19 UNL     1      28.261   9.517  49.891  1.00  0.00     0.024 C 
HETATM   26  C20 UNL     1      26.930  10.153  50.344  1.00  0.00     0.126 C 
HETATM   27  N4  UNL     1      26.055   9.875  49.230  1.00  0.00    -0.347 N 
HETATM   28  C21 UNL     1      26.379  11.034  48.354  1.00  0.00     0.126 C 
HETATM   29  C22 UNL     1      27.793  10.931  47.868  1.00  0.00     0.024 C 
HETATM   30  H1  UNL     1      22.172   5.956  50.931  1.00  0.00     0.189 HD
HETATM   31  H16 UNL     1      30.006   7.522  49.858  1.00  0.00     0.158 HD
ENDROOT
TORSDOF 0
ENDMDL
MODEL 9
REMARK VINA RESULT:      -7.9      2.655      4.888
REMARK  0 active torsions:
REMARK  status: ('A' for Active; 'I' for Inactive)
ROOT
HETATM    1  O1  UNL     1      18.013   0.965  51.175  1.00  0.00    -0.266 OA
HETATM    2  C1  UNL     1      18.702   1.921  51.576  1.00  0.00     0.270 C 
HETATM    3  C2  UNL     1      19.717   0.923  51.828  1.00  0.00     0.126 C 
HETATM    4  N1  UNL     1      20.074   0.567  53.043  1.00  0.00    -0.173 NA
HETATM    5  N2  UNL     1      21.475   0.340  53.261  1.00  0.00    -0.281 N 
HETATM    6  C3  UNL     1      22.419   0.506  52.161  1.00  0.00     0.038 C 
HETATM    7  C4  UNL     1      21.903   0.874  50.972  1.00  0.00    -0.019 C 
HETATM    8  C5  UNL     1      20.563   0.173  50.826  1.00  0.00     0.108 C 
HETATM    9  C6  UNL     1      22.254   1.732  49.884  1.00  0.00    -0.024 C 
HETATM   10  C7  UNL     1      23.271   2.529  49.638  1.00  0.00     0.142 C 
HETATM   11  O2  UNL     1      24.061   2.395  50.737  1.00  0.00    -0.362 OA
HETATM   12  C8  UNL     1      25.437   2.737  50.833  1.00  0.00     0.181 C 
HETATM   13  C9  UNL     1      26.019   1.928  52.014  1.00  0.00     0.096 C 
HETATM   14  C10 UNL     1      25.288   2.268  53.245  1.00  0.00     0.092 C 
HETATM   15  F1  UNL     1      25.433   3.233  54.152  1.00  0.00    -0.211 F 
HETATM   16  C11 UNL     1      24.301   1.384  53.412  1.00  0.00     0.017 C 
HETATM   17  C12 UNL     1      23.830   0.204  52.640  1.00  0.00     0.089 C 
HETATM   18  C13 UNL     1      21.339   1.844  48.730  1.00  0.00     0.069 C 
HETATM   19  C14 UNL     1      21.822   2.818  47.749  1.00  0.00    -0.006 C 
HETATM   20  C15 UNL     1      21.127   3.922  47.437  1.00  0.00     0.079 C 
HETATM   21  N3  UNL     1      19.875   4.538  47.820  1.00  0.00    -0.399 N 
HETATM   22  C16 UNL     1      18.703   3.923  47.278  1.00  0.00     0.119 C 
HETATM   23  C17 UNL     1      17.390   4.469  47.665  1.00  0.00     0.024 C 
HETATM   24  C18 UNL     1      16.984   4.360  49.113  1.00  0.00    -0.010 C 
HETATM   25  C19 UNL     1      18.081   4.534  50.087  1.00  0.00     0.024 C 
HETATM   26  C20 UNL     1      17.597   3.991  51.448  1.00  0.00     0.126 C 
HETATM   27  N4  UNL     1      17.534   2.567  51.213  1.00  0.00    -0.347 N 
HETATM   28  C21 UNL     1      16.172   2.465  50.621  1.00  0.00     0.126 C 
HETATM   29  C22 UNL     1      16.137   3.155  49.292  1.00  0.00     0.024 C 
HETATM   30  H1  UNL     1      21.758   0.059  54.245  1.00  0.00     0.189 HD
HETATM   31  H16 UNL     1      19.989   5.377  48.453  1.00  0.00     0.158 HD
ENDROOT
TORSDOF 0
ENDMDL
