MODEL 1
REMARK VINA RESULT:      -8.5      0.000      0.000
REMARK  7 active torsions:
REMARK  status: ('A' for Active; 'I' for Inactive)
REMARK    1  A    between atoms: N1_1  and  C1_2 
REMARK    2  A    between atoms: C2_4  and  N3_5 
REMARK    3  A    between atoms: N3_5  and  C3_6 
REMARK    4  A    between atoms: N4_16  and  C12_17 
REMARK    5  A    between atoms: C12_17  and  C13_18 
REMARK    6  A    between atoms: C14_19  and  C15_20 
REMARK    7  A    between atoms: C17_22  and  C18_23 
ROOT
HETATM    1  C1  UNL     1      21.008   0.784  51.064  1.00  0.00     0.724 A 
HETATM    2  N2  UNL     1      20.005   0.269  51.772  1.00  0.00    -0.044 NA
HETATM    3  C2  UNL     1      20.169  -0.348  52.951  1.00  0.00     0.161 A 
HETATM    4  C9  UNL     1      21.512  -0.378  53.330  1.00  0.00     0.059 A 
HETATM    5  C10 UNL     1      22.098  -0.930  54.461  1.00  0.00     0.036 A 
HETATM    6  C11 UNL     1      23.492  -0.756  54.440  1.00  0.00     0.094 A 
HETATM    7  N4  UNL     1      23.764  -0.082  53.281  1.00  0.00    -0.339 N 
HETATM    8  C19 UNL     1      22.604   0.125  52.658  1.00  0.00     0.163 A 
HETATM    9  N5  UNL     1      22.323   0.737  51.462  1.00  0.00    -0.044 NA
ENDROOT
BRANCH   3  10
HETATM   10  N3  UNL     1      19.232  -0.989  53.771  1.00  0.00    -0.340 N 
HETATM   11  H3  UNL     1      19.442  -1.069  54.782  1.00  0.00     0.167 HD
BRANCH  10  12
HETATM   12  C3  UNL     1      18.003  -1.549  53.332  1.00  0.00     0.035 A 
HETATM   13  C4  UNL     1      17.070  -0.936  52.527  1.00  0.00     0.029 A 
HETATM   14  C5  UNL     1      15.858  -1.481  52.058  1.00  0.00     0.004 A 
HETATM   15  C6  UNL     1      15.751  -2.769  52.550  1.00  0.00     0.019 A 
HETATM   16  C7  UNL     1      16.555  -3.524  53.340  1.00  0.00     0.013 A 
HETATM   17 BR1  UNL     1      16.148  -5.299  53.857  1.00  0.00    -0.051 Br
HETATM   18  C8  UNL     1      17.697  -2.855  53.715  1.00  0.00     0.048 A 
ENDBRANCH  10  12
ENDBRANCH   3  10
BRANCH   1  19
HETATM   19  N1  UNL     1      20.737   1.435  49.849  1.00  0.00    -0.231 N 
HETATM   20  H1  UNL     1      19.725   1.670  49.600  1.00  0.00     0.174 HD
HETATM   21  H2  UNL     1      20.618   1.904  48.957  1.00  0.00     0.174 HD
ENDBRANCH   1  19
BRANCH   7  22
HETATM   22  C12 UNL     1      25.094   0.297  52.957  1.00  0.00     0.146 C 
BRANCH  22  23
HETATM   23  C13 UNL     1      26.151  -0.674  53.040  1.00  0.00     0.022 A 
HETATM   24  C14 UNL     1      27.249  -0.945  53.127  1.00  0.00    -0.059 A 
HETATM   25  C18 UNL     1      27.331   0.342  53.319  1.00  0.00     0.040 A 
BRANCH  24  26
HETATM   26  C15 UNL     1      28.317  -1.184  53.214  1.00  0.00    -0.065 A 
HETATM   27  C16 UNL     1      29.474  -1.422  53.320  1.00  0.00     0.033 A 
HETATM   28  C17 UNL     1      28.768  -0.242  53.889  1.00  0.00     0.033 A 
ENDBRANCH  24  26
ENDBRANCH  22  23
ENDBRANCH   7  22
TORSDOF 7
ENDMDL
MODEL 2
REMARK VINA RESULT:      -8.5      1.747      2.937
REMARK  7 active torsions:
REMARK  status: ('A' for Active; 'I' for Inactive)
REMARK    1  A    between atoms: N1_1  and  C1_2 
REMARK    2  A    between atoms: C2_4  and  N3_5 
REMARK    3  A    between atoms: N3_5  and  C3_6 
REMARK    4  A    between atoms: N4_16  and  C12_17 
REMARK    5  A    between atoms: C12_17  and  C13_18 
REMARK    6  A    between atoms: C14_19  and  C15_20 
REMARK    7  A    between atoms: C17_22  and  C18_23 
ROOT
HETATM    1  C1  UNL     1      23.186  -1.005  54.915  1.00  0.00     0.724 A 
HETATM    2  N2  UNL     1      21.893  -0.796  54.678  1.00  0.00    -0.044 NA
HETATM    3  C2  UNL     1      21.435  -0.051  53.662  1.00  0.00     0.161 A 
HETATM    4  C9  UNL     1      22.481   0.469  52.898  1.00  0.00     0.059 A 
HETATM    5  C10 UNL     1      22.436   1.292  51.782  1.00  0.00     0.036 A 
HETATM    6  C11 UNL     1      23.729   1.600  51.330  1.00  0.00     0.094 A 
HETATM    7  N4  UNL     1      24.583   0.951  52.180  1.00  0.00    -0.339 N 
HETATM    8  C19 UNL     1      23.837   0.304  53.077  1.00  0.00     0.163 A 
HETATM    9  N5  UNL     1      24.195  -0.478  54.146  1.00  0.00    -0.044 NA
ENDROOT
BRANCH   3  10
HETATM   10  N3  UNL     1      20.124   0.310  53.327  1.00  0.00    -0.340 N 
HETATM   11  H3  UNL     1      19.914   1.315  53.196  1.00  0.00     0.167 HD
BRANCH  10  12
HETATM   12  C3  UNL     1      19.043  -0.594  53.150  1.00  0.00     0.035 A 
HETATM   13  C4  UNL     1      18.864  -1.788  53.809  1.00  0.00     0.029 A 
HETATM   14  C5  UNL     1      17.787  -2.687  53.669  1.00  0.00     0.004 A 
HETATM   15  C6  UNL     1      16.913  -2.162  52.734  1.00  0.00     0.019 A 
HETATM   16  C7  UNL     1      16.925  -1.022  51.998  1.00  0.00     0.013 A 
HETATM   17 BR1  UNL     1      15.558  -0.550  50.777  1.00  0.00    -0.051 Br
HETATM   18  C8  UNL     1      18.037  -0.252  52.246  1.00  0.00     0.048 A 
ENDBRANCH  10  12
ENDBRANCH   3  10
BRANCH   1  19
HETATM   19  N1  UNL     1      23.570  -1.823  55.991  1.00  0.00    -0.231 N 
HETATM   20  H1  UNL     1      23.929  -1.366  56.888  1.00  0.00     0.174 HD
HETATM   21  H2  UNL     1      23.828  -2.475  56.725  1.00  0.00     0.174 HD
ENDBRANCH   1  19
BRANCH   7  22
HETATM   22  C12 UNL     1      25.989   1.016  51.987  1.00  0.00     0.146 C 
BRANCH  22  23
HETATM   23  C13 UNL     1      26.816  -0.085  52.401  1.00  0.00     0.022 A 
HETATM   24  C14 UNL     1      27.776  -0.497  52.843  1.00  0.00    -0.059 A 
HETATM   25  C18 UNL     1      27.965   0.774  53.068  1.00  0.00     0.040 A 
BRANCH  24  26
HETATM   26  C15 UNL     1      28.712  -0.873  53.274  1.00  0.00    -0.065 A 
HETATM   27  C16 UNL     1      29.728  -1.259  53.750  1.00  0.00     0.033 A 
HETATM   28  C17 UNL     1      29.162   0.111  53.887  1.00  0.00     0.033 A 
ENDBRANCH  24  26
ENDBRANCH  22  23
ENDBRANCH   7  22
TORSDOF 7
ENDMDL
MODEL 3
REMARK VINA RESULT:      -8.5      5.184      9.335
REMARK  7 active torsions:
REMARK  status: ('A' for Active; 'I' for Inactive)
REMARK    1  A    between atoms: N1_1  and  C1_2 
REMARK    2  A    between atoms: C2_4  and  N3_5 
REMARK    3  A    between atoms: N3_5  and  C3_6 
REMARK    4  A    between atoms: N4_16  and  C12_17 
REMARK    5  A    between atoms: C12_17  and  C13_18 
REMARK    6  A    between atoms: C14_19  and  C15_20 
REMARK    7  A    between atoms: C17_22  and  C18_23 
ROOT
HETATM    1  C1  UNL     1      26.839   1.888  53.116  1.00  0.00     0.724 A 
HETATM    2  N2  UNL     1      27.145   2.461  51.954  1.00  0.00    -0.044 NA
HETATM    3  C2  UNL     1      26.266   2.634  50.957  1.00  0.00     0.161 A 
HETATM    4  C9  UNL     1      25.005   2.138  51.295  1.00  0.00     0.059 A 
HETATM    5  C10 UNL     1      23.838   2.110  50.546  1.00  0.00     0.036 A 
HETATM    6  C11 UNL     1      22.796   1.498  51.263  1.00  0.00     0.094 A 
HETATM    7  N4  UNL     1      23.332   1.150  52.473  1.00  0.00    -0.339 N 
HETATM    8  C19 UNL     1      24.610   1.531  52.466  1.00  0.00     0.163 A 
HETATM    9  N5  UNL     1      25.589   1.406  53.420  1.00  0.00    -0.044 NA
ENDROOT
BRANCH   3  10
HETATM   10  N3  UNL     1      26.452   3.154  49.670  1.00  0.00    -0.340 N 
HETATM   11  H3  UNL     1      26.483   2.490  48.876  1.00  0.00     0.167 HD
BRANCH  10  12
HETATM   12  C3  UNL     1      26.606   4.530  49.354  1.00  0.00     0.035 A 
HETATM   13  C4  UNL     1      27.602   5.082  48.583  1.00  0.00     0.029 A 
HETATM   14  C5  UNL     1      27.760   6.439  48.235  1.00  0.00     0.004 A 
HETATM   15  C6  UNL     1      26.722   7.150  48.812  1.00  0.00     0.019 A 
HETATM   16  C7  UNL     1      25.671   6.782  49.587  1.00  0.00     0.013 A 
HETATM   17 BR1  UNL     1      24.374   7.996  50.239  1.00  0.00    -0.051 Br
HETATM   18  C8  UNL     1      25.655   5.429  49.838  1.00  0.00     0.048 A 
ENDBRANCH  10  12
ENDBRANCH   3  10
BRANCH   1  19
HETATM   19  N1  UNL     1      27.823   1.772  54.112  1.00  0.00    -0.231 N 
HETATM   20  H1  UNL     1      27.541   1.429  55.084  1.00  0.00     0.174 HD
HETATM   21  H2  UNL     1      28.586   1.714  54.779  1.00  0.00     0.174 HD
ENDBRANCH   1  19
BRANCH   7  22
HETATM   22  C12 UNL     1      22.531   0.534  53.471  1.00  0.00     0.146 C 
BRANCH  22  23
HETATM   23  C13 UNL     1      21.121   0.365  53.248  1.00  0.00     0.022 A 
HETATM   24  C14 UNL     1      20.170  -0.249  53.316  1.00  0.00    -0.059 A 
HETATM   25  C18 UNL     1      20.965  -1.009  54.018  1.00  0.00     0.040 A 
BRANCH  24  26
HETATM   26  C15 UNL     1      19.261  -0.860  53.393  1.00  0.00    -0.065 A 
HETATM   27  C16 UNL     1      18.271  -1.509  53.457  1.00  0.00     0.033 A 
HETATM   28  C17 UNL     1      18.600  -0.518  52.396  1.00  0.00     0.033 A 
ENDBRANCH  24  26
ENDBRANCH  22  23
ENDBRANCH   7  22
TORSDOF 7
ENDMDL
MODEL 4
REMARK VINA RESULT:      -8.5      3.108      8.854
REMARK  7 active torsions:
REMARK  status: ('A' for Active; 'I' for Inactive)
REMARK    1  A    between atoms: N1_1  and  C1_2 
REMARK    2  A    between atoms: C2_4  and  N3_5 
REMARK    3  A    between atoms: N3_5  and  C3_6 
REMARK    4  A    between atoms: N4_16  and  C12_17 
REMARK    5  A    between atoms: C12_17  and  C13_18 
REMARK    6  A    between atoms: C14_19  and  C15_20 
REMARK    7  A    between atoms: C17_22  and  C18_23 
ROOT
HETATM    1  C1  UNL     1      23.169  -1.103  54.890  1.00  0.00     0.724 A 
HETATM    2  N2  UNL     1      24.201  -0.549  54.257  1.00  0.00    -0.044 NA
HETATM    3  C2  UNL     1      24.082   0.178  53.138  1.00  0.00     0.161 A 
HETATM    4  C9  UNL     1      22.750   0.275  52.730  1.00  0.00     0.059 A 
HETATM    5  C10 UNL     1      22.209   0.919  51.626  1.00  0.00     0.036 A 
HETATM    6  C11 UNL     1      20.815   0.748  51.578  1.00  0.00     0.094 A 
HETATM    7  N4  UNL     1      20.496  -0.008  52.673  1.00  0.00    -0.339 N 
HETATM    8  C19 UNL     1      21.631  -0.268  53.322  1.00  0.00     0.163 A 
HETATM    9  N5  UNL     1      21.867  -0.994  54.463  1.00  0.00    -0.044 NA
ENDROOT
BRANCH   3  10
HETATM   10  N3  UNL     1      25.068   0.762  52.332  1.00  0.00    -0.340 N 
HETATM   11  H3  UNL     1      24.801   1.065  51.378  1.00  0.00     0.167 HD
BRANCH  10  12
HETATM   12  C3  UNL     1      26.419   0.977  52.713  1.00  0.00     0.035 A 
HETATM   13  C4  UNL     1      27.006   2.192  52.979  1.00  0.00     0.029 A 
HETATM   14  C5  UNL     1      28.336   2.427  53.384  1.00  0.00     0.004 A 
HETATM   15  C6  UNL     1      28.976   1.204  53.473  1.00  0.00     0.019 A 
HETATM   16  C7  UNL     1      28.565  -0.070  53.255  1.00  0.00     0.013 A 
HETATM   17 BR1  UNL     1      29.682  -1.584  53.471  1.00  0.00    -0.051 Br
HETATM   18  C8  UNL     1      27.247  -0.135  52.867  1.00  0.00     0.048 A 
ENDBRANCH  10  12
ENDBRANCH   3  10
BRANCH   1  19
HETATM   19  N1  UNL     1      23.389  -1.829  56.073  1.00  0.00    -0.231 N 
HETATM   20  H1  UNL     1      23.399  -1.310  57.007  1.00  0.00     0.174 HD
HETATM   21  H2  UNL     1      23.553  -2.418  56.883  1.00  0.00     0.174 HD
ENDBRANCH   1  19
BRANCH   7  22
HETATM   22  C12 UNL     1      19.144  -0.341  52.956  1.00  0.00     0.146 C 
BRANCH  22  23
HETATM   23  C13 UNL     1      18.818  -1.665  53.412  1.00  0.00     0.022 A 
HETATM   24  C14 UNL     1      18.086  -2.521  53.537  1.00  0.00    -0.059 A 
HETATM   25  C18 UNL     1      17.374  -1.743  52.769  1.00  0.00     0.040 A 
BRANCH  24  26
HETATM   26  C15 UNL     1      17.360  -3.338  53.646  1.00  0.00    -0.065 A 
HETATM   27  C16 UNL     1      16.562  -4.209  53.750  1.00  0.00     0.033 A 
HETATM   28  C17 UNL     1      16.399  -2.964  52.951  1.00  0.00     0.033 A 
ENDBRANCH  24  26
ENDBRANCH  22  23
ENDBRANCH   7  22
TORSDOF 7
ENDMDL
MODEL 5
REMARK VINA RESULT:      -8.3      4.800      6.364
REMARK  7 active torsions:
REMARK  status: ('A' for Active; 'I' for Inactive)
REMARK    1  A    between atoms: N1_1  and  C1_2 
REMARK    2  A    between atoms: C2_4  and  N3_5 
REMARK    3  A    between atoms: N3_5  and  C3_6 
REMARK    4  A    between atoms: N4_16  and  C12_17 
REMARK    5  A    between atoms: C12_17  and  C13_18 
REMARK    6  A    between atoms: C14_19  and  C15_20 
REMARK    7  A    between atoms: C17_22  and  C18_23 
ROOT
HETATM    1  C1  UNL     1      26.370   0.633  52.353  1.00  0.00     0.724 A 
HETATM    2  N2  UNL     1      25.160   0.596  52.907  1.00  0.00    -0.044 NA
HETATM    3  C2  UNL     1      24.178   1.458  52.605  1.00  0.00     0.161 A 
HETATM    4  C9  UNL     1      24.590   2.388  51.649  1.00  0.00     0.059 A 
HETATM    5  C10 UNL     1      23.889   3.444  51.085  1.00  0.00     0.036 A 
HETATM    6  C11 UNL     1      24.690   4.149  50.171  1.00  0.00     0.094 A 
HETATM    7  N4  UNL     1      25.902   3.511  50.172  1.00  0.00    -0.339 N 
HETATM    8  C19 UNL     1      25.817   2.497  51.033  1.00  0.00     0.163 A 
HETATM    9  N5  UNL     1      26.748   1.563  51.415  1.00  0.00    -0.044 NA
ENDROOT
BRANCH   3  10
HETATM   10  N3  UNL     1      22.892   1.584  53.144  1.00  0.00    -0.340 N 
HETATM   11  H3  UNL     1      22.544   2.535  53.359  1.00  0.00     0.167 HD
BRANCH  10  12
HETATM   12  C3  UNL     1      22.010   0.507  53.426  1.00  0.00     0.035 A 
HETATM   13  C4  UNL     1      22.266  -0.558  54.259  1.00  0.00     0.029 A 
HETATM   14  C5  UNL     1      21.398  -1.623  54.574  1.00  0.00     0.004 A 
HETATM   15  C6  UNL     1      20.212  -1.422  53.891  1.00  0.00     0.019 A 
HETATM   16  C7  UNL     1      19.789  -0.450  53.044  1.00  0.00     0.013 A 
HETATM   17 BR1  UNL     1      18.071  -0.429  52.248  1.00  0.00    -0.051 Br
HETATM   18  C8  UNL     1      20.746   0.516  52.837  1.00  0.00     0.048 A 
ENDBRANCH  10  12
ENDBRANCH   3  10
BRANCH   1  19
HETATM   19  N1  UNL     1      27.328  -0.329  52.714  1.00  0.00    -0.231 N 
HETATM   20  H1  UNL     1      28.352  -0.037  52.797  1.00  0.00     0.174 HD
HETATM   21  H2  UNL     1      27.961  -1.077  52.978  1.00  0.00     0.174 HD
ENDBRANCH   1  19
BRANCH   7  22
HETATM   22  C12 UNL     1      26.951   3.946  49.319  1.00  0.00     0.146 C 
BRANCH  22  23
HETATM   23  C13 UNL     1      26.914   5.273  48.765  1.00  0.00     0.022 A 
HETATM   24  C14 UNL     1      27.429   6.180  48.322  1.00  0.00    -0.059 A 
HETATM   25  C18 UNL     1      28.438   5.354  48.350  1.00  0.00     0.040 A 
BRANCH  24  26
HETATM   26  C15 UNL     1      27.949   7.047  47.893  1.00  0.00    -0.065 A 
HETATM   27  C16 UNL     1      28.531   7.971  47.432  1.00  0.00     0.033 A 
HETATM   28  C17 UNL     1      29.135   6.675  47.845  1.00  0.00     0.033 A 
ENDBRANCH  24  26
ENDBRANCH  22  23
ENDBRANCH   7  22
TORSDOF 7
ENDMDL
MODEL 6
REMARK VINA RESULT:      -8.2      4.011      5.211
REMARK  7 active torsions:
REMARK  status: ('A' for Active; 'I' for Inactive)
REMARK    1  A    between atoms: N1_1  and  C1_2 
REMARK    2  A    between atoms: C2_4  and  N3_5 
REMARK    3  A    between atoms: N3_5  and  C3_6 
REMARK    4  A    between atoms: N4_16  and  C12_17 
REMARK    5  A    between atoms: C12_17  and  C13_18 
REMARK    6  A    between atoms: C14_19  and  C15_20 
REMARK    7  A    between atoms: C17_22  and  C18_23 
ROOT
HETATM    1  C1  UNL     1      24.881   0.024  52.907  1.00  0.00     0.724 A 
HETATM    2  N2  UNL     1      23.628   0.064  53.356  1.00  0.00    -0.044 NA
HETATM    3  C2  UNL     1      22.728   0.977  52.966  1.00  0.00     0.161 A 
HETATM    4  C9  UNL     1      23.273   1.868  52.039  1.00  0.00     0.059 A 
HETATM    5  C10 UNL     1      22.685   2.956  51.409  1.00  0.00     0.036 A 
HETATM    6  C11 UNL     1      23.600   3.600  50.560  1.00  0.00     0.094 A 
HETATM    7  N4  UNL     1      24.767   2.894  50.669  1.00  0.00    -0.339 N 
HETATM    8  C19 UNL     1      24.552   1.898  51.529  1.00  0.00     0.163 A 
HETATM    9  N5  UNL     1      25.390   0.917  51.996  1.00  0.00    -0.044 NA
ENDROOT
BRANCH   3  10
HETATM   10  N3  UNL     1      21.410   1.185  53.392  1.00  0.00    -0.340 N 
HETATM   11  H3  UNL     1      21.255   1.791  54.217  1.00  0.00     0.167 HD
BRANCH  10  12
HETATM   12  C3  UNL     1      20.253   0.628  52.786  1.00  0.00     0.035 A 
HETATM   13  C4  UNL     1      19.646   1.070  51.633  1.00  0.00     0.029 A 
HETATM   14  C5  UNL     1      18.514   0.518  50.999  1.00  0.00     0.004 A 
HETATM   15  C6  UNL     1      18.098  -0.571  51.744  1.00  0.00     0.019 A 
HETATM   16  C7  UNL     1      18.564  -1.142  52.883  1.00  0.00     0.013 A 
HETATM   17 BR1  UNL     1      17.781  -2.666  53.687  1.00  0.00    -0.051 Br
HETATM   18  C8  UNL     1      19.670  -0.491  53.379  1.00  0.00     0.048 A 
ENDBRANCH  10  12
ENDBRANCH   3  10
BRANCH   1  19
HETATM   19  N1  UNL     1      25.746  -0.987  53.356  1.00  0.00    -0.231 N 
HETATM   20  H1  UNL     1      26.759  -0.739  53.589  1.00  0.00     0.174 HD
HETATM   21  H2  UNL     1      26.312  -1.768  53.674  1.00  0.00     0.174 HD
ENDBRANCH   1  19
BRANCH   7  22
HETATM   22  C12 UNL     1      25.908   3.256  49.904  1.00  0.00     0.146 C 
BRANCH  22  23
HETATM   23  C13 UNL     1      26.001   4.577  49.346  1.00  0.00     0.022 A 
HETATM   24  C14 UNL     1      26.595   5.415  48.865  1.00  0.00    -0.059 A 
HETATM   25  C18 UNL     1      27.494   4.470  48.834  1.00  0.00     0.040 A 
BRANCH  24  26
HETATM   26  C15 UNL     1      27.190   6.211  48.399  1.00  0.00    -0.065 A 
HETATM   27  C16 UNL     1      27.852   7.058  47.897  1.00  0.00     0.033 A 
HETATM   28  C17 UNL     1      28.323   5.706  48.304  1.00  0.00     0.033 A 
ENDBRANCH  24  26
ENDBRANCH  22  23
ENDBRANCH   7  22
TORSDOF 7
ENDMDL
MODEL 7
REMARK VINA RESULT:      -8.2      6.136      9.478
REMARK  7 active torsions:
REMARK  status: ('A' for Active; 'I' for Inactive)
REMARK    1  A    between atoms: N1_1  and  C1_2 
REMARK    2  A    between atoms: C2_4  and  N3_5 
REMARK    3  A    between atoms: N3_5  and  C3_6 
REMARK    4  A    between atoms: N4_16  and  C12_17 
REMARK    5  A    between atoms: C12_17  and  C13_18 
REMARK    6  A    between atoms: C14_19  and  C15_20 
REMARK    7  A    between atoms: C17_22  and  C18_23 
ROOT
HETATM    1  C1  UNL     1      23.636   4.792  52.370  1.00  0.00     0.724 A 
HETATM    2  N2  UNL     1      24.132   5.412  51.301  1.00  0.00    -0.044 NA
HETATM    3  C2  UNL     1      24.008   4.947  50.050  1.00  0.00     0.161 A 
HETATM    4  C9  UNL     1      23.303   3.743  50.019  1.00  0.00     0.059 A 
HETATM    5  C10 UNL     1      22.976   2.938  48.937  1.00  0.00     0.036 A 
HETATM    6  C11 UNL     1      22.271   1.796  49.353  1.00  0.00     0.094 A 
HETATM    7  N4  UNL     1      22.160   1.905  50.713  1.00  0.00    -0.339 N 
HETATM    8  C19 UNL     1      22.763   3.039  51.073  1.00  0.00     0.163 A 
HETATM    9  N5  UNL     1      22.946   3.605  52.309  1.00  0.00    -0.044 NA
ENDROOT
BRANCH   3  10
HETATM   10  N3  UNL     1      24.525   5.445  48.847  1.00  0.00    -0.340 N 
HETATM   11  H3  UNL     1      23.869   5.597  48.060  1.00  0.00     0.167 HD
BRANCH  10  12
HETATM   12  C3  UNL     1      25.888   5.764  48.608  1.00  0.00     0.035 A 
HETATM   13  C4  UNL     1      26.963   4.923  48.781  1.00  0.00     0.029 A 
HETATM   14  C5  UNL     1      28.320   5.209  48.526  1.00  0.00     0.004 A 
HETATM   15  C6  UNL     1      28.401   6.509  48.060  1.00  0.00     0.019 A 
HETATM   16  C7  UNL     1      27.467   7.466  47.830  1.00  0.00     0.013 A 
HETATM   17 BR1  UNL     1      27.877   9.191  47.168  1.00  0.00    -0.051 Br
HETATM   18  C8  UNL     1      26.195   7.037  48.126  1.00  0.00     0.048 A 
ENDBRANCH  10  12
ENDBRANCH   3  10
BRANCH   1  19
HETATM   19  N1  UNL     1      23.793   5.370  53.641  1.00  0.00    -0.231 N 
HETATM   20  H1  UNL     1      22.935   5.493  54.266  1.00  0.00     0.174 HD
HETATM   21  H2  UNL     1      23.984   5.793  54.543  1.00  0.00     0.174 HD
ENDBRANCH   1  19
BRANCH   7  22
HETATM   22  C12 UNL     1      21.459   0.924  51.465  1.00  0.00     0.146 C 
BRANCH  22  23
HETATM   23  C13 UNL     1      22.193  -0.006  52.279  1.00  0.00     0.022 A 
HETATM   24  C14 UNL     1      22.465  -0.445  53.289  1.00  0.00    -0.059 A 
HETATM   25  C18 UNL     1      21.482   0.332  53.651  1.00  0.00     0.040 A 
BRANCH  24  26
HETATM   26  C15 UNL     1      22.711  -0.856  54.276  1.00  0.00    -0.065 A 
HETATM   27  C16 UNL     1      22.955  -1.298  55.349  1.00  0.00     0.033 A 
HETATM   28  C17 UNL     1      21.608  -0.909  54.849  1.00  0.00     0.033 A 
ENDBRANCH  24  26
ENDBRANCH  22  23
ENDBRANCH   7  22
TORSDOF 7
ENDMDL
MODEL 8
REMARK VINA RESULT:      -8.0      2.647      8.190
REMARK  7 active torsions:
REMARK  status: ('A' for Active; 'I' for Inactive)
REMARK    1  A    between atoms: N1_1  and  C1_2 
REMARK    2  A    between atoms: C2_4  and  N3_5 
REMARK    3  A    between atoms: N3_5  and  C3_6 
REMARK    4  A    between atoms: N4_16  and  C12_17 
REMARK    5  A    between atoms: C12_17  and  C13_18 
REMARK    6  A    between atoms: C14_19  and  C15_20 
REMARK    7  A    between atoms: C17_22  and  C18_23 
ROOT
HETATM    1  C1  UNL     1      21.621   1.058  50.138  1.00  0.00     0.724 A 
HETATM    2  N2  UNL     1      22.689   1.561  50.755  1.00  0.00    -0.044 NA
HETATM    3  C2  UNL     1      22.857   1.537  52.085  1.00  0.00     0.161 A 
HETATM    4  C9  UNL     1      21.778   0.926  52.726  1.00  0.00     0.059 A 
HETATM    5  C10 UNL     1      21.558   0.717  54.080  1.00  0.00     0.036 A 
HETATM    6  C11 UNL     1      20.325   0.079  54.297  1.00  0.00     0.094 A 
HETATM    7  N4  UNL     1      19.782  -0.110  53.055  1.00  0.00    -0.339 N 
HETATM    8  C19 UNL     1      20.641   0.388  52.165  1.00  0.00     0.163 A 
HETATM    9  N5  UNL     1      20.572   0.464  50.796  1.00  0.00    -0.044 NA
ENDROOT
BRANCH   3  10
HETATM   10  N3  UNL     1      23.880   2.076  52.874  1.00  0.00    -0.340 N 
HETATM   11  H3  UNL     1      23.662   2.904  53.457  1.00  0.00     0.167 HD
BRANCH  10  12
HETATM   12  C3  UNL     1      25.210   1.581  52.946  1.00  0.00     0.035 A 
HETATM   13  C4  UNL     1      26.330   2.302  53.289  1.00  0.00     0.029 A 
HETATM   14  C5  UNL     1      27.652   1.826  53.392  1.00  0.00     0.004 A 
HETATM   15  C6  UNL     1      27.645   0.478  53.083  1.00  0.00     0.019 A 
HETATM   16  C7  UNL     1      26.657  -0.382  52.730  1.00  0.00     0.013 A 
HETATM   17 BR1  UNL     1      26.945  -2.218  52.366  1.00  0.00    -0.051 Br
HETATM   18  C8  UNL     1      25.427   0.230  52.673  1.00  0.00     0.048 A 
ENDBRANCH  10  12
ENDBRANCH   3  10
BRANCH   1  19
HETATM   19  N1  UNL     1      21.545   1.106  48.736  1.00  0.00    -0.231 N 
HETATM   20  H1  UNL     1      21.572   2.056  48.246  1.00  0.00     0.174 HD
HETATM   21  H2  UNL     1      21.485   1.063  47.723  1.00  0.00     0.174 HD
ENDBRANCH   1  19
BRANCH   7  22
HETATM   22  C12 UNL     1      18.535  -0.772  52.902  1.00  0.00     0.146 C 
BRANCH  22  23
HETATM   23  C13 UNL     1      18.372  -2.109  53.407  1.00  0.00     0.022 A 
HETATM   24  C14 UNL     1      17.740  -3.030  53.598  1.00  0.00    -0.059 A 
HETATM   25  C18 UNL     1      16.908  -2.349  52.859  1.00  0.00     0.040 A 
BRANCH  24  26
HETATM   26  C15 UNL     1      17.109  -3.912  53.771  1.00  0.00    -0.065 A 
HETATM   27  C16 UNL     1      16.411  -4.855  53.943  1.00  0.00     0.033 A 
HETATM   28  C17 UNL     1      16.122  -3.706  53.041  1.00  0.00     0.033 A 
ENDBRANCH  24  26
ENDBRANCH  22  23
ENDBRANCH   7  22
TORSDOF 7
ENDMDL
MODEL 9
REMARK VINA RESULT:      -7.9      6.821      9.366
REMARK  7 active torsions:
REMARK  status: ('A' for Active; 'I' for Inactive)
REMARK    1  A    between atoms: N1_1  and  C1_2 
REMARK    2  A    between atoms: C2_4  and  N3_5 
REMARK    3  A    between atoms: N3_5  and  C3_6 
REMARK    4  A    between atoms: N4_16  and  C12_17 
REMARK    5  A    between atoms: C12_17  and  C13_18 
REMARK    6  A    between atoms: C14_19  and  C15_20 
REMARK    7  A    between atoms: C17_22  and  C18_23 
ROOT
HETATM    1  C1  UNL     1      23.315   4.765  51.956  1.00  0.00     0.724 A 
HETATM    2  N2  UNL     1      23.696   5.492  50.908  1.00  0.00    -0.044 NA
HETATM    3  C2  UNL     1      24.705   5.149  50.094  1.00  0.00     0.161 A 
HETATM    4  C9  UNL     1      25.295   3.947  50.489  1.00  0.00     0.059 A 
HETATM    5  C10 UNL     1      26.365   3.262  49.931  1.00  0.00     0.036 A 
HETATM    6  C11 UNL     1      26.650   2.095  50.659  1.00  0.00     0.094 A 
HETATM    7  N4  UNL     1      25.737   2.061  51.677  1.00  0.00    -0.339 N 
HETATM    8  C19 UNL     1      24.965   3.142  51.557  1.00  0.00     0.163 A 
HETATM    9  N5  UNL     1      23.917   3.586  52.323  1.00  0.00    -0.044 NA
ENDROOT
BRANCH   3  10
HETATM   10  N3  UNL     1      25.258   5.834  49.005  1.00  0.00    -0.340 N 
HETATM   11  H3  UNL     1      24.918   5.595  48.056  1.00  0.00     0.167 HD
BRANCH  10  12
HETATM   12  C3  UNL     1      26.257   6.839  49.088  1.00  0.00     0.035 A 
HETATM   13  C4  UNL     1      26.242   7.936  49.919  1.00  0.00     0.029 A 
HETATM   14  C5  UNL     1      27.233   8.931  50.037  1.00  0.00     0.004 A 
HETATM   15  C6  UNL     1      28.255   8.620  49.158  1.00  0.00     0.019 A 
HETATM   16  C7  UNL     1      28.439   7.602  48.280  1.00  0.00     0.013 A 
HETATM   17 BR1  UNL     1      29.975   7.426  47.187  1.00  0.00    -0.051 Br
HETATM   18  C8  UNL     1      27.388   6.715  48.280  1.00  0.00     0.048 A 
ENDBRANCH  10  12
ENDBRANCH   3  10
BRANCH   1  19
HETATM   19  N1  UNL     1      22.229   5.193  52.738  1.00  0.00    -0.231 N 
HETATM   20  H1  UNL     1      21.431   5.729  52.271  1.00  0.00     0.174 HD
HETATM   21  H2  UNL     1      21.479   5.469  53.365  1.00  0.00     0.174 HD
ENDBRANCH   1  19
BRANCH   7  22
HETATM   22  C12 UNL     1      25.715   0.978  52.596  1.00  0.00     0.146 C 
BRANCH  22  23
HETATM   23  C13 UNL     1      26.733  -0.036  52.526  1.00  0.00     0.022 A 
HETATM   24  C14 UNL     1      27.698  -0.504  52.893  1.00  0.00    -0.059 A 
HETATM   25  C18 UNL     1      27.525   0.391  53.826  1.00  0.00     0.040 A 
BRANCH  24  26
HETATM   26  C15 UNL     1      28.633  -0.941  53.267  1.00  0.00    -0.065 A 
HETATM   27  C16 UNL     1      29.643  -1.397  53.688  1.00  0.00     0.033 A 
HETATM   28  C17 UNL     1      28.884  -0.260  54.277  1.00  0.00     0.033 A 
ENDBRANCH  24  26
ENDBRANCH  22  23
ENDBRANCH   7  22
TORSDOF 7
ENDMDL
