MODEL 1
REMARK VINA RESULT:      -8.4      0.000      0.000
REMARK  2 active torsions:
REMARK  status: ('A' for Active; 'I' for Inactive)
REMARK    1  A    between atoms: C1_2  and  C2_3 
REMARK    2  A    between atoms: C14_18  and  O1_19 
ROOT
HETATM    1  C2  UNL     1      23.179   3.885  52.254  1.00  0.00     0.023 C 
HETATM    2  C3  UNL     1      22.050   4.434  51.825  1.00  0.00     0.007 C 
HETATM    3  C4  UNL     1      20.992   4.520  50.767  1.00  0.00     0.035 C 
HETATM    4  C5  UNL     1      19.722   4.046  51.568  1.00  0.00     0.012 C 
HETATM    5  C6  UNL     1      20.166   3.173  52.523  1.00  0.00     0.116 C 
HETATM    6  N2  UNL     1      21.214   2.344  51.960  1.00  0.00    -0.245 N 
HETATM    7  N3  UNL     1      21.569   2.536  50.664  1.00  0.00    -0.183 NA
HETATM    8  C7  UNL     1      21.118   3.362  49.836  1.00  0.00     0.130 C 
HETATM    9  C8  UNL     1      22.197   1.373  52.368  1.00  0.00     0.071 A 
HETATM   10  C9  UNL     1      21.648   0.241  52.931  1.00  0.00     0.056 A 
HETATM   11  C10 UNL     1      22.495  -0.747  53.406  1.00  0.00     0.036 A 
HETATM   12 CL1  UNL     1      21.789  -2.187  54.125  1.00  0.00    -0.084 Cl
HETATM   13  C11 UNL     1      23.844  -0.578  53.306  1.00  0.00     0.024 A 
HETATM   14  C12 UNL     1      24.384   0.570  52.734  1.00  0.00     0.017 A 
HETATM   15  C13 UNL     1      23.607   1.569  52.251  1.00  0.00     0.037 A 
HETATM   16  C14 UNL     1      24.101   2.753  51.612  1.00  0.00     0.224 C 
HETATM   17  O2  UNL     1      25.305   3.301  51.894  1.00  0.00    -0.347 OA
HETATM   18  C15 UNL     1      26.447   2.915  51.266  1.00  0.00     0.174 C 
HETATM   19  C16 UNL     1      26.348   3.305  49.778  1.00  0.00     0.056 C 
HETATM   20  C17 UNL     1      26.026   4.771  49.655  1.00  0.00     0.272 C 
HETATM   21  N4  UNL     1      25.037   4.928  48.612  1.00  0.00     0.085 N 
HETATM   22  C18 UNL     1      24.621   6.285  48.373  1.00  0.00     0.295 C 
HETATM   23  C19 UNL     1      23.351   6.272  47.567  1.00  0.00     0.197 C 
HETATM   24  O3  UNL     1      22.315   5.667  48.295  1.00  0.00    -0.389 OA
HETATM   25  C20 UNL     1      21.976   6.369  49.436  1.00  0.00     0.169 C 
HETATM   26  C21 UNL     1      20.796   5.834  50.181  1.00  0.00     0.049 C 
HETATM   27  H17 UNL     1      25.504   4.613  47.712  1.00  0.00     0.315 HD
ENDROOT
BRANCH   1  28
HETATM   28  C1  UNL     1      23.656   4.378  53.584  1.00  0.00     0.119 C 
HETATM   29  N1  UNL     1      23.978   5.600  53.393  1.00  0.00    -0.312 NA
HETATM   30  H1  UNL     1      24.346   6.211  54.140  1.00  0.00     0.186 HD
ENDBRANCH   1  28
BRANCH  16  31
HETATM   31  O1  UNL     1      23.773   2.804  50.262  1.00  0.00    -0.358 OA
HETATM   32  H10 UNL     1      23.115   2.060  50.037  1.00  0.00     0.213 HD
ENDBRANCH  16  31
TORSDOF 2
ENDMDL
MODEL 2
REMARK VINA RESULT:      -8.3      1.923      3.026
REMARK  2 active torsions:
REMARK  status: ('A' for Active; 'I' for Inactive)
REMARK    1  A    between atoms: C1_2  and  C2_3 
REMARK    2  A    between atoms: C14_18  and  O1_19 
ROOT
HETATM    1  C2  UNL     1      23.257   3.331  52.293  1.00  0.00     0.023 C 
HETATM    2  C3  UNL     1      22.047   2.824  52.491  1.00  0.00     0.007 C 
HETATM    3  C4  UNL     1      20.919   1.975  51.988  1.00  0.00     0.035 C 
HETATM    4  C5  UNL     1      20.889   0.836  53.075  1.00  0.00     0.012 C 
HETATM    5  C6  UNL     1      22.171   0.694  53.529  1.00  0.00     0.116 C 
HETATM    6  N2  UNL     1      23.089   0.825  52.414  1.00  0.00    -0.245 N 
HETATM    7  N3  UNL     1      22.579   1.045  51.175  1.00  0.00    -0.183 NA
HETATM    8  C7  UNL     1      21.381   1.165  50.825  1.00  0.00     0.130 C 
HETATM    9  C8  UNL     1      24.500   0.939  52.149  1.00  0.00     0.071 A 
HETATM   10  C9  UNL     1      25.229  -0.149  52.578  1.00  0.00     0.056 A 
HETATM   11  C10 UNL     1      26.604  -0.137  52.422  1.00  0.00     0.036 A 
HETATM   12 CL1  UNL     1      27.527  -1.527  52.973  1.00  0.00    -0.084 Cl
HETATM   13  C11 UNL     1      27.203   0.946  51.848  1.00  0.00     0.024 A 
HETATM   14  C12 UNL     1      26.455   2.037  51.418  1.00  0.00     0.017 A 
HETATM   15  C13 UNL     1      25.107   2.083  51.544  1.00  0.00     0.037 A 
HETATM   16  C14 UNL     1      24.278   3.157  51.082  1.00  0.00     0.224 C 
HETATM   17  O2  UNL     1      24.702   4.438  50.998  1.00  0.00    -0.347 OA
HETATM   18  C15 UNL     1      25.335   4.927  49.899  1.00  0.00     0.174 C 
HETATM   19  C16 UNL     1      24.346   4.924  48.717  1.00  0.00     0.056 C 
HETATM   20  C17 UNL     1      23.090   5.662  49.101  1.00  0.00     0.272 C 
HETATM   21  N4  UNL     1      21.959   4.912  48.603  1.00  0.00     0.085 N 
HETATM   22  C18 UNL     1      20.674   5.492  48.893  1.00  0.00     0.295 C 
HETATM   23  C19 UNL     1      19.608   4.455  48.671  1.00  0.00     0.197 C 
HETATM   24  O3  UNL     1      19.768   3.388  49.569  1.00  0.00    -0.389 OA
HETATM   25  C20 UNL     1      19.597   3.763  50.887  1.00  0.00     0.169 C 
HETATM   26  C21 UNL     1      19.634   2.642  51.874  1.00  0.00     0.049 C 
HETATM   27  H17 UNL     1      22.041   4.923  47.544  1.00  0.00     0.315 HD
ENDROOT
BRANCH   1  28
HETATM   28  C1  UNL     1      23.775   4.184  53.408  1.00  0.00     0.119 C 
HETATM   29  N1  UNL     1      23.256   5.336  53.220  1.00  0.00    -0.312 NA
HETATM   30  H1  UNL     1      23.432   6.144  53.839  1.00  0.00     0.186 HD
ENDBRANCH   1  28
BRANCH  16  31
HETATM   31  O1  UNL     1      23.457   2.777  50.026  1.00  0.00    -0.358 OA
HETATM   32  H10 UNL     1      22.805   2.058  50.335  1.00  0.00     0.213 HD
ENDBRANCH  16  31
TORSDOF 2
ENDMDL
MODEL 3
REMARK VINA RESULT:      -8.3      2.744      5.650
REMARK  2 active torsions:
REMARK  status: ('A' for Active; 'I' for Inactive)
REMARK    1  A    between atoms: C1_2  and  C2_3 
REMARK    2  A    between atoms: C14_18  and  O1_19 
ROOT
HETATM    1  C2  UNL     1      23.086   4.451  51.774  1.00  0.00     0.023 C 
HETATM    2  C3  UNL     1      23.125   3.270  52.379  1.00  0.00     0.007 C 
HETATM    3  C4  UNL     1      23.030   1.778  52.275  1.00  0.00     0.035 C 
HETATM    4  C5  UNL     1      24.479   1.351  52.722  1.00  0.00     0.012 C 
HETATM    5  C6  UNL     1      25.317   2.365  52.350  1.00  0.00     0.116 C 
HETATM    6  N2  UNL     1      24.907   2.872  51.055  1.00  0.00    -0.245 N 
HETATM    7  N3  UNL     1      23.836   2.304  50.444  1.00  0.00    -0.183 NA
HETATM    8  C7  UNL     1      23.104   1.368  50.844  1.00  0.00     0.130 C 
HETATM    9  C8  UNL     1      25.187   3.959  50.152  1.00  0.00     0.071 A 
HETATM   10  C9  UNL     1      26.493   3.983  49.711  1.00  0.00     0.056 A 
HETATM   11  C10 UNL     1      26.897   5.009  48.874  1.00  0.00     0.036 A 
HETATM   12 CL1  UNL     1      28.564   5.034  48.317  1.00  0.00    -0.084 Cl
HETATM   13  C11 UNL     1      25.999   5.967  48.507  1.00  0.00     0.024 A 
HETATM   14  C12 UNL     1      24.683   5.929  48.958  1.00  0.00     0.017 A 
HETATM   15  C13 UNL     1      24.229   4.951  49.778  1.00  0.00     0.037 A 
HETATM   16  C14 UNL     1      22.878   4.833  50.241  1.00  0.00     0.224 C 
HETATM   17  O2  UNL     1      22.058   5.895  50.415  1.00  0.00    -0.347 OA
HETATM   18  C15 UNL     1      21.294   6.399  49.410  1.00  0.00     0.174 C 
HETATM   19  C16 UNL     1      20.241   5.345  49.014  1.00  0.00     0.056 C 
HETATM   20  C17 UNL     1      19.472   4.909  50.233  1.00  0.00     0.272 C 
HETATM   21  N4  UNL     1      19.306   3.474  50.172  1.00  0.00     0.085 N 
HETATM   22  C18 UNL     1      18.585   2.901  51.277  1.00  0.00     0.295 C 
HETATM   23  C19 UNL     1      18.814   1.414  51.291  1.00  0.00     0.197 C 
HETATM   24  O3  UNL     1      20.170   1.129  51.518  1.00  0.00    -0.389 OA
HETATM   25  C20 UNL     1      20.608   1.544  52.761  1.00  0.00     0.169 C 
HETATM   26  C21 UNL     1      22.010   1.155  53.100  1.00  0.00     0.049 C 
HETATM   27  H17 UNL     1      18.709   3.282  49.314  1.00  0.00     0.315 HD
ENDROOT
BRANCH   1  28
HETATM   28  C1  UNL     1      23.312   5.627  52.671  1.00  0.00     0.119 C 
HETATM   29  N1  UNL     1      23.946   5.164  53.679  1.00  0.00    -0.312 NA
HETATM   30  H1  UNL     1      24.246   5.749  54.476  1.00  0.00     0.186 HD
ENDBRANCH   1  28
BRANCH  16  31
HETATM   31  O1  UNL     1      22.234   3.717  49.719  1.00  0.00    -0.358 OA
HETATM   32  H10 UNL     1      22.523   2.882  50.225  1.00  0.00     0.213 HD
ENDBRANCH  16  31
TORSDOF 2
ENDMDL
MODEL 4
REMARK VINA RESULT:      -8.2      2.052      4.393
REMARK  2 active torsions:
REMARK  status: ('A' for Active; 'I' for Inactive)
REMARK    1  A    between atoms: C1_2  and  C2_3 
REMARK    2  A    between atoms: C14_18  and  O1_19 
ROOT
HETATM    1  C2  UNL     1      22.989   3.113  49.263  1.00  0.00     0.023 C 
HETATM    2  C3  UNL     1      23.904   4.009  48.914  1.00  0.00     0.007 C 
HETATM    3  C4  UNL     1      24.685   5.240  49.262  1.00  0.00     0.035 C 
HETATM    4  C5  UNL     1      26.154   4.672  49.275  1.00  0.00     0.012 C 
HETATM    5  C6  UNL     1      26.063   3.360  49.651  1.00  0.00     0.116 C 
HETATM    6  N2  UNL     1      25.058   3.231  50.688  1.00  0.00    -0.245 N 
HETATM    7  N3  UNL     1      24.409   4.347  51.107  1.00  0.00    -0.183 NA
HETATM    8  C7  UNL     1      24.542   5.531  50.716  1.00  0.00     0.130 C 
HETATM    9  C8  UNL     1      24.344   2.214  51.417  1.00  0.00     0.071 A 
HETATM   10  C9  UNL     1      25.166   1.391  52.157  1.00  0.00     0.056 A 
HETATM   11  C10 UNL     1      24.601   0.344  52.865  1.00  0.00     0.036 A 
HETATM   12 CL1  UNL     1      25.655  -0.703  53.804  1.00  0.00    -0.084 Cl
HETATM   13  C11 UNL     1      23.252   0.153  52.816  1.00  0.00     0.024 A 
HETATM   14  C12 UNL     1      22.434   0.993  52.067  1.00  0.00     0.017 A 
HETATM   15  C13 UNL     1      22.928   2.033  51.354  1.00  0.00     0.037 A 
HETATM   16  C14 UNL     1      22.135   2.958  50.600  1.00  0.00     0.224 C 
HETATM   17  O2  UNL     1      20.950   2.632  50.036  1.00  0.00    -0.347 OA
HETATM   18  C15 UNL     1      19.772   2.721  50.710  1.00  0.00     0.174 C 
HETATM   19  C16 UNL     1      19.491   4.205  51.018  1.00  0.00     0.056 C 
HETATM   20  C17 UNL     1      19.552   5.011  49.747  1.00  0.00     0.272 C 
HETATM   21  N4  UNL     1      20.260   6.239  50.027  1.00  0.00     0.085 N 
HETATM   22  C18 UNL     1      20.404   7.125  48.902  1.00  0.00     0.295 C 
HETATM   23  C19 UNL     1      21.459   8.149  49.218  1.00  0.00     0.197 C 
HETATM   24  O3  UNL     1      22.707   7.530  49.390  1.00  0.00    -0.389 OA
HETATM   25  C20 UNL     1      23.170   6.919  48.241  1.00  0.00     0.169 C 
HETATM   26  C21 UNL     1      24.549   6.352  48.337  1.00  0.00     0.049 C 
HETATM   27  H17 UNL     1      19.665   6.769  50.730  1.00  0.00     0.315 HD
ENDROOT
BRANCH   1  28
HETATM   28  C1  UNL     1      22.737   2.041  48.251  1.00  0.00     0.119 C 
HETATM   29  N1  UNL     1      22.180   2.632  47.264  1.00  0.00    -0.312 NA
HETATM   30  H1  UNL     1      21.886   2.143  46.404  1.00  0.00     0.186 HD
ENDBRANCH   1  28
BRANCH  16  31
HETATM   31  O1  UNL     1      22.155   4.239  51.140  1.00  0.00    -0.358 OA
HETATM   32  H10 UNL     1      22.687   4.863  50.535  1.00  0.00     0.213 HD
ENDBRANCH  16  31
TORSDOF 2
ENDMDL
MODEL 5
REMARK VINA RESULT:      -7.9      3.624      6.395
REMARK  2 active torsions:
REMARK  status: ('A' for Active; 'I' for Inactive)
REMARK    1  A    between atoms: C1_2  and  C2_3 
REMARK    2  A    between atoms: C14_18  and  O1_19 
ROOT
HETATM    1  C2  UNL     1      20.673   1.475  50.555  1.00  0.00     0.023 C 
HETATM    2  C3  UNL     1      19.461   1.530  50.017  1.00  0.00     0.007 C 
HETATM    3  C4  UNL     1      18.014   1.891  50.161  1.00  0.00     0.035 C 
HETATM    4  C5  UNL     1      17.869   3.008  49.060  1.00  0.00     0.012 C 
HETATM    5  C6  UNL     1      19.087   3.623  48.965  1.00  0.00     0.116 C 
HETATM    6  N2  UNL     1      19.657   3.760  50.291  1.00  0.00    -0.245 N 
HETATM    7  N3  UNL     1      18.949   3.299  51.354  1.00  0.00    -0.183 NA
HETATM    8  C7  UNL     1      17.827   2.740  51.372  1.00  0.00     0.130 C 
HETATM    9  C8  UNL     1      20.890   4.139  50.933  1.00  0.00     0.071 A 
HETATM   10  C9  UNL     1      21.266   5.439  50.673  1.00  0.00     0.056 A 
HETATM   11  C10 UNL     1      22.460   5.907  51.196  1.00  0.00     0.036 A 
HETATM   12 CL1  UNL     1      22.935   7.564  50.858  1.00  0.00    -0.084 Cl
HETATM   13  C11 UNL     1      23.231   5.075  51.954  1.00  0.00     0.024 A 
HETATM   14  C12 UNL     1      22.837   3.765  52.210  1.00  0.00     0.017 A 
HETATM   15  C13 UNL     1      21.681   3.252  51.726  1.00  0.00     0.037 A 
HETATM   16  C14 UNL     1      21.200   1.927  51.990  1.00  0.00     0.224 C 
HETATM   17  O2  UNL     1      22.016   0.877  52.237  1.00  0.00    -0.347 OA
HETATM   18  C15 UNL     1      22.465   0.580  53.486  1.00  0.00     0.174 C 
HETATM   19  C16 UNL     1      21.263   0.160  54.355  1.00  0.00     0.056 C 
HETATM   20  C17 UNL     1      20.506  -0.951  53.676  1.00  0.00     0.272 C 
HETATM   21  N4  UNL     1      19.092  -0.684  53.818  1.00  0.00     0.085 N 
HETATM   22  C18 UNL     1      18.228  -1.664  53.215  1.00  0.00     0.295 C 
HETATM   23  C19 UNL     1      16.843  -1.088  53.098  1.00  0.00     0.197 C 
HETATM   24  O3  UNL     1      16.844   0.017  52.234  1.00  0.00    -0.389 OA
HETATM   25  C20 UNL     1      17.177  -0.313  50.935  1.00  0.00     0.169 C 
HETATM   26  C21 UNL     1      17.072   0.805  49.950  1.00  0.00     0.049 C 
HETATM   27  H17 UNL     1      18.887  -0.728  54.860  1.00  0.00     0.315 HD
ENDROOT
BRANCH   1  28
HETATM   28  C1  UNL     1      21.739   0.931  49.658  1.00  0.00     0.119 C 
HETATM   29  N1  UNL     1      21.216   0.903  48.492  1.00  0.00    -0.312 NA
HETATM   30  H1  UNL     1      21.719   0.571  47.653  1.00  0.00     0.186 HD
ENDBRANCH   1  28
BRANCH  16  31
HETATM   31  O1  UNL     1      20.048   1.926  52.767  1.00  0.00    -0.358 OA
HETATM   32  H10 UNL     1      19.268   2.302  52.231  1.00  0.00     0.213 HD
ENDBRANCH  16  31
TORSDOF 2
ENDMDL
MODEL 6
REMARK VINA RESULT:      -7.7      7.504     10.278
REMARK  2 active torsions:
REMARK  status: ('A' for Active; 'I' for Inactive)
REMARK    1  A    between atoms: C1_2  and  C2_3 
REMARK    2  A    between atoms: C14_18  and  O1_19 
ROOT
HETATM    1  C2  UNL     1      31.267   8.093  48.371  1.00  0.00     0.023 C 
HETATM    2  C3  UNL     1      31.169   9.398  48.153  1.00  0.00     0.007 C 
HETATM    3  C4  UNL     1      30.790  10.514  47.226  1.00  0.00     0.035 C 
HETATM    4  C5  UNL     1      29.626  11.198  48.036  1.00  0.00     0.012 C 
HETATM    5  C6  UNL     1      29.027  10.211  48.770  1.00  0.00     0.116 C 
HETATM    6  N2  UNL     1      28.956   9.002  47.973  1.00  0.00    -0.245 N 
HETATM    7  N3  UNL     1      29.449   9.027  46.708  1.00  0.00    -0.183 NA
HETATM    8  C7  UNL     1      29.990   9.975  46.091  1.00  0.00     0.130 C 
HETATM    9  C8  UNL     1      28.624   7.606  48.105  1.00  0.00     0.071 A 
HETATM   10  C9  UNL     1      27.321   7.387  48.495  1.00  0.00     0.056 A 
HETATM   11  C10 UNL     1      26.896   6.086  48.703  1.00  0.00     0.036 A 
HETATM   12 CL1  UNL     1      25.233   5.813  49.203  1.00  0.00    -0.084 Cl
HETATM   13  C11 UNL     1      27.771   5.057  48.516  1.00  0.00     0.024 A 
HETATM   14  C12 UNL     1      29.083   5.293  48.120  1.00  0.00     0.017 A 
HETATM   15  C13 UNL     1      29.557   6.543  47.902  1.00  0.00     0.037 A 
HETATM   16  C14 UNL     1      30.883   6.848  47.451  1.00  0.00     0.224 C 
HETATM   17  O2  UNL     1      31.956   6.070  47.721  1.00  0.00    -0.347 OA
HETATM   18  C15 UNL     1      32.313   5.021  46.933  1.00  0.00     0.174 C 
HETATM   19  C16 UNL     1      32.749   5.563  45.558  1.00  0.00     0.056 C 
HETATM   20  C17 UNL     1      33.818   6.609  45.737  1.00  0.00     0.272 C 
HETATM   21  N4  UNL     1      33.534   7.701  44.834  1.00  0.00     0.085 N 
HETATM   22  C18 UNL     1      34.474   8.790  44.887  1.00  0.00     0.295 C 
HETATM   23  C19 UNL     1      33.871   9.989  44.209  1.00  0.00     0.197 C 
HETATM   24  O3  UNL     1      32.730  10.422  44.902  1.00  0.00    -0.389 OA
HETATM   25  C20 UNL     1      33.011  10.870  46.178  1.00  0.00     0.169 C 
HETATM   26  C21 UNL     1      31.850  11.456  46.913  1.00  0.00     0.049 C 
HETATM   27  H17 UNL     1      33.619   7.302  43.853  1.00  0.00     0.315 HD
ENDROOT
BRANCH   1  28
HETATM   28  C1  UNL     1      31.790   7.716  49.721  1.00  0.00     0.119 C 
HETATM   29  N1  UNL     1      31.701   8.778  50.425  1.00  0.00    -0.312 NA
HETATM   30  H1  UNL     1      31.990   8.827  51.415  1.00  0.00     0.186 HD
ENDBRANCH   1  28
BRANCH  16  31
HETATM   31  O1  UNL     1      30.898   7.384  46.169  1.00  0.00    -0.358 OA
HETATM   32  H10 UNL     1      29.950   7.427  45.800  1.00  0.00     0.213 HD
ENDBRANCH  16  31
TORSDOF 2
ENDMDL
MODEL 7
REMARK VINA RESULT:      -7.6      2.341      4.528
REMARK  2 active torsions:
REMARK  status: ('A' for Active; 'I' for Inactive)
REMARK    1  A    between atoms: C1_2  and  C2_3 
REMARK    2  A    between atoms: C14_18  and  O1_19 
ROOT
HETATM    1  C2  UNL     1      21.755   2.092  49.765  1.00  0.00     0.023 C 
HETATM    2  C3  UNL     1      22.927   2.198  50.380  1.00  0.00     0.007 C 
HETATM    3  C4  UNL     1      23.730   2.764  51.512  1.00  0.00     0.035 C 
HETATM    4  C5  UNL     1      24.166   1.448  52.260  1.00  0.00     0.012 C 
HETATM    5  C6  UNL     1      23.174   0.531  52.048  1.00  0.00     0.116 C 
HETATM    6  N2  UNL     1      21.887   1.197  52.112  1.00  0.00    -0.245 N 
HETATM    7  N3  UNL     1      21.857   2.530  52.361  1.00  0.00    -0.183 NA
HETATM    8  C7  UNL     1      22.814   3.320  52.548  1.00  0.00     0.130 C 
HETATM    9  C8  UNL     1      20.493   0.939  51.855  1.00  0.00     0.071 A 
HETATM   10  C9  UNL     1      19.971  -0.074  52.630  1.00  0.00     0.056 A 
HETATM   11  C10 UNL     1      18.651  -0.446  52.442  1.00  0.00     0.036 A 
HETATM   12 CL1  UNL     1      17.992  -1.740  53.432  1.00  0.00    -0.084 Cl
HETATM   13  C11 UNL     1      17.902   0.194  51.500  1.00  0.00     0.024 A 
HETATM   14  C12 UNL     1      18.442   1.216  50.725  1.00  0.00     0.017 A 
HETATM   15  C13 UNL     1      19.726   1.625  50.864  1.00  0.00     0.037 A 
HETATM   16  C14 UNL     1      20.326   2.698  50.128  1.00  0.00     0.224 C 
HETATM   17  O2  UNL     1      19.942   3.049  48.880  1.00  0.00    -0.347 OA
HETATM   18  C15 UNL     1      18.931   3.929  48.648  1.00  0.00     0.174 C 
HETATM   19  C16 UNL     1      19.356   5.317  49.168  1.00  0.00     0.056 C 
HETATM   20  C17 UNL     1      20.681   5.704  48.563  1.00  0.00     0.272 C 
HETATM   21  N4  UNL     1      21.491   6.300  49.601  1.00  0.00     0.085 N 
HETATM   22  C18 UNL     1      22.799   6.726  49.177  1.00  0.00     0.295 C 
HETATM   23  C19 UNL     1      23.654   6.960  50.393  1.00  0.00     0.197 C 
HETATM   24  O3  UNL     1      23.842   5.762  51.098  1.00  0.00    -0.389 OA
HETATM   25  C20 UNL     1      24.543   4.815  50.378  1.00  0.00     0.169 C 
HETATM   26  C21 UNL     1      24.877   3.567  51.128  1.00  0.00     0.049 C 
HETATM   27  H17 UNL     1      20.987   7.187  49.897  1.00  0.00     0.315 HD
ENDROOT
BRANCH   1  28
HETATM   28  C1  UNL     1      21.758   1.227  48.545  1.00  0.00     0.119 C 
HETATM   29  N1  UNL     1      22.420   1.882  47.670  1.00  0.00    -0.312 NA
HETATM   30  H1  UNL     1      22.594   1.533  46.713  1.00  0.00     0.186 HD
ENDBRANCH   1  28
BRANCH  16  31
HETATM   31  O1  UNL     1      20.639   3.786  50.936  1.00  0.00    -0.358 OA
HETATM   32  H10 UNL     1      20.117   3.730  51.809  1.00  0.00     0.213 HD
ENDBRANCH  16  31
TORSDOF 2
ENDMDL
MODEL 8
REMARK VINA RESULT:      -7.5      3.106      5.892
REMARK  2 active torsions:
REMARK  status: ('A' for Active; 'I' for Inactive)
REMARK    1  A    between atoms: C1_2  and  C2_3 
REMARK    2  A    between atoms: C14_18  and  O1_19 
ROOT
HETATM    1  C2  UNL     1      22.648   4.742  49.067  1.00  0.00     0.023 C 
HETATM    2  C3  UNL     1      22.138   3.881  49.939  1.00  0.00     0.007 C 
HETATM    3  C4  UNL     1      21.994   3.440  51.364  1.00  0.00     0.035 C 
HETATM    4  C5  UNL     1      20.443   3.609  51.578  1.00  0.00     0.012 C 
HETATM    5  C6  UNL     1      20.046   4.634  50.763  1.00  0.00     0.116 C 
HETATM    6  N2  UNL     1      21.057   5.673  50.777  1.00  0.00    -0.245 N 
HETATM    7  N3  UNL     1      22.163   5.494  51.544  1.00  0.00    -0.183 NA
HETATM    8  C7  UNL     1      22.468   4.521  52.274  1.00  0.00     0.130 C 
HETATM    9  C8  UNL     1      21.395   6.899  50.099  1.00  0.00     0.071 A 
HETATM   10  C9  UNL     1      20.433   7.878  50.225  1.00  0.00     0.056 A 
HETATM   11  C10 UNL     1      20.622   9.087  49.577  1.00  0.00     0.036 A 
HETATM   12 CL1  UNL     1      19.391  10.330  49.740  1.00  0.00    -0.084 Cl
HETATM   13  C11 UNL     1      21.749   9.280  48.835  1.00  0.00     0.024 A 
HETATM   14  C12 UNL     1      22.712   8.283  48.718  1.00  0.00     0.017 A 
HETATM   15  C13 UNL     1      22.584   7.081  49.328  1.00  0.00     0.037 A 
HETATM   16  C14 UNL     1      23.559   6.032  49.282  1.00  0.00     0.224 C 
HETATM   17  O2  UNL     1      24.404   5.848  48.242  1.00  0.00    -0.347 OA
HETATM   18  C15 UNL     1      25.603   6.483  48.155  1.00  0.00     0.174 C 
HETATM   19  C16 UNL     1      26.512   5.978  49.294  1.00  0.00     0.056 C 
HETATM   20  C17 UNL     1      26.590   4.475  49.255  1.00  0.00     0.272 C 
HETATM   21  N4  UNL     1      26.500   3.985  50.613  1.00  0.00     0.085 N 
HETATM   22  C18 UNL     1      26.560   2.553  50.745  1.00  0.00     0.295 C 
HETATM   23  C19 UNL     1      26.079   2.169  52.117  1.00  0.00     0.197 C 
HETATM   24  O3  UNL     1      24.731   2.522  52.281  1.00  0.00    -0.389 OA
HETATM   25  C20 UNL     1      23.886   1.836  51.430  1.00  0.00     0.169 C 
HETATM   26  C21 UNL     1      22.429   2.084  51.649  1.00  0.00     0.049 C 
HETATM   27  H17 UNL     1      27.361   4.351  51.116  1.00  0.00     0.315 HD
ENDROOT
BRANCH   1  28
HETATM   28  C1  UNL     1      22.278   4.488  47.640  1.00  0.00     0.119 C 
HETATM   29  N1  UNL     1      21.950   3.254  47.591  1.00  0.00    -0.312 NA
HETATM   30  H1  UNL     1      21.643   2.783  46.725  1.00  0.00     0.186 HD
ENDBRANCH   1  28
BRANCH  16  31
HETATM   31  O1  UNL     1      24.149   5.801  50.520  1.00  0.00    -0.358 OA
HETATM   32  H10 UNL     1      23.544   5.210  51.088  1.00  0.00     0.213 HD
ENDBRANCH  16  31
TORSDOF 2
ENDMDL
MODEL 9
REMARK VINA RESULT:      -7.4      6.711      9.385
REMARK  2 active torsions:
REMARK  status: ('A' for Active; 'I' for Inactive)
REMARK    1  A    between atoms: C1_2  and  C2_3 
REMARK    2  A    between atoms: C14_18  and  O1_19 
ROOT
HETATM    1  C2  UNL     1      29.844   8.976  48.230  1.00  0.00     0.023 C 
HETATM    2  C3  UNL     1      29.228  10.139  48.056  1.00  0.00     0.007 C 
HETATM    3  C4  UNL     1      28.363  11.011  47.198  1.00  0.00     0.035 C 
HETATM    4  C5  UNL     1      27.106  11.198  48.127  1.00  0.00     0.012 C 
HETATM    5  C6  UNL     1      27.007  10.064  48.885  1.00  0.00     0.116 C 
HETATM    6  N2  UNL     1      27.335   8.914  48.065  1.00  0.00    -0.245 N 
HETATM    7  N3  UNL     1      27.660   9.115  46.763  1.00  0.00    -0.183 NA
HETATM    8  C7  UNL     1      27.732  10.192  46.125  1.00  0.00     0.130 C 
HETATM    9  C8  UNL     1      27.584   7.500  48.190  1.00  0.00     0.071 A 
HETATM   10  C9  UNL     1      26.509   6.797  48.690  1.00  0.00     0.056 A 
HETATM   11  C10 UNL     1      26.641   5.434  48.900  1.00  0.00     0.036 A 
HETATM   12 CL1  UNL     1      25.268   4.544  49.540  1.00  0.00    -0.084 Cl
HETATM   13  C11 UNL     1      27.825   4.823  48.608  1.00  0.00     0.024 A 
HETATM   14  C12 UNL     1      28.901   5.546  48.102  1.00  0.00     0.017 A 
HETATM   15  C13 UNL     1      28.832   6.880  47.875  1.00  0.00     0.037 A 
HETATM   16  C14 UNL     1      29.888   7.670  47.316  1.00  0.00     0.224 C 
HETATM   17  O2  UNL     1      31.199   7.372  47.467  1.00  0.00    -0.347 OA
HETATM   18  C15 UNL     1      31.859   6.535  46.623  1.00  0.00     0.174 C 
HETATM   19  C16 UNL     1      31.921   7.190  45.229  1.00  0.00     0.056 C 
HETATM   20  C17 UNL     1      32.514   8.570  45.339  1.00  0.00     0.272 C 
HETATM   21  N4  UNL     1      31.747   9.457  44.494  1.00  0.00     0.085 N 
HETATM   22  C18 UNL     1      32.192  10.826  44.492  1.00  0.00     0.295 C 
HETATM   23  C19 UNL     1      31.112  11.690  43.903  1.00  0.00     0.197 C 
HETATM   24  O3  UNL     1      29.962  11.654  44.707  1.00  0.00    -0.389 OA
HETATM   25  C20 UNL     1      30.166  12.189  45.964  1.00  0.00     0.169 C 
HETATM   26  C21 UNL     1      28.942  12.287  46.816  1.00  0.00     0.049 C 
HETATM   27  H17 UNL     1      31.887   9.112  43.499  1.00  0.00     0.315 HD
ENDROOT
BRANCH   1  28
HETATM   28  C1  UNL     1      30.595   8.845  49.517  1.00  0.00     0.119 C 
HETATM   29  N1  UNL     1      30.508   9.990  50.075  1.00  0.00    -0.312 NA
HETATM   30  H1  UNL     1      30.935  10.208  50.990  1.00  0.00     0.186 HD
ENDBRANCH   1  28
BRANCH  16  31
HETATM   31  O1  UNL     1      29.575   8.157  46.052  1.00  0.00    -0.358 OA
HETATM   32  H10 UNL     1      28.710   7.733  45.721  1.00  0.00     0.213 HD
ENDBRANCH  16  31
TORSDOF 2
ENDMDL
