MODEL 1
REMARK VINA RESULT:      -8.7      0.000      0.000
REMARK  5 active torsions:
REMARK  status: ('A' for Active; 'I' for Inactive)
REMARK    1  A    between atoms: C3_3  and  C4_4 
REMARK    2  A    between atoms: C4_4  and  C5_6 
REMARK    3  A    between atoms: C11_14  and  N3_15 
REMARK    4  A    between atoms: N3_15  and  C12_16 
REMARK    5  A    between atoms: C17_22  and  N4_23 
ROOT
HETATM    1  C5  UNL     1      23.830   3.063  50.087  1.00  0.00     0.028 A 
HETATM    2  C6  UNL     1      22.662   2.540  49.841  1.00  0.00     0.021 A 
HETATM    3  C7  UNL     1      22.270   1.639  50.711  1.00  0.00     0.081 A 
HETATM    4  N1  UNL     1      21.175   0.842  50.884  1.00  0.00    -0.258 NA
HETATM    5  C8  UNL     1      21.087  -0.007  51.930  1.00  0.00     0.142 A 
HETATM    6  C9  UNL     1      22.112  -0.084  52.851  1.00  0.00     0.089 A 
HETATM    7  C10 UNL     1      22.065  -0.981  53.994  1.00  0.00     0.103 C 
HETATM    8  N2  UNL     1      22.035  -1.709  54.892  1.00  0.00    -0.191 NA
HETATM    9  C11 UNL     1      23.256   0.685  52.754  1.00  0.00     0.067 A 
HETATM   10  C18 UNL     1      23.296   1.543  51.658  1.00  0.00     0.023 A 
HETATM   11  C19 UNL     1      24.271   2.393  51.320  1.00  0.00     0.032 A 
ENDROOT
BRANCH   9  12
HETATM   12  N3  UNL     1      24.326   0.630  53.681  1.00  0.00    -0.353 N 
HETATM   13  H7  UNL     1      23.903   1.004  54.559  1.00  0.00     0.166 HD
BRANCH  12  14
HETATM   14  C12 UNL     1      25.646   0.189  53.502  1.00  0.00     0.055 A 
HETATM   15  C13 UNL     1      25.869  -1.072  53.052  1.00  0.00     0.031 A 
HETATM   16  C14 UNL     1      27.208  -1.451  52.894  1.00  0.00     0.004 A 
HETATM   17  C15 UNL     1      28.234  -0.553  53.196  1.00  0.00     0.021 A 
HETATM   18  C16 UNL     1      27.954   0.721  53.652  1.00  0.00     0.034 A 
HETATM   19 BR1  UNL     1      29.376   1.916  54.052  1.00  0.00    -0.049 Br
HETATM   20  C17 UNL     1      26.621   1.114  53.815  1.00  0.00     0.050 A 
BRANCH  20  21
HETATM   21  N4  UNL     1      26.297   2.438  54.290  1.00  0.00    -0.300 NA
HETATM   22  H11 UNL     1      26.952   2.973  53.648  1.00  0.00     0.124 HD
HETATM   23  H12 UNL     1      26.940   2.973  53.661  1.00  0.00     0.124 HD
ENDBRANCH  20  21
ENDBRANCH  12  14
ENDBRANCH   9  12
BRANCH   1  24
HETATM   24  C4  UNL     1      24.549   4.069  49.338  1.00  0.00     0.182 C 
HETATM   25  O1  UNL     1      23.903   4.971  48.748  1.00  0.00    -0.288 OA
BRANCH  24  26
HETATM   26  C3  UNL     1      25.989   4.095  49.227  1.00  0.00     0.051 C 
HETATM   27  C2  UNL     1      26.588   5.184  48.772  1.00  0.00    -0.027 C 
HETATM   28  C1  UNL     1      28.074   5.229  48.651  1.00  0.00     0.036 C 
ENDBRANCH  24  26
ENDBRANCH   1  24
TORSDOF 5
ENDMDL
MODEL 2
REMARK VINA RESULT:      -8.7      3.423      6.015
REMARK  5 active torsions:
REMARK  status: ('A' for Active; 'I' for Inactive)
REMARK    1  A    between atoms: C3_3  and  C4_4 
REMARK    2  A    between atoms: C4_4  and  C5_6 
REMARK    3  A    between atoms: C11_14  and  N3_15 
REMARK    4  A    between atoms: N3_15  and  C12_16 
REMARK    5  A    between atoms: C17_22  and  N4_23 
ROOT
HETATM    1  C5  UNL     1      24.856   0.553  53.447  1.00  0.00     0.028 A 
HETATM    2  C6  UNL     1      23.616   0.227  53.215  1.00  0.00     0.021 A 
HETATM    3  C7  UNL     1      22.877   1.194  52.723  1.00  0.00     0.081 A 
HETATM    4  N1  UNL     1      21.577   1.344  52.331  1.00  0.00    -0.258 NA
HETATM    5  C8  UNL     1      21.124   2.521  51.851  1.00  0.00     0.142 A 
HETATM    6  C9  UNL     1      21.974   3.603  51.747  1.00  0.00     0.089 A 
HETATM    7  C10 UNL     1      21.535   4.891  51.236  1.00  0.00     0.103 C 
HETATM    8  N2  UNL     1      21.179   5.921  50.848  1.00  0.00    -0.191 NA
HETATM    9  C11 UNL     1      23.303   3.541  52.120  1.00  0.00     0.067 A 
HETATM   10  C18 UNL     1      23.719   2.305  52.609  1.00  0.00     0.023 A 
HETATM   11  C19 UNL     1      24.938   1.964  53.038  1.00  0.00     0.032 A 
ENDROOT
BRANCH   9  12
HETATM   12  N3  UNL     1      24.202   4.633  52.027  1.00  0.00    -0.353 N 
HETATM   13  H7  UNL     1      24.207   5.024  52.994  1.00  0.00     0.166 HD
BRANCH  12  14
HETATM   14  C12 UNL     1      24.927   5.105  50.922  1.00  0.00     0.055 A 
HETATM   15  C13 UNL     1      25.617   4.223  50.154  1.00  0.00     0.031 A 
HETATM   16  C14 UNL     1      26.319   4.757  49.067  1.00  0.00     0.004 A 
HETATM   17  C15 UNL     1      26.291   6.130  48.818  1.00  0.00     0.021 A 
HETATM   18  C16 UNL     1      25.574   6.987  49.629  1.00  0.00     0.034 A 
HETATM   19 BR1  UNL     1      25.557   8.850  49.258  1.00  0.00    -0.049 Br
HETATM   20  C17 UNL     1      24.866   6.469  50.720  1.00  0.00     0.050 A 
BRANCH  20  21
HETATM   21  N4  UNL     1      24.107   7.338  51.586  1.00  0.00    -0.300 NA
HETATM   22  H11 UNL     1      24.451   6.938  52.509  1.00  0.00     0.124 HD
HETATM   23  H12 UNL     1      24.440   6.949  52.500  1.00  0.00     0.124 HD
ENDBRANCH  20  21
ENDBRANCH  12  14
ENDBRANCH   9  12
BRANCH   1  24
HETATM   24  C4  UNL     1      25.923  -0.262  53.981  1.00  0.00     0.182 C 
HETATM   25  O1  UNL     1      25.708  -0.959  55.005  1.00  0.00    -0.288 OA
BRANCH  24  26
HETATM   26  C3  UNL     1      27.242  -0.322  53.395  1.00  0.00     0.051 C 
HETATM   27  C2  UNL     1      28.307  -0.184  54.170  1.00  0.00    -0.027 C 
HETATM   28  C1  UNL     1      29.676  -0.243  53.582  1.00  0.00     0.036 C 
ENDBRANCH  24  26
ENDBRANCH   1  24
TORSDOF 5
ENDMDL
MODEL 3
REMARK VINA RESULT:      -8.6      2.928      5.033
REMARK  5 active torsions:
REMARK  status: ('A' for Active; 'I' for Inactive)
REMARK    1  A    between atoms: C3_3  and  C4_4 
REMARK    2  A    between atoms: C4_4  and  C5_6 
REMARK    3  A    between atoms: C11_14  and  N3_15 
REMARK    4  A    between atoms: N3_15  and  C12_16 
REMARK    5  A    between atoms: C17_22  and  N4_23 
ROOT
HETATM    1  C5  UNL     1      25.484   2.728  50.763  1.00  0.00     0.028 A 
HETATM    2  C6  UNL     1      26.340   1.851  51.203  1.00  0.00     0.021 A 
HETATM    3  C7  UNL     1      25.855   1.001  52.078  1.00  0.00     0.081 A 
HETATM    4  N1  UNL     1      26.331  -0.057  52.799  1.00  0.00    -0.258 NA
HETATM    5  C8  UNL     1      25.533  -0.743  53.643  1.00  0.00     0.142 A 
HETATM    6  C9  UNL     1      24.208  -0.384  53.794  1.00  0.00     0.089 A 
HETATM    7  C10 UNL     1      23.308  -1.091  54.689  1.00  0.00     0.103 C 
HETATM    8  N2  UNL     1      22.598  -1.642  55.417  1.00  0.00    -0.191 NA
HETATM    9  C11 UNL     1      23.643   0.672  53.105  1.00  0.00     0.067 A 
HETATM   10  C18 UNL     1      24.510   1.346  52.248  1.00  0.00     0.023 A 
HETATM   11  C19 UNL     1      24.235   2.395  51.466  1.00  0.00     0.032 A 
ENDROOT
BRANCH   9  12
HETATM   12  N3  UNL     1      22.289   1.066  53.236  1.00  0.00    -0.353 N 
HETATM   13  H7  UNL     1      22.293   1.658  54.096  1.00  0.00     0.166 HD
BRANCH  12  14
HETATM   14  C12 UNL     1      21.183   0.758  52.430  1.00  0.00     0.055 A 
HETATM   15  C13 UNL     1      21.205   1.095  51.115  1.00  0.00     0.031 A 
HETATM   16  C14 UNL     1      20.071   0.759  50.365  1.00  0.00     0.004 A 
HETATM   17  C15 UNL     1      18.992   0.114  50.971  1.00  0.00     0.021 A 
HETATM   18  C16 UNL     1      19.018  -0.207  52.315  1.00  0.00     0.034 A 
HETATM   19 BR1  UNL     1      17.531  -1.087  53.105  1.00  0.00    -0.049 Br
HETATM   20  C17 UNL     1      20.144   0.121  53.078  1.00  0.00     0.050 A 
BRANCH  20  21
HETATM   21  N4  UNL     1      20.201  -0.201  54.483  1.00  0.00    -0.300 NA
HETATM   22  H11 UNL     1      20.812  -1.066  54.396  1.00  0.00     0.124 HD
HETATM   23  H12 UNL     1      20.803  -1.055  54.406  1.00  0.00     0.124 HD
ENDBRANCH  20  21
ENDBRANCH  12  14
ENDBRANCH   9  12
BRANCH   1  24
HETATM   24  C4  UNL     1      25.686   3.793  49.807  1.00  0.00     0.182 C 
HETATM   25  O1  UNL     1      24.696   4.455  49.407  1.00  0.00    -0.288 OA
BRANCH  24  26
HETATM   26  C3  UNL     1      26.984   4.143  49.275  1.00  0.00     0.051 C 
HETATM   27  C2  UNL     1      27.168   5.341  48.743  1.00  0.00    -0.027 C 
HETATM   28  C1  UNL     1      28.500   5.720  48.189  1.00  0.00     0.036 C 
ENDBRANCH  24  26
ENDBRANCH   1  24
TORSDOF 5
ENDMDL
MODEL 4
REMARK VINA RESULT:      -8.6      2.772      5.539
REMARK  5 active torsions:
REMARK  status: ('A' for Active; 'I' for Inactive)
REMARK    1  A    between atoms: C3_3  and  C4_4 
REMARK    2  A    between atoms: C4_4  and  C5_6 
REMARK    3  A    between atoms: C11_14  and  N3_15 
REMARK    4  A    between atoms: N3_15  and  C12_16 
REMARK    5  A    between atoms: C17_22  and  N4_23 
ROOT
HETATM    1  C5  UNL     1      26.211   1.012  53.817  1.00  0.00     0.028 A 
HETATM    2  C6  UNL     1      25.536  -0.095  53.944  1.00  0.00     0.021 A 
HETATM    3  C7  UNL     1      24.277  -0.014  53.582  1.00  0.00     0.081 A 
HETATM    4  N1  UNL     1      23.206  -0.861  53.529  1.00  0.00    -0.258 NA
HETATM    5  C8  UNL     1      22.003  -0.439  53.088  1.00  0.00     0.142 A 
HETATM    6  C9  UNL     1      21.832   0.868  52.676  1.00  0.00     0.089 A 
HETATM    7  C10 UNL     1      20.557   1.370  52.192  1.00  0.00     0.103 C 
HETATM    8  N2  UNL     1      19.538   1.774  51.825  1.00  0.00    -0.191 NA
HETATM    9  C11 UNL     1      22.859   1.791  52.696  1.00  0.00     0.067 A 
HETATM   10  C18 UNL     1      24.079   1.306  53.161  1.00  0.00     0.023 A 
HETATM   11  C19 UNL     1      25.231   1.971  53.285  1.00  0.00     0.032 A 
ENDROOT
BRANCH   9  12
HETATM   12  N3  UNL     1      22.718   3.139  52.281  1.00  0.00    -0.353 N 
HETATM   13  H7  UNL     1      22.161   3.571  53.052  1.00  0.00     0.166 HD
BRANCH  12  14
HETATM   14  C12 UNL     1      23.193   3.777  51.125  1.00  0.00     0.055 A 
HETATM   15  C13 UNL     1      23.030   3.173  49.920  1.00  0.00     0.031 A 
HETATM   16  C14 UNL     1      23.526   3.861  48.805  1.00  0.00     0.004 A 
HETATM   17  C15 UNL     1      24.152   5.099  48.963  1.00  0.00     0.021 A 
HETATM   18  C16 UNL     1      24.294   5.671  50.213  1.00  0.00     0.034 A 
HETATM   19 BR1  UNL     1      25.149   7.358  50.389  1.00  0.00    -0.049 Br
HETATM   20  C17 UNL     1      23.803   4.996  51.336  1.00  0.00     0.050 A 
BRANCH  20  21
HETATM   21  N4  UNL     1      23.936   5.568  52.655  1.00  0.00    -0.300 NA
HETATM   22  H11 UNL     1      24.877   6.037  52.501  1.00  0.00     0.124 HD
HETATM   23  H12 UNL     1      24.863   6.033  52.512  1.00  0.00     0.124 HD
ENDBRANCH  20  21
ENDBRANCH  12  14
ENDBRANCH   9  12
BRANCH   1  24
HETATM   24  C4  UNL     1      27.601   1.266  54.122  1.00  0.00     0.182 C 
HETATM   25  O1  UNL     1      28.022   2.451  54.122  1.00  0.00    -0.288 OA
BRANCH  24  26
HETATM   26  C3  UNL     1      28.548   0.220  54.430  1.00  0.00     0.051 C 
HETATM   27  C2  UNL     1      29.135  -0.440  53.443  1.00  0.00    -0.027 C 
HETATM   28  C1  UNL     1      30.115  -1.524  53.743  1.00  0.00     0.036 C 
ENDBRANCH  24  26
ENDBRANCH   1  24
TORSDOF 5
ENDMDL
MODEL 5
REMARK VINA RESULT:      -8.4      3.317      6.374
REMARK  5 active torsions:
REMARK  status: ('A' for Active; 'I' for Inactive)
REMARK    1  A    between atoms: C3_3  and  C4_4 
REMARK    2  A    between atoms: C4_4  and  C5_6 
REMARK    3  A    between atoms: C11_14  and  N3_15 
REMARK    4  A    between atoms: N3_15  and  C12_16 
REMARK    5  A    between atoms: C17_22  and  N4_23 
ROOT
HETATM    1  C5  UNL     1      22.370  -0.145  53.542  1.00  0.00     0.028 A 
HETATM    2  C6  UNL     1      23.301  -0.988  53.886  1.00  0.00     0.021 A 
HETATM    3  C7  UNL     1      24.522  -0.508  53.836  1.00  0.00     0.081 A 
HETATM    4  N1  UNL     1      25.780  -0.976  54.089  1.00  0.00    -0.258 NA
HETATM    5  C8  UNL     1      26.863  -0.187  53.930  1.00  0.00     0.142 A 
HETATM    6  C9  UNL     1      26.717   1.118  53.507  1.00  0.00     0.089 A 
HETATM    7  C10 UNL     1      27.851   2.008  53.322  1.00  0.00     0.103 C 
HETATM    8  N2  UNL     1      28.756   2.709  53.156  1.00  0.00    -0.191 NA
HETATM    9  C11 UNL     1      25.483   1.674  53.229  1.00  0.00     0.067 A 
HETATM   10  C18 UNL     1      24.399   0.818  53.407  1.00  0.00     0.023 A 
HETATM   11  C19 UNL     1      23.104   1.087  53.215  1.00  0.00     0.032 A 
ENDROOT
BRANCH   9  12
HETATM   12  N3  UNL     1      25.298   3.009  52.792  1.00  0.00    -0.353 N 
HETATM   13  H7  UNL     1      25.681   3.576  53.581  1.00  0.00     0.166 HD
BRANCH  12  14
HETATM   14  C12 UNL     1      24.739   3.493  51.600  1.00  0.00     0.055 A 
HETATM   15  C13 UNL     1      25.030   2.871  50.429  1.00  0.00     0.031 A 
HETATM   16  C14 UNL     1      24.440   3.402  49.275  1.00  0.00     0.004 A 
HETATM   17  C15 UNL     1      23.604   4.516  49.362  1.00  0.00     0.021 A 
HETATM   18  C16 UNL     1      23.338   5.115  50.579  1.00  0.00     0.034 A 
HETATM   19 BR1  UNL     1      22.194   6.629  50.658  1.00  0.00    -0.049 Br
HETATM   20  C17 UNL     1      23.920   4.595  51.741  1.00  0.00     0.050 A 
BRANCH  20  21
HETATM   21  N4  UNL     1      23.663   5.198  53.026  1.00  0.00    -0.300 NA
HETATM   22  H11 UNL     1      23.238   6.103  52.665  1.00  0.00     0.124 HD
HETATM   23  H12 UNL     1      23.244   6.093  52.679  1.00  0.00     0.124 HD
ENDBRANCH  20  21
ENDBRANCH  12  14
ENDBRANCH   9  12
BRANCH   1  24
HETATM   24  C4  UNL     1      20.940  -0.347  53.485  1.00  0.00     0.182 C 
HETATM   25  O1  UNL     1      20.445  -1.379  54.006  1.00  0.00    -0.288 OA
BRANCH  24  26
HETATM   26  C3  UNL     1      20.032   0.585  52.855  1.00  0.00     0.051 C 
HETATM   27  C2  UNL     1      19.371   0.217  51.769  1.00  0.00    -0.027 C 
HETATM   28  C1  UNL     1      18.431   1.166  51.105  1.00  0.00     0.036 C 
ENDBRANCH  24  26
ENDBRANCH   1  24
TORSDOF 5
ENDMDL
MODEL 6
REMARK VINA RESULT:      -8.4      3.150      5.590
REMARK  5 active torsions:
REMARK  status: ('A' for Active; 'I' for Inactive)
REMARK    1  A    between atoms: C3_3  and  C4_4 
REMARK    2  A    between atoms: C4_4  and  C5_6 
REMARK    3  A    between atoms: C11_14  and  N3_15 
REMARK    4  A    between atoms: N3_15  and  C12_16 
REMARK    5  A    between atoms: C17_22  and  N4_23 
ROOT
HETATM    1  C5  UNL     1      25.144   0.357  53.783  1.00  0.00     0.028 A 
HETATM    2  C6  UNL     1      24.571  -0.667  54.349  1.00  0.00     0.021 A 
HETATM    3  C7  UNL     1      23.283  -0.773  54.117  1.00  0.00     0.081 A 
HETATM    4  N1  UNL     1      22.281  -1.632  54.469  1.00  0.00    -0.258 NA
HETATM    5  C8  UNL     1      21.016  -1.443  54.040  1.00  0.00     0.142 A 
HETATM    6  C9  UNL     1      20.709  -0.368  53.231  1.00  0.00     0.089 A 
HETATM    7  C10 UNL     1      19.363  -0.122  52.742  1.00  0.00     0.103 C 
HETATM    8  N2  UNL     1      18.287   0.084  52.370  1.00  0.00    -0.191 NA
HETATM    9  C11 UNL     1      21.658   0.550  52.826  1.00  0.00     0.067 A 
HETATM   10  C18 UNL     1      22.947   0.310  53.296  1.00  0.00     0.023 A 
HETATM   11  C19 UNL     1      24.050   1.028  53.065  1.00  0.00     0.032 A 
ENDROOT
BRANCH   9  12
HETATM   12  N3  UNL     1      21.377   1.664  51.996  1.00  0.00    -0.353 N 
HETATM   13  H7  UNL     1      20.847   2.306  52.626  1.00  0.00     0.166 HD
BRANCH  12  14
HETATM   14  C12 UNL     1      21.711   1.887  50.652  1.00  0.00     0.055 A 
HETATM   15  C13 UNL     1      21.421   0.935  49.728  1.00  0.00     0.031 A 
HETATM   16  C14 UNL     1      21.779   1.218  48.405  1.00  0.00     0.004 A 
HETATM   17  C15 UNL     1      22.402   2.427  48.088  1.00  0.00     0.021 A 
HETATM   18  C16 UNL     1      22.677   3.364  49.065  1.00  0.00     0.034 A 
HETATM   19 BR1  UNL     1      23.525   4.998  48.596  1.00  0.00    -0.049 Br
HETATM   20  C17 UNL     1      22.325   3.096  50.392  1.00  0.00     0.050 A 
BRANCH  20  21
HETATM   21  N4  UNL     1      22.598   4.055  51.435  1.00  0.00    -0.300 NA
HETATM   22  H11 UNL     1      22.205   3.487  52.243  1.00  0.00     0.124 HD
HETATM   23  H12 UNL     1      22.212   3.502  52.237  1.00  0.00     0.124 HD
ENDBRANCH  20  21
ENDBRANCH  12  14
ENDBRANCH   9  12
BRANCH   1  24
HETATM   24  C4  UNL     1      26.530   0.763  53.834  1.00  0.00     0.182 C 
HETATM   25  O1  UNL     1      26.820   1.902  54.279  1.00  0.00    -0.288 OA
BRANCH  24  26
HETATM   26  C3  UNL     1      27.618  -0.081  53.396  1.00  0.00     0.051 C 
HETATM   27  C2  UNL     1      28.799   0.019  53.986  1.00  0.00    -0.027 C 
HETATM   28  C1  UNL     1      29.934  -0.843  53.546  1.00  0.00     0.036 C 
ENDBRANCH  24  26
ENDBRANCH   1  24
TORSDOF 5
ENDMDL
MODEL 7
REMARK VINA RESULT:      -8.3      4.141      6.778
REMARK  5 active torsions:
REMARK  status: ('A' for Active; 'I' for Inactive)
REMARK    1  A    between atoms: C3_3  and  C4_4 
REMARK    2  A    between atoms: C4_4  and  C5_6 
REMARK    3  A    between atoms: C11_14  and  N3_15 
REMARK    4  A    between atoms: N3_15  and  C12_16 
REMARK    5  A    between atoms: C17_22  and  N4_23 
ROOT
HETATM    1  C5  UNL     1      25.298   0.936  53.463  1.00  0.00     0.028 A 
HETATM    2  C6  UNL     1      25.339   2.224  53.655  1.00  0.00     0.021 A 
HETATM    3  C7  UNL     1      24.345   2.890  53.116  1.00  0.00     0.081 A 
HETATM    4  N1  UNL     1      23.957   4.198  53.039  1.00  0.00    -0.258 NA
HETATM    5  C8  UNL     1      22.836   4.556  52.380  1.00  0.00     0.142 A 
HETATM    6  C9  UNL     1      22.054   3.598  51.766  1.00  0.00     0.089 A 
HETATM    7  C10 UNL     1      20.837   3.933  51.044  1.00  0.00     0.103 C 
HETATM    8  N2  UNL     1      19.880   4.203  50.454  1.00  0.00    -0.191 NA
HETATM    9  C11 UNL     1      22.371   2.254  51.792  1.00  0.00     0.067 A 
HETATM   10  C18 UNL     1      23.537   1.938  52.484  1.00  0.00     0.023 A 
HETATM   11  C19 UNL     1      24.077   0.730  52.669  1.00  0.00     0.032 A 
ENDROOT
BRANCH   9  12
HETATM   12  N3  UNL     1      21.591   1.246  51.172  1.00  0.00    -0.353 N 
HETATM   13  H7  UNL     1      22.072   1.099  50.257  1.00  0.00     0.166 HD
BRANCH  12  14
HETATM   14  C12 UNL     1      20.446   0.584  51.640  1.00  0.00     0.055 A 
HETATM   15  C13 UNL     1      20.456   0.038  52.883  1.00  0.00     0.031 A 
HETATM   16  C14 UNL     1      19.283  -0.609  53.291  1.00  0.00     0.004 A 
HETATM   17  C15 UNL     1      18.181  -0.672  52.436  1.00  0.00     0.021 A 
HETATM   18  C16 UNL     1      18.221  -0.100  51.179  1.00  0.00     0.034 A 
HETATM   19 BR1  UNL     1      16.701  -0.204  50.044  1.00  0.00    -0.049 Br
HETATM   20  C17 UNL     1      19.386   0.550  50.757  1.00  0.00     0.050 A 
BRANCH  20  21
HETATM   21  N4  UNL     1      19.459   1.156  49.450  1.00  0.00    -0.300 NA
HETATM   22  H11 UNL     1      18.910   0.412  48.928  1.00  0.00     0.124 HD
HETATM   23  H12 UNL     1      18.919   0.427  48.928  1.00  0.00     0.124 HD
ENDBRANCH  20  21
ENDBRANCH  12  14
ENDBRANCH   9  12
BRANCH   1  24
HETATM   24  C4  UNL     1      26.224  -0.078  53.915  1.00  0.00     0.182 C 
HETATM   25  O1  UNL     1      25.784  -1.209  54.241  1.00  0.00    -0.288 OA
BRANCH  24  26
HETATM   26  C3  UNL     1      27.650   0.140  54.014  1.00  0.00     0.051 C 
HETATM   27  C2  UNL     1      28.481  -0.701  53.419  1.00  0.00    -0.027 C 
HETATM   28  C1  UNL     1      29.954  -0.493  53.511  1.00  0.00     0.036 C 
ENDBRANCH  24  26
ENDBRANCH   1  24
TORSDOF 5
ENDMDL
MODEL 8
REMARK VINA RESULT:      -7.7      8.072     11.380
REMARK  5 active torsions:
REMARK  status: ('A' for Active; 'I' for Inactive)
REMARK    1  A    between atoms: C3_3  and  C4_4 
REMARK    2  A    between atoms: C4_4  and  C5_6 
REMARK    3  A    between atoms: C11_14  and  N3_15 
REMARK    4  A    between atoms: N3_15  and  C12_16 
REMARK    5  A    between atoms: C17_22  and  N4_23 
ROOT
HETATM    1  C5  UNL     1      33.431   7.918  48.208  1.00  0.00     0.028 A 
HETATM    2  C6  UNL     1      33.582   9.043  47.568  1.00  0.00     0.021 A 
HETATM    3  C7  UNL     1      32.569   9.872  47.671  1.00  0.00     0.081 A 
HETATM    4  N1  UNL     1      32.259  11.118  47.205  1.00  0.00    -0.258 NA
HETATM    5  C8  UNL     1      31.084  11.706  47.512  1.00  0.00     0.142 A 
HETATM    6  C9  UNL     1      30.166  11.053  48.309  1.00  0.00     0.089 A 
HETATM    7  C10 UNL     1      28.888  11.643  48.668  1.00  0.00     0.103 C 
HETATM    8  N2  UNL     1      27.862  12.106  48.937  1.00  0.00    -0.191 NA
HETATM    9  C11 UNL     1      30.396   9.791  48.823  1.00  0.00     0.067 A 
HETATM   10  C18 UNL     1      31.622   9.230  48.476  1.00  0.00     0.023 A 
HETATM   11  C19 UNL     1      32.103   8.034  48.829  1.00  0.00     0.032 A 
ENDROOT
BRANCH   9  12
HETATM   12  N3  UNL     1      29.476   9.093  49.643  1.00  0.00    -0.353 N 
HETATM   13  H7  UNL     1      29.803   9.310  50.611  1.00  0.00     0.166 HD
BRANCH  12  14
HETATM   14  C12 UNL     1      28.381   8.292  49.283  1.00  0.00     0.055 A 
HETATM   15  C13 UNL     1      28.546   7.325  48.344  1.00  0.00     0.031 A 
HETATM   16  C14 UNL     1      27.416   6.561  48.029  1.00  0.00     0.004 A 
HETATM   17  C15 UNL     1      26.198   6.810  48.666  1.00  0.00     0.021 A 
HETATM   18  C16 UNL     1      26.082   7.807  49.616  1.00  0.00     0.034 A 
HETATM   19 BR1  UNL     1      24.410   8.116  50.462  1.00  0.00    -0.049 Br
HETATM   20  C17 UNL     1      27.203   8.579  49.941  1.00  0.00     0.050 A 
BRANCH  20  21
HETATM   21  N4  UNL     1      27.113   9.628  50.929  1.00  0.00    -0.300 NA
HETATM   22  H11 UNL     1      27.001  10.438  50.251  1.00  0.00     0.124 HD
HETATM   23  H12 UNL     1      27.002  10.432  50.268  1.00  0.00     0.124 HD
ENDBRANCH  20  21
ENDBRANCH  12  14
ENDBRANCH   9  12
BRANCH   1  24
HETATM   24  C4  UNL     1      34.342   6.800  48.301  1.00  0.00     0.182 C 
HETATM   25  O1  UNL     1      35.518   6.999  48.698  1.00  0.00    -0.288 OA
BRANCH  24  26
HETATM   26  C3  UNL     1      33.972   5.446  47.958  1.00  0.00     0.051 C 
HETATM   27  C2  UNL     1      34.826   4.460  48.183  1.00  0.00    -0.027 C 
HETATM   28  C1  UNL     1      34.461   3.056  47.834  1.00  0.00     0.036 C 
ENDBRANCH  24  26
ENDBRANCH   1  24
TORSDOF 5
ENDMDL
MODEL 9
REMARK VINA RESULT:      -7.7      3.670      6.715
REMARK  5 active torsions:
REMARK  status: ('A' for Active; 'I' for Inactive)
REMARK    1  A    between atoms: C3_3  and  C4_4 
REMARK    2  A    between atoms: C4_4  and  C5_6 
REMARK    3  A    between atoms: C11_14  and  N3_15 
REMARK    4  A    between atoms: N3_15  and  C12_16 
REMARK    5  A    between atoms: C17_22  and  N4_23 
ROOT
HETATM    1  C5  UNL     1      26.616   1.205  53.344  1.00  0.00     0.028 A 
HETATM    2  C6  UNL     1      27.288   1.729  52.358  1.00  0.00     0.021 A 
HETATM    3  C7  UNL     1      26.579   2.483  51.551  1.00  0.00     0.081 A 
HETATM    4  N1  UNL     1      26.812   3.220  50.425  1.00  0.00    -0.258 NA
HETATM    5  C8  UNL     1      25.820   3.905  49.820  1.00  0.00     0.142 A 
HETATM    6  C9  UNL     1      24.539   3.874  50.334  1.00  0.00     0.089 A 
HETATM    7  C10 UNL     1      23.437   4.595  49.721  1.00  0.00     0.103 C 
HETATM    8  N2  UNL     1      22.556   5.153  49.220  1.00  0.00    -0.191 NA
HETATM    9  C11 UNL     1      24.213   3.156  51.468  1.00  0.00     0.067 A 
HETATM   10  C18 UNL     1      25.273   2.466  52.053  1.00  0.00     0.023 A 
HETATM   11  C19 UNL     1      25.245   1.699  53.147  1.00  0.00     0.032 A 
ENDROOT
BRANCH   9  12
HETATM   12  N3  UNL     1      22.910   3.102  52.022  1.00  0.00    -0.353 N 
HETATM   13  H7  UNL     1      22.914   3.876  52.723  1.00  0.00     0.166 HD
BRANCH  12  14
HETATM   14  C12 UNL     1      21.846   2.235  51.729  1.00  0.00     0.055 A 
HETATM   15  C13 UNL     1      22.081   0.900  51.646  1.00  0.00     0.031 A 
HETATM   16  C14 UNL     1      20.978   0.090  51.351  1.00  0.00     0.004 A 
HETATM   17  C15 UNL     1      19.718   0.659  51.157  1.00  0.00     0.021 A 
HETATM   18  C16 UNL     1      19.531   2.024  51.252  1.00  0.00     0.034 A 
HETATM   19 BR1  UNL     1      17.802   2.763  50.983  1.00  0.00    -0.049 Br
HETATM   20  C17 UNL     1      20.623   2.848  51.546  1.00  0.00     0.050 A 
BRANCH  20  21
HETATM   21  N4  UNL     1      20.460   4.278  51.652  1.00  0.00    -0.300 NA
HETATM   22  H11 UNL     1      21.492   4.531  51.622  1.00  0.00     0.124 HD
HETATM   23  H12 UNL     1      21.474   4.536  51.624  1.00  0.00     0.124 HD
ENDBRANCH  20  21
ENDBRANCH  12  14
ENDBRANCH   9  12
BRANCH   1  24
HETATM   24  C4  UNL     1      27.085   0.335  54.399  1.00  0.00     0.182 C 
HETATM   25  O1  UNL     1      26.265  -0.096  55.248  1.00  0.00    -0.288 OA
BRANCH  24  26
HETATM   26  C3  UNL     1      28.465  -0.072  54.535  1.00  0.00     0.051 C 
HETATM   27  C2  UNL     1      28.969  -0.961  53.693  1.00  0.00    -0.027 C 
HETATM   28  C1  UNL     1      30.390  -1.393  53.819  1.00  0.00     0.036 C 
ENDBRANCH  24  26
ENDBRANCH   1  24
TORSDOF 5
ENDMDL
