MODEL 1
REMARK VINA RESULT:      -7.5      0.000      0.000
REMARK  4 active torsions:
REMARK  status: ('A' for Active; 'I' for Inactive)
REMARK       I    between atoms: C1_2  and  N1_3 
REMARK    1  A    between atoms: C1_2  and  C10_16 
REMARK    2  A    between atoms: N1_3  and  S1_4 
REMARK    3  A    between atoms: S1_4  and  C2_7 
REMARK    4  A    between atoms: C2_7  and  C3_8 
ROOT
HETATM    1  S1  UNL     1      22.528   1.785  51.757  1.00  0.00     0.236 S 
HETATM    2  O2  UNL     1      21.495   2.760  52.173  1.00  0.00    -0.205 OA
HETATM    3  O3  UNL     1      21.782   0.662  51.047  1.00  0.00    -0.205 OA
ENDROOT
BRANCH   1   4
HETATM    4  N1  UNL     1      23.685   2.368  50.655  1.00  0.00    -0.250 N 
HETATM    5  C1  UNL     1      24.294   3.596  51.024  1.00  0.00     0.266 C 
HETATM    6  O1  UNL     1      23.852   4.039  52.131  1.00  0.00    -0.267 OA
HETATM    7  H1  UNL     1      23.957   1.893  49.766  1.00  0.00     0.181 HD
BRANCH   5   8
HETATM    8  C10 UNL     1      25.315   4.253  50.198  1.00  0.00     0.050 A 
HETATM    9  C11 UNL     1      26.439   3.646  49.652  1.00  0.00     0.020 A 
HETATM   10  C12 UNL     1      27.295   4.429  48.896  1.00  0.00     0.020 A 
HETATM   11  C13 UNL     1      27.062   5.776  48.678  1.00  0.00     0.116 A 
HETATM   12  N3  UNL     1      25.953   6.344  49.226  1.00  0.00    -0.272 NA
HETATM   13  C14 UNL     1      25.095   5.603  49.971  1.00  0.00     0.133 A 
ENDBRANCH   5   8
ENDBRANCH   1   4
BRANCH   1  14
HETATM   14  C2  UNL     1      23.272   1.008  53.196  1.00  0.00     0.191 C 
BRANCH  14  15
HETATM   15  C3  UNL     1      24.555   0.423  52.729  1.00  0.00    -0.006 C 
HETATM   16  C4  UNL     1      25.860   0.659  52.802  1.00  0.00    -0.052 C 
HETATM   17  C5  UNL     1      26.884  -0.237  52.147  1.00  0.00     0.062 C 
HETATM   18  C9  UNL     1      26.262   1.870  53.574  1.00  0.00     0.304 C 
HETATM   19  C6  UNL     1      27.909  -0.519  53.217  1.00  0.00    -0.025 C 
HETATM   20  C7  UNL     1      28.605   0.486  53.764  1.00  0.00    -0.001 C 
HETATM   21  C8  UNL     1      28.661   1.977  53.600  1.00  0.00     0.297 C 
HETATM   22  N2  UNL     1      27.435   2.506  53.012  1.00  0.00     0.090 N 
HETATM   23  H11 UNL     1      27.418   3.524  53.249  1.00  0.00     0.316 HD
ENDBRANCH  14  15
ENDBRANCH   1  14
TORSDOF 4
ENDMDL
MODEL 2
REMARK VINA RESULT:      -7.4      5.152      7.829
REMARK  4 active torsions:
REMARK  status: ('A' for Active; 'I' for Inactive)
REMARK       I    between atoms: C1_2  and  N1_3 
REMARK    1  A    between atoms: C1_2  and  C10_16 
REMARK    2  A    between atoms: N1_3  and  S1_4 
REMARK    3  A    between atoms: S1_4  and  C2_7 
REMARK    4  A    between atoms: C2_7  and  C3_8 
ROOT
HETATM    1  S1  UNL     1      21.266  -0.831  54.359  1.00  0.00     0.236 S 
HETATM    2  O2  UNL     1      20.965   0.523  54.876  1.00  0.00    -0.205 OA
HETATM    3  O3  UNL     1      22.230  -1.455  55.360  1.00  0.00    -0.205 OA
ENDROOT
BRANCH   1   4
HETATM    4  N1  UNL     1      19.937  -1.886  54.246  1.00  0.00    -0.250 N 
HETATM    5  C1  UNL     1      18.863  -1.409  53.450  1.00  0.00     0.266 C 
HETATM    6  O1  UNL     1      19.100  -0.259  52.961  1.00  0.00    -0.267 OA
HETATM    7  H1  UNL     1      19.873  -2.820  54.708  1.00  0.00     0.181 HD
BRANCH   5   8
HETATM    8  C10 UNL     1      17.632  -2.180  53.236  1.00  0.00     0.050 A 
HETATM    9  C11 UNL     1      17.417  -3.498  53.620  1.00  0.00     0.020 A 
HETATM   10  C12 UNL     1      16.186  -4.063  53.333  1.00  0.00     0.020 A 
HETATM   11  C13 UNL     1      15.185  -3.359  52.684  1.00  0.00     0.116 A 
HETATM   12  N3  UNL     1      15.425  -2.069  52.319  1.00  0.00    -0.272 NA
HETATM   13  C14 UNL     1      16.620  -1.488  52.587  1.00  0.00     0.133 A 
ENDBRANCH   5   8
ENDBRANCH   1   4
BRANCH   1  14
HETATM   14  C2  UNL     1      22.198  -0.723  52.827  1.00  0.00     0.191 C 
BRANCH  14  15
HETATM   15  C3  UNL     1      23.181   0.373  53.021  1.00  0.00    -0.006 C 
HETATM   16  C4  UNL     1      24.470   0.539  53.294  1.00  0.00    -0.052 C 
HETATM   17  C5  UNL     1      25.105   1.904  53.409  1.00  0.00     0.062 C 
HETATM   18  C9  UNL     1      25.263  -0.710  53.482  1.00  0.00     0.304 C 
HETATM   19  C6  UNL     1      26.343   1.841  52.548  1.00  0.00    -0.025 C 
HETATM   20  C7  UNL     1      27.315   0.965  52.829  1.00  0.00    -0.001 C 
HETATM   21  C8  UNL     1      27.552  -0.091  53.871  1.00  0.00     0.297 C 
HETATM   22  N2  UNL     1      26.304  -0.546  54.476  1.00  0.00     0.090 N 
HETATM   23  H11 UNL     1      26.516  -1.475  54.906  1.00  0.00     0.316 HD
ENDBRANCH  14  15
ENDBRANCH   1  14
TORSDOF 4
ENDMDL
MODEL 3
REMARK VINA RESULT:      -7.2      2.139      5.045
REMARK  4 active torsions:
REMARK  status: ('A' for Active; 'I' for Inactive)
REMARK       I    between atoms: C1_2  and  N1_3 
REMARK    1  A    between atoms: C1_2  and  C10_16 
REMARK    2  A    between atoms: N1_3  and  S1_4 
REMARK    3  A    between atoms: S1_4  and  C2_7 
REMARK    4  A    between atoms: C2_7  and  C3_8 
ROOT
HETATM    1  S1  UNL     1      24.200   3.589  51.059  1.00  0.00     0.236 S 
HETATM    2  O2  UNL     1      23.406   3.592  49.810  1.00  0.00    -0.205 OA
HETATM    3  O3  UNL     1      24.154   5.017  51.588  1.00  0.00    -0.205 OA
ENDROOT
BRANCH   1   4
HETATM    4  N1  UNL     1      23.605   2.594  52.304  1.00  0.00    -0.250 N 
HETATM    5  C1  UNL     1      22.936   1.422  51.863  1.00  0.00     0.266 C 
HETATM    6  O1  UNL     1      22.905   1.335  50.594  1.00  0.00    -0.267 OA
HETATM    7  H1  UNL     1      23.703   2.790  53.325  1.00  0.00     0.181 HD
BRANCH   5   8
HETATM    8  C10 UNL     1      22.356   0.445  52.792  1.00  0.00     0.050 A 
HETATM    9  C11 UNL     1      23.055  -0.309  53.726  1.00  0.00     0.020 A 
HETATM   10  C12 UNL     1      22.336  -1.186  54.520  1.00  0.00     0.020 A 
HETATM   11  C13 UNL     1      20.963  -1.326  54.406  1.00  0.00     0.116 A 
HETATM   12  N3  UNL     1      20.304  -0.575  53.481  1.00  0.00    -0.272 NA
HETATM   13  C14 UNL     1      20.982   0.293  52.689  1.00  0.00     0.133 A 
ENDBRANCH   5   8
ENDBRANCH   1   4
BRANCH   1  14
HETATM   14  C2  UNL     1      25.934   3.286  50.699  1.00  0.00     0.191 C 
BRANCH  14  15
HETATM   15  C3  UNL     1      26.226   1.919  51.203  1.00  0.00    -0.006 C 
HETATM   16  C4  UNL     1      26.962   1.320  52.130  1.00  0.00    -0.052 C 
HETATM   17  C5  UNL     1      26.968  -0.179  52.318  1.00  0.00     0.062 C 
HETATM   18  C9  UNL     1      27.793   2.217  52.985  1.00  0.00     0.304 C 
HETATM   19  C6  UNL     1      26.761  -0.395  53.797  1.00  0.00    -0.025 C 
HETATM   20  C7  UNL     1      27.649   0.083  54.678  1.00  0.00    -0.001 C 
HETATM   21  C8  UNL     1      28.931   0.860  54.608  1.00  0.00     0.297 C 
HETATM   22  N2  UNL     1      29.050   1.601  53.356  1.00  0.00     0.090 N 
HETATM   23  H11 UNL     1      29.759   2.349  53.531  1.00  0.00     0.316 HD
ENDBRANCH  14  15
ENDBRANCH   1  14
TORSDOF 4
ENDMDL
MODEL 4
REMARK VINA RESULT:      -7.0      1.522      1.759
REMARK  4 active torsions:
REMARK  status: ('A' for Active; 'I' for Inactive)
REMARK       I    between atoms: C1_2  and  N1_3 
REMARK    1  A    between atoms: C1_2  and  C10_16 
REMARK    2  A    between atoms: N1_3  and  S1_4 
REMARK    3  A    between atoms: S1_4  and  C2_7 
REMARK    4  A    between atoms: C2_7  and  C3_8 
ROOT
HETATM    1  S1  UNL     1      23.675   3.457  51.239  1.00  0.00     0.236 S 
HETATM    2  O2  UNL     1      22.634   4.491  51.431  1.00  0.00    -0.205 OA
HETATM    3  O3  UNL     1      23.195   2.591  50.080  1.00  0.00    -0.205 OA
ENDROOT
BRANCH   1   4
HETATM    4  N1  UNL     1      25.213   4.036  50.803  1.00  0.00    -0.250 N 
HETATM    5  C1  UNL     1      25.237   4.847  49.638  1.00  0.00     0.266 C 
HETATM    6  O1  UNL     1      24.081   4.991  49.128  1.00  0.00    -0.267 OA
HETATM    7  H1  UNL     1      26.097   3.837  51.322  1.00  0.00     0.181 HD
BRANCH   5   8
HETATM    8  C10 UNL     1      26.473   5.437  49.109  1.00  0.00     0.050 A 
HETATM    9  C11 UNL     1      27.611   4.740  48.723  1.00  0.00     0.020 A 
HETATM   10  C12 UNL     1      28.686   5.469  48.245  1.00  0.00     0.020 A 
HETATM   11  C13 UNL     1      28.654   6.849  48.145  1.00  0.00     0.116 A 
HETATM   12  N3  UNL     1      27.526   7.506  48.531  1.00  0.00    -0.272 NA
HETATM   13  C14 UNL     1      26.456   6.820  49.004  1.00  0.00     0.133 A 
ENDBRANCH   5   8
ENDBRANCH   1   4
BRANCH   1  14
HETATM   14  C2  UNL     1      23.726   2.349  52.652  1.00  0.00     0.191 C 
BRANCH  14  15
HETATM   15  C3  UNL     1      24.734   1.309  52.322  1.00  0.00    -0.006 C 
HETATM   16  C4  UNL     1      26.006   1.019  52.567  1.00  0.00    -0.052 C 
HETATM   17  C5  UNL     1      26.682  -0.208  52.003  1.00  0.00     0.062 C 
HETATM   18  C9  UNL     1      26.738   1.982  53.439  1.00  0.00     0.304 C 
HETATM   19  C6  UNL     1      27.366  -0.861  53.179  1.00  0.00    -0.025 C 
HETATM   20  C7  UNL     1      28.317  -0.202  53.854  1.00  0.00    -0.001 C 
HETATM   21  C8  UNL     1      28.966   1.148  53.769  1.00  0.00     0.297 C 
HETATM   22  N2  UNL     1      28.129   2.110  53.058  1.00  0.00     0.090 N 
HETATM   23  H11 UNL     1      28.475   3.055  53.339  1.00  0.00     0.316 HD
ENDBRANCH  14  15
ENDBRANCH   1  14
TORSDOF 4
ENDMDL
MODEL 5
REMARK VINA RESULT:      -7.0      2.788      4.535
REMARK  4 active torsions:
REMARK  status: ('A' for Active; 'I' for Inactive)
REMARK       I    between atoms: C1_2  and  N1_3 
REMARK    1  A    between atoms: C1_2  and  C10_16 
REMARK    2  A    between atoms: N1_3  and  S1_4 
REMARK    3  A    between atoms: S1_4  and  C2_7 
REMARK    4  A    between atoms: C2_7  and  C3_8 
ROOT
HETATM    1  S1  UNL     1      26.793   1.184  53.431  1.00  0.00     0.236 S 
HETATM    2  O2  UNL     1      28.258   1.224  53.223  1.00  0.00    -0.205 OA
HETATM    3  O3  UNL     1      26.585   1.210  54.940  1.00  0.00    -0.205 OA
ENDROOT
BRANCH   1   4
HETATM    4  N1  UNL     1      25.926   2.505  52.802  1.00  0.00    -0.250 N 
HETATM    5  C1  UNL     1      26.036   2.675  51.397  1.00  0.00     0.266 C 
HETATM    6  O1  UNL     1      26.777   1.791  50.861  1.00  0.00    -0.267 OA
HETATM    7  H1  UNL     1      25.346   3.164  53.366  1.00  0.00     0.181 HD
BRANCH   5   8
HETATM    8  C10 UNL     1      25.359   3.760  50.675  1.00  0.00     0.050 A 
HETATM    9  C11 UNL     1      25.814   4.379  49.517  1.00  0.00     0.020 A 
HETATM   10  C12 UNL     1      25.037   5.389  48.975  1.00  0.00     0.020 A 
HETATM   11  C13 UNL     1      23.842   5.788  49.549  1.00  0.00     0.116 A 
HETATM   12  N3  UNL     1      23.421   5.163  50.684  1.00  0.00    -0.272 NA
HETATM   13  C14 UNL     1      24.160   4.171  51.238  1.00  0.00     0.133 A 
ENDBRANCH   5   8
ENDBRANCH   1   4
BRANCH   1  14
HETATM   14  C2  UNL     1      26.127  -0.398  52.901  1.00  0.00     0.191 C 
BRANCH  14  15
HETATM   15  C3  UNL     1      25.010  -0.705  53.830  1.00  0.00    -0.006 C 
HETATM   16  C4  UNL     1      23.702  -0.506  53.939  1.00  0.00    -0.052 C 
HETATM   17  C5  UNL     1      22.899  -1.016  55.112  1.00  0.00     0.062 C 
HETATM   18  C9  UNL     1      23.063   0.256  52.828  1.00  0.00     0.304 C 
HETATM   19  C6  UNL     1      21.710  -1.720  54.505  1.00  0.00    -0.025 C 
HETATM   20  C7  UNL     1      20.844  -1.042  53.741  1.00  0.00    -0.001 C 
HETATM   21  C8  UNL     1      20.703   0.374  53.262  1.00  0.00     0.297 C 
HETATM   22  N2  UNL     1      21.975   1.089  53.297  1.00  0.00     0.090 N 
HETATM   23  H11 UNL     1      21.864   1.903  52.651  1.00  0.00     0.316 HD
ENDBRANCH  14  15
ENDBRANCH   1  14
TORSDOF 4
ENDMDL
MODEL 6
REMARK VINA RESULT:      -6.9      1.685      5.968
REMARK  4 active torsions:
REMARK  status: ('A' for Active; 'I' for Inactive)
REMARK       I    between atoms: C1_2  and  N1_3 
REMARK    1  A    between atoms: C1_2  and  C10_16 
REMARK    2  A    between atoms: N1_3  and  S1_4 
REMARK    3  A    between atoms: S1_4  and  C2_7 
REMARK    4  A    between atoms: C2_7  and  C3_8 
ROOT
HETATM    1  S1  UNL     1      23.719   3.456  52.148  1.00  0.00     0.236 S 
HETATM    2  O2  UNL     1      22.601   2.508  52.355  1.00  0.00    -0.205 OA
HETATM    3  O3  UNL     1      23.249   4.787  52.722  1.00  0.00    -0.205 OA
ENDROOT
BRANCH   1   4
HETATM    4  N1  UNL     1      25.167   3.068  52.951  1.00  0.00    -0.250 N 
HETATM    5  C1  UNL     1      25.654   1.758  52.703  1.00  0.00     0.266 C 
HETATM    6  O1  UNL     1      24.901   1.107  51.911  1.00  0.00    -0.267 OA
HETATM    7  H1  UNL     1      25.691   3.712  53.584  1.00  0.00     0.181 HD
BRANCH   5   8
HETATM    8  C10 UNL     1      26.890   1.245  53.307  1.00  0.00     0.050 A 
HETATM    9  C11 UNL     1      28.020   1.992  53.614  1.00  0.00     0.020 A 
HETATM   10  C12 UNL     1      29.097   1.333  54.183  1.00  0.00     0.020 A 
HETATM   11  C13 UNL     1      29.073  -0.026  54.447  1.00  0.00     0.116 A 
HETATM   12  N3  UNL     1      27.952  -0.733  54.134  1.00  0.00    -0.272 NA
HETATM   13  C14 UNL     1      26.881  -0.115  53.576  1.00  0.00     0.133 A 
ENDBRANCH   5   8
ENDBRANCH   1   4
BRANCH   1  14
HETATM   14  C2  UNL     1      23.959   3.769  50.396  1.00  0.00     0.191 C 
BRANCH  14  15
HETATM   15  C3  UNL     1      24.569   5.120  50.300  1.00  0.00    -0.006 C 
HETATM   16  C4  UNL     1      25.634   5.714  49.776  1.00  0.00    -0.052 C 
HETATM   17  C5  UNL     1      25.889   7.196  49.920  1.00  0.00     0.062 C 
HETATM   18  C9  UNL     1      26.573   4.829  49.029  1.00  0.00     0.304 C 
HETATM   19  C6  UNL     1      26.197   7.684  48.526  1.00  0.00    -0.025 C 
HETATM   20  C7  UNL     1      27.252   7.198  47.860  1.00  0.00    -0.001 C 
HETATM   21  C8  UNL     1      28.335   6.194  48.132  1.00  0.00     0.297 C 
HETATM   22  N2  UNL     1      27.950   5.251  49.177  1.00  0.00     0.090 N 
HETATM   23  H11 UNL     1      28.576   4.423  49.061  1.00  0.00     0.316 HD
ENDBRANCH  14  15
ENDBRANCH   1  14
TORSDOF 4
ENDMDL
MODEL 7
REMARK VINA RESULT:      -6.9      1.667      2.289
REMARK  4 active torsions:
REMARK  status: ('A' for Active; 'I' for Inactive)
REMARK       I    between atoms: C1_2  and  N1_3 
REMARK    1  A    between atoms: C1_2  and  C10_16 
REMARK    2  A    between atoms: N1_3  and  S1_4 
REMARK    3  A    between atoms: S1_4  and  C2_7 
REMARK    4  A    between atoms: C2_7  and  C3_8 
ROOT
HETATM    1  S1  UNL     1      23.958   2.136  51.867  1.00  0.00     0.236 S 
HETATM    2  O2  UNL     1      23.538   2.929  53.045  1.00  0.00    -0.205 OA
HETATM    3  O3  UNL     1      22.741   2.069  50.954  1.00  0.00    -0.205 OA
ENDROOT
BRANCH   1   4
HETATM    4  N1  UNL     1      25.219   2.806  50.943  1.00  0.00    -0.250 N 
HETATM    5  C1  UNL     1      25.008   4.149  50.532  1.00  0.00     0.266 C 
HETATM    6  O1  UNL     1      23.894   4.607  50.939  1.00  0.00    -0.267 OA
HETATM    7  H1  UNL     1      26.096   2.307  50.677  1.00  0.00     0.181 HD
BRANCH   5   8
HETATM    8  C10 UNL     1      25.986   4.893  49.728  1.00  0.00     0.050 A 
HETATM    9  C11 UNL     1      25.907   6.237  49.386  1.00  0.00     0.020 A 
HETATM   10  C12 UNL     1      26.928   6.770  48.617  1.00  0.00     0.020 A 
HETATM   11  C13 UNL     1      28.002   6.009  48.190  1.00  0.00     0.116 A 
HETATM   12  N3  UNL     1      28.052   4.694  48.540  1.00  0.00    -0.272 NA
HETATM   13  C14 UNL     1      27.068   4.144  49.292  1.00  0.00     0.133 A 
ENDBRANCH   5   8
ENDBRANCH   1   4
BRANCH   1  14
HETATM   14  C2  UNL     1      24.275   0.433  52.340  1.00  0.00     0.191 C 
BRANCH  14  15
HETATM   15  C3  UNL     1      25.381   0.480  53.331  1.00  0.00    -0.006 C 
HETATM   16  C4  UNL     1      26.548  -0.105  53.573  1.00  0.00    -0.052 C 
HETATM   17  C5  UNL     1      27.408   0.261  54.758  1.00  0.00     0.062 C 
HETATM   18  C9  UNL     1      26.966  -1.154  52.598  1.00  0.00     0.304 C 
HETATM   19  C6  UNL     1      28.790   0.480  54.195  1.00  0.00    -0.025 C 
HETATM   20  C7  UNL     1      29.432  -0.520  53.577  1.00  0.00    -0.001 C 
HETATM   21  C8  UNL     1      29.136  -1.955  53.247  1.00  0.00     0.297 C 
HETATM   22  N2  UNL     1      27.702  -2.225  53.237  1.00  0.00     0.090 N 
HETATM   23  H11 UNL     1      27.578  -3.102  52.682  1.00  0.00     0.316 HD
ENDBRANCH  14  15
ENDBRANCH   1  14
TORSDOF 4
ENDMDL
MODEL 8
REMARK VINA RESULT:      -6.7      3.160      6.374
REMARK  4 active torsions:
REMARK  status: ('A' for Active; 'I' for Inactive)
REMARK       I    between atoms: C1_2  and  N1_3 
REMARK    1  A    between atoms: C1_2  and  C10_16 
REMARK    2  A    between atoms: N1_3  and  S1_4 
REMARK    3  A    between atoms: S1_4  and  C2_7 
REMARK    4  A    between atoms: C2_7  and  C3_8 
ROOT
HETATM    1  S1  UNL     1      26.505   0.152  53.409  1.00  0.00     0.236 S 
HETATM    2  O2  UNL     1      26.889  -0.498  54.682  1.00  0.00    -0.205 OA
HETATM    3  O3  UNL     1      27.218  -0.626  52.310  1.00  0.00    -0.205 OA
ENDROOT
BRANCH   1   4
HETATM    4  N1  UNL     1      24.847   0.108  53.033  1.00  0.00    -0.250 N 
HETATM    5  C1  UNL     1      24.027  -0.492  54.024  1.00  0.00     0.266 C 
HETATM    6  O1  UNL     1      24.699  -0.893  55.027  1.00  0.00    -0.267 OA
HETATM    7  H1  UNL     1      24.422   0.482  52.156  1.00  0.00     0.181 HD
BRANCH   5   8
HETATM    8  C10 UNL     1      22.572  -0.621  53.877  1.00  0.00     0.050 A 
HETATM    9  C11 UNL     1      21.786  -1.644  54.391  1.00  0.00     0.020 A 
HETATM   10  C12 UNL     1      20.423  -1.599  54.150  1.00  0.00     0.020 A 
HETATM   11  C13 UNL     1      19.838  -0.577  53.421  1.00  0.00     0.116 A 
HETATM   12  N3  UNL     1      20.634   0.413  52.928  1.00  0.00    -0.272 NA
HETATM   13  C14 UNL     1      21.971   0.395  53.148  1.00  0.00     0.133 A 
ENDBRANCH   5   8
ENDBRANCH   1   4
BRANCH   1  14
HETATM   14  C2  UNL     1      27.192   1.810  53.320  1.00  0.00     0.191 C 
BRANCH  14  15
HETATM   15  C3  UNL     1      27.104   2.215  51.894  1.00  0.00    -0.006 C 
HETATM   16  C4  UNL     1      26.252   2.797  51.058  1.00  0.00    -0.052 C 
HETATM   17  C5  UNL     1      26.577   3.032  49.602  1.00  0.00     0.062 C 
HETATM   18  C9  UNL     1      24.944   3.211  51.644  1.00  0.00     0.304 C 
HETATM   19  C6  UNL     1      26.234   4.479  49.347  1.00  0.00    -0.025 C 
HETATM   20  C7  UNL     1      24.977   4.912  49.512  1.00  0.00    -0.001 C 
HETATM   21  C8  UNL     1      23.669   4.303  49.926  1.00  0.00     0.297 C 
HETATM   22  N2  UNL     1      23.859   3.077  50.694  1.00  0.00     0.090 N 
HETATM   23  H11 UNL     1      22.966   2.923  51.215  1.00  0.00     0.316 HD
ENDBRANCH  14  15
ENDBRANCH   1  14
TORSDOF 4
ENDMDL
MODEL 9
REMARK VINA RESULT:      -6.5      2.006      5.593
REMARK  4 active torsions:
REMARK  status: ('A' for Active; 'I' for Inactive)
REMARK       I    between atoms: C1_2  and  N1_3 
REMARK    1  A    between atoms: C1_2  and  C10_16 
REMARK    2  A    between atoms: N1_3  and  S1_4 
REMARK    3  A    between atoms: S1_4  and  C2_7 
REMARK    4  A    between atoms: C2_7  and  C3_8 
ROOT
HETATM    1  S1  UNL     1      22.242   1.110  52.705  1.00  0.00     0.236 S 
HETATM    2  O2  UNL     1      21.827   0.127  51.679  1.00  0.00    -0.205 OA
HETATM    3  O3  UNL     1      21.614   0.641  54.012  1.00  0.00    -0.205 OA
ENDROOT
BRANCH   1   4
HETATM    4  N1  UNL     1      23.916   1.217  52.985  1.00  0.00    -0.250 N 
HETATM    5  C1  UNL     1      24.557  -0.022  53.249  1.00  0.00     0.266 C 
HETATM    6  O1  UNL     1      23.742  -0.999  53.227  1.00  0.00    -0.267 OA
HETATM    7  H1  UNL     1      24.470   2.102  52.973  1.00  0.00     0.181 HD
BRANCH   5   8
HETATM    8  C10 UNL     1      25.997  -0.129  53.514  1.00  0.00     0.050 A 
HETATM    9  C11 UNL     1      26.892  -0.953  52.843  1.00  0.00     0.020 A 
HETATM   10  C12 UNL     1      28.220  -0.920  53.233  1.00  0.00     0.020 A 
HETATM   11  C13 UNL     1      28.667  -0.101  54.256  1.00  0.00     0.116 A 
HETATM   12  N3  UNL     1      27.767   0.696  54.896  1.00  0.00    -0.272 NA
HETATM   13  C14 UNL     1      26.460   0.685  54.536  1.00  0.00     0.133 A 
ENDBRANCH   5   8
ENDBRANCH   1   4
BRANCH   1  14
HETATM   14  C2  UNL     1      21.490   2.709  52.381  1.00  0.00     0.191 C 
BRANCH  14  15
HETATM   15  C3  UNL     1      22.131   3.220  51.141  1.00  0.00    -0.006 C 
HETATM   16  C4  UNL     1      22.914   4.216  50.745  1.00  0.00    -0.052 C 
HETATM   17  C5  UNL     1      23.357   4.377  49.310  1.00  0.00     0.062 C 
HETATM   18  C9  UNL     1      23.336   5.176  51.805  1.00  0.00     0.304 C 
HETATM   19  C6  UNL     1      24.850   4.583  49.375  1.00  0.00    -0.025 C 
HETATM   20  C7  UNL     1      25.356   5.636  50.031  1.00  0.00    -0.001 C 
HETATM   21  C8  UNL     1      24.802   6.796  50.806  1.00  0.00     0.297 C 
HETATM   22  N2  UNL     1      23.454   6.527  51.297  1.00  0.00     0.090 N 
HETATM   23  H11 UNL     1      23.293   7.202  52.078  1.00  0.00     0.316 HD
ENDBRANCH  14  15
ENDBRANCH   1  14
TORSDOF 4
ENDMDL
