MODEL 1
REMARK VINA RESULT:      -8.5      0.000      0.000
REMARK  6 active torsions:
REMARK  status: ('A' for Active; 'I' for Inactive)
REMARK    1  A    between atoms: C5_5  and  N1_6 
REMARK    2  A    between atoms: N1_6  and  C6_7 
REMARK    3  A    between atoms: C10_13  and  O1_14 
REMARK    4  A    between atoms: O1_14  and  C11_15 
REMARK    5  A    between atoms: C11_15  and  C12_16 
REMARK    6  A    between atoms: C18_23  and  O2_24 
ROOT
HETATM    1  C6  UNL     1      23.539  -0.163  53.481  1.00  0.00     0.142 A 
HETATM    2  N2  UNL     1      22.539  -0.677  54.257  1.00  0.00    -0.224 NA
HETATM    3  C7  UNL     1      21.333  -0.118  54.241  1.00  0.00     0.236 A 
HETATM    4  N3  UNL     1      21.075   0.947  53.476  1.00  0.00    -0.241 NA
HETATM    5  C8  UNL     1      21.994   1.513  52.686  1.00  0.00     0.075 A 
HETATM    6  C9  UNL     1      21.604   2.602  51.936  1.00  0.00     0.072 A 
HETATM    7  C10 UNL     1      22.590   3.159  51.114  1.00  0.00     0.104 A 
HETATM    8  C18 UNL     1      23.852   2.608  51.099  1.00  0.00     0.102 A 
HETATM    9  C20 UNL     1      24.171   1.520  51.875  1.00  0.00     0.057 A 
HETATM   10  C21 UNL     1      23.245   0.935  52.700  1.00  0.00     0.042 A 
ENDROOT
BRANCH   1  11
HETATM   11  N1  UNL     1      24.814  -0.760  53.492  1.00  0.00    -0.338 N 
HETATM   12  H6  UNL     1      24.788  -1.804  53.269  1.00  0.00     0.167 HD
BRANCH  11  13
HETATM   13  C5  UNL     1      26.207  -0.679  53.670  1.00  0.00     0.072 A 
HETATM   14  C4  UNL     1      26.812   0.189  54.596  1.00  0.00     0.033 A 
HETATM   15  C3  UNL     1      28.211   0.185  54.652  1.00  0.00     0.009 A 
HETATM   16  C2  UNL     1      28.901  -0.666  53.801  1.00  0.00    -0.059 A 
HETATM   17  C1  UNL     1      30.380  -0.634  53.898  1.00  0.00     0.048 C 
HETATM   18  C23 UNL     1      28.316  -1.517  52.893  1.00  0.00     0.051 A 
HETATM   19  C22 UNL     1      26.943  -1.509  52.842  1.00  0.00     0.143 A 
HETATM   20  F1  UNL     1      26.370  -2.347  51.949  1.00  0.00    -0.204 F 
ENDBRANCH  11  13
ENDBRANCH   1  11
BRANCH   8  21
HETATM   21  O2  UNL     1      24.731   3.255  50.242  1.00  0.00    -0.353 OA
HETATM   22  C19 UNL     1      26.109   3.253  50.596  1.00  0.00     0.210 C 
ENDBRANCH   8  21
BRANCH   7  23
HETATM   23  O1  UNL     1      22.177   4.262  50.363  1.00  0.00    -0.348 OA
BRANCH  23  24
HETATM   24  C11 UNL     1      21.932   5.497  50.994  1.00  0.00     0.180 C 
BRANCH  24  25
HETATM   25  C12 UNL     1      22.844   6.564  50.459  1.00  0.00     0.013 C 
HETATM   26  C13 UNL     1      24.117   6.604  51.299  1.00  0.00     0.037 C 
HETATM   27  C14 UNL     1      25.262   7.101  50.437  1.00  0.00     0.272 C 
HETATM   28  N4  UNL     1      24.738   8.049  49.449  1.00  0.00     0.084 N 
HETATM   29  C15 UNL     1      25.829   8.848  48.910  1.00  0.00     0.309 C 
HETATM   30  C16 UNL     1      24.064   7.289  48.400  1.00  0.00     0.272 C 
HETATM   31  C17 UNL     1      23.248   6.195  49.046  1.00  0.00     0.037 C 
ENDBRANCH  24  25
ENDBRANCH  23  24
ENDBRANCH   7  23
TORSDOF 6
ENDMDL
MODEL 2
REMARK VINA RESULT:      -8.3      3.536      5.636
REMARK  6 active torsions:
REMARK  status: ('A' for Active; 'I' for Inactive)
REMARK    1  A    between atoms: C5_5  and  N1_6 
REMARK    2  A    between atoms: N1_6  and  C6_7 
REMARK    3  A    between atoms: C10_13  and  O1_14 
REMARK    4  A    between atoms: O1_14  and  C11_15 
REMARK    5  A    between atoms: C11_15  and  C12_16 
REMARK    6  A    between atoms: C18_23  and  O2_24 
ROOT
HETATM    1  C6  UNL     1      23.411   0.138  53.479  1.00  0.00     0.142 A 
HETATM    2  N2  UNL     1      23.056  -0.952  54.222  1.00  0.00    -0.224 NA
HETATM    3  C7  UNL     1      21.783  -1.143  54.554  1.00  0.00     0.236 A 
HETATM    4  N3  UNL     1      20.833  -0.282  54.174  1.00  0.00    -0.241 NA
HETATM    5  C8  UNL     1      21.093   0.809  53.444  1.00  0.00     0.075 A 
HETATM    6  C9  UNL     1      20.027   1.614  53.105  1.00  0.00     0.072 A 
HETATM    7  C10 UNL     1      20.336   2.740  52.332  1.00  0.00     0.104 A 
HETATM    8  C18 UNL     1      21.643   2.972  51.966  1.00  0.00     0.102 A 
HETATM    9  C20 UNL     1      22.657   2.124  52.340  1.00  0.00     0.057 A 
HETATM   10  C21 UNL     1      22.411   1.008  53.099  1.00  0.00     0.042 A 
ENDROOT
BRANCH   1  11
HETATM   11  N1  UNL     1      24.759   0.336  53.122  1.00  0.00    -0.338 N 
HETATM   12  H6  UNL     1      24.894   1.139  52.432  1.00  0.00     0.167 HD
BRANCH  11  13
HETATM   13  C5  UNL     1      26.117  -0.018  53.209  1.00  0.00     0.072 A 
HETATM   14  C4  UNL     1      26.612  -1.266  52.791  1.00  0.00     0.033 A 
HETATM   15  C3  UNL     1      27.984  -1.495  52.958  1.00  0.00     0.009 A 
HETATM   16  C2  UNL     1      28.755  -0.488  53.517  1.00  0.00    -0.059 A 
HETATM   17  C1  UNL     1      30.201  -0.778  53.672  1.00  0.00     0.048 C 
HETATM   18  C23 UNL     1      28.278   0.735  53.927  1.00  0.00     0.051 A 
HETATM   19  C22 UNL     1      26.932   0.954  53.762  1.00  0.00     0.143 A 
HETATM   20  F1  UNL     1      26.465   2.157  54.166  1.00  0.00    -0.204 F 
ENDBRANCH  11  13
ENDBRANCH   1  11
BRANCH   8  21
HETATM   21  O2  UNL     1      21.810   4.119  51.202  1.00  0.00    -0.353 OA
HETATM   22  C19 UNL     1      22.577   5.175  51.769  1.00  0.00     0.210 C 
ENDBRANCH   8  21
BRANCH   7  23
HETATM   23  O1  UNL     1      19.245   3.545  52.000  1.00  0.00    -0.348 OA
BRANCH  23  24
HETATM   24  C11 UNL     1      18.204   3.033  51.200  1.00  0.00     0.180 C 
BRANCH  24  25
HETATM   25  C12 UNL     1      16.912   2.985  51.964  1.00  0.00     0.013 C 
HETATM   26  C13 UNL     1      16.103   4.243  51.661  1.00  0.00     0.037 C 
HETATM   27  C14 UNL     1      14.626   3.927  51.806  1.00  0.00     0.272 C 
HETATM   28  N4  UNL     1      14.458   2.910  52.849  1.00  0.00     0.084 N 
HETATM   29  C15 UNL     1      13.076   2.901  53.305  1.00  0.00     0.309 C 
HETATM   30  C16 UNL     1      14.844   1.617  52.291  1.00  0.00     0.272 C 
HETATM   31  C17 UNL     1      16.103   1.801  51.476  1.00  0.00     0.037 C 
ENDBRANCH  24  25
ENDBRANCH  23  24
ENDBRANCH   7  23
TORSDOF 6
ENDMDL
MODEL 3
REMARK VINA RESULT:      -8.2      3.739      6.689
REMARK  6 active torsions:
REMARK  status: ('A' for Active; 'I' for Inactive)
REMARK    1  A    between atoms: C5_5  and  N1_6 
REMARK    2  A    between atoms: N1_6  and  C6_7 
REMARK    3  A    between atoms: C10_13  and  O1_14 
REMARK    4  A    between atoms: O1_14  and  C11_15 
REMARK    5  A    between atoms: C11_15  and  C12_16 
REMARK    6  A    between atoms: C18_23  and  O2_24 
ROOT
HETATM    1  C6  UNL     1      25.175   2.273  51.544  1.00  0.00     0.142 A 
HETATM    2  N2  UNL     1      25.426   3.274  50.649  1.00  0.00    -0.224 NA
HETATM    3  C7  UNL     1      24.465   3.685  49.826  1.00  0.00     0.236 A 
HETATM    4  N3  UNL     1      23.248   3.134  49.857  1.00  0.00    -0.241 NA
HETATM    5  C8  UNL     1      22.916   2.151  50.702  1.00  0.00     0.075 A 
HETATM    6  C9  UNL     1      21.625   1.673  50.644  1.00  0.00     0.072 A 
HETATM    7  C10 UNL     1      21.313   0.653  51.552  1.00  0.00     0.104 A 
HETATM    8  C18 UNL     1      22.280   0.201  52.422  1.00  0.00     0.102 A 
HETATM    9  C20 UNL     1      23.549   0.726  52.423  1.00  0.00     0.057 A 
HETATM   10  C21 UNL     1      23.910   1.724  51.555  1.00  0.00     0.042 A 
ENDROOT
BRANCH   1  11
HETATM   11  N1  UNL     1      26.191   1.844  52.420  1.00  0.00    -0.338 N 
HETATM   12  H6  UNL     1      26.322   2.493  53.257  1.00  0.00     0.167 HD
BRANCH  11  13
HETATM   13  C5  UNL     1      27.202   0.933  52.776  1.00  0.00     0.072 A 
HETATM   14  C4  UNL     1      27.072  -0.457  52.616  1.00  0.00     0.033 A 
HETATM   15  C3  UNL     1      28.148  -1.250  53.034  1.00  0.00     0.009 A 
HETATM   16  C2  UNL     1      29.258  -0.619  53.573  1.00  0.00    -0.059 A 
HETATM   17  C1  UNL     1      30.371  -1.500  54.002  1.00  0.00     0.048 C 
HETATM   18  C23 UNL     1      29.393   0.740  53.733  1.00  0.00     0.051 A 
HETATM   19  C22 UNL     1      28.334   1.513  53.321  1.00  0.00     0.143 A 
HETATM   20  F1  UNL     1      28.468   2.850  53.479  1.00  0.00    -0.204 F 
ENDBRANCH  11  13
ENDBRANCH   1  11
BRANCH   8  21
HETATM   21  O2  UNL     1      21.839  -0.809  53.265  1.00  0.00    -0.353 OA
HETATM   22  C19 UNL     1      21.523  -0.449  54.605  1.00  0.00     0.210 C 
ENDBRANCH   8  21
BRANCH   7  23
HETATM   23  O1  UNL     1      20.002   0.179  51.477  1.00  0.00    -0.348 OA
BRANCH  23  24
HETATM   24  C11 UNL     1      18.952   1.050  51.127  1.00  0.00     0.180 C 
BRANCH  24  25
HETATM   25  C12 UNL     1      17.618   0.447  51.461  1.00  0.00     0.013 C 
HETATM   26  C13 UNL     1      16.888   0.098  50.168  1.00  0.00     0.037 C 
HETATM   27  C14 UNL     1      15.956  -1.071  50.428  1.00  0.00     0.272 C 
HETATM   28  N4  UNL     1      15.472  -0.996  51.809  1.00  0.00     0.084 N 
HETATM   29  C15 UNL     1      14.281  -1.820  51.956  1.00  0.00     0.309 C 
HETATM   30  C16 UNL     1      16.543  -1.445  52.694  1.00  0.00     0.272 C 
HETATM   31  C17 UNL     1      17.845  -0.848  52.214  1.00  0.00     0.037 C 
ENDBRANCH  24  25
ENDBRANCH  23  24
ENDBRANCH   7  23
TORSDOF 6
ENDMDL
MODEL 4
REMARK VINA RESULT:      -8.0      2.102      2.713
REMARK  6 active torsions:
REMARK  status: ('A' for Active; 'I' for Inactive)
REMARK    1  A    between atoms: C5_5  and  N1_6 
REMARK    2  A    between atoms: N1_6  and  C6_7 
REMARK    3  A    between atoms: C10_13  and  O1_14 
REMARK    4  A    between atoms: O1_14  and  C11_15 
REMARK    5  A    between atoms: C11_15  and  C12_16 
REMARK    6  A    between atoms: C18_23  and  O2_24 
ROOT
HETATM    1  C6  UNL     1      23.331  -0.482  53.612  1.00  0.00     0.142 A 
HETATM    2  N2  UNL     1      22.372  -1.238  54.226  1.00  0.00    -0.224 NA
HETATM    3  C7  UNL     1      21.113  -0.812  54.262  1.00  0.00     0.236 A 
HETATM    4  N3  UNL     1      20.762   0.353  53.707  1.00  0.00    -0.241 NA
HETATM    5  C8  UNL     1      21.636   1.154  53.086  1.00  0.00     0.075 A 
HETATM    6  C9  UNL     1      21.150   2.324  52.545  1.00  0.00     0.072 A 
HETATM    7  C10 UNL     1      22.092   3.130  51.894  1.00  0.00     0.104 A 
HETATM    8  C18 UNL     1      23.406   2.722  51.832  1.00  0.00     0.102 A 
HETATM    9  C20 UNL     1      23.820   1.540  52.395  1.00  0.00     0.057 A 
HETATM   10  C21 UNL     1      22.940   0.713  53.047  1.00  0.00     0.042 A 
ENDROOT
BRANCH   1  11
HETATM   11  N1  UNL     1      24.662  -0.939  53.567  1.00  0.00    -0.338 N 
HETATM   12  H6  UNL     1      24.741  -1.972  53.308  1.00  0.00     0.167 HD
BRANCH  11  13
HETATM   13  C5  UNL     1      26.043  -0.714  53.709  1.00  0.00     0.072 A 
HETATM   14  C4  UNL     1      26.579   0.210  54.623  1.00  0.00     0.033 A 
HETATM   15  C3  UNL     1      27.972   0.351  54.643  1.00  0.00     0.009 A 
HETATM   16  C2  UNL     1      28.724  -0.421  53.770  1.00  0.00    -0.059 A 
HETATM   17  C1  UNL     1      30.194  -0.236  53.829  1.00  0.00     0.048 C 
HETATM   18  C23 UNL     1      28.207  -1.327  52.874  1.00  0.00     0.051 A 
HETATM   19  C22 UNL     1      26.839  -1.461  52.859  1.00  0.00     0.143 A 
HETATM   20  F1  UNL     1      26.333  -2.352  51.976  1.00  0.00    -0.204 F 
ENDBRANCH  11  13
ENDBRANCH   1  11
BRANCH   8  21
HETATM   21  O2  UNL     1      24.232   3.612  51.159  1.00  0.00    -0.353 OA
HETATM   22  C19 UNL     1      24.664   3.242  49.855  1.00  0.00     0.210 C 
ENDBRANCH   8  21
BRANCH   7  23
HETATM   23  O1  UNL     1      21.583   4.312  51.353  1.00  0.00    -0.348 OA
BRANCH  23  24
HETATM   24  C11 UNL     1      20.446   4.280  50.522  1.00  0.00     0.180 C 
BRANCH  24  25
HETATM   25  C12 UNL     1      20.827   3.981  49.100  1.00  0.00     0.013 C 
HETATM   26  C13 UNL     1      19.579   4.040  48.224  1.00  0.00     0.037 C 
HETATM   27  C14 UNL     1      19.983   4.440  46.817  1.00  0.00     0.272 C 
HETATM   28  N4  UNL     1      21.323   3.914  46.539  1.00  0.00     0.084 N 
HETATM   29  C15 UNL     1      21.556   3.902  45.102  1.00  0.00     0.309 C 
HETATM   30  C16 UNL     1      22.296   4.755  47.230  1.00  0.00     0.272 C 
HETATM   31  C17 UNL     1      21.771   5.061  48.613  1.00  0.00     0.037 C 
ENDBRANCH  24  25
ENDBRANCH  23  24
ENDBRANCH   7  23
TORSDOF 6
ENDMDL
MODEL 5
REMARK VINA RESULT:      -8.0      2.443      5.407
REMARK  6 active torsions:
REMARK  status: ('A' for Active; 'I' for Inactive)
REMARK    1  A    between atoms: C5_5  and  N1_6 
REMARK    2  A    between atoms: N1_6  and  C6_7 
REMARK    3  A    between atoms: C10_13  and  O1_14 
REMARK    4  A    between atoms: O1_14  and  C11_15 
REMARK    5  A    between atoms: C11_15  and  C12_16 
REMARK    6  A    between atoms: C18_23  and  O2_24 
ROOT
HETATM    1  C6  UNL     1      24.606   1.291  52.582  1.00  0.00     0.142 A 
HETATM    2  N2  UNL     1      25.611   0.457  52.984  1.00  0.00    -0.224 NA
HETATM    3  C7  UNL     1      26.831   0.593  52.472  1.00  0.00     0.236 A 
HETATM    4  N3  UNL     1      27.098   1.537  51.564  1.00  0.00    -0.241 NA
HETATM    5  C8  UNL     1      26.174   2.396  51.117  1.00  0.00     0.075 A 
HETATM    6  C9  UNL     1      26.575   3.331  50.187  1.00  0.00     0.072 A 
HETATM    7  C10 UNL     1      25.583   4.219  49.752  1.00  0.00     0.104 A 
HETATM    8  C18 UNL     1      24.308   4.113  50.259  1.00  0.00     0.102 A 
HETATM    9  C20 UNL     1      23.979   3.153  51.186  1.00  0.00     0.057 A 
HETATM   10  C21 UNL     1      24.910   2.257  51.646  1.00  0.00     0.042 A 
ENDROOT
BRANCH   1  11
HETATM   11  N1  UNL     1      23.317   1.151  53.130  1.00  0.00    -0.338 N 
HETATM   12  H6  UNL     1      23.163   1.756  53.996  1.00  0.00     0.167 HD
BRANCH  11  13
HETATM   13  C5  UNL     1      22.035   0.571  53.123  1.00  0.00     0.072 A 
HETATM   14  C4  UNL     1      21.004   1.003  52.271  1.00  0.00     0.033 A 
HETATM   15  C3  UNL     1      19.769   0.353  52.385  1.00  0.00     0.009 A 
HETATM   16  C2  UNL     1      19.646  -0.664  53.320  1.00  0.00    -0.059 A 
HETATM   17  C1  UNL     1      18.319  -1.321  53.404  1.00  0.00     0.048 C 
HETATM   18  C23 UNL     1      20.650  -1.092  54.157  1.00  0.00     0.051 A 
HETATM   19  C22 UNL     1      21.859  -0.449  54.040  1.00  0.00     0.143 A 
HETATM   20  F1  UNL     1      22.846  -0.872  54.863  1.00  0.00    -0.204 F 
ENDBRANCH  11  13
ENDBRANCH   1  11
BRANCH   8  21
HETATM   21  O2  UNL     1      23.426   5.052  49.744  1.00  0.00    -0.353 OA
HETATM   22  C19 UNL     1      23.223   6.240  50.501  1.00  0.00     0.210 C 
ENDBRANCH   8  21
BRANCH   7  23
HETATM   23  O1  UNL     1      26.006   5.158  48.809  1.00  0.00    -0.348 OA
BRANCH  23  24
HETATM   24  C11 UNL     1      27.380   5.330  48.546  1.00  0.00     0.180 C 
BRANCH  24  25
HETATM   25  C12 UNL     1      27.690   6.762  48.217  1.00  0.00     0.013 C 
HETATM   26  C13 UNL     1      27.019   7.669  49.246  1.00  0.00     0.037 C 
HETATM   27  C14 UNL     1      27.829   8.946  49.379  1.00  0.00     0.272 C 
HETATM   28  N4  UNL     1      28.444   9.257  48.085  1.00  0.00     0.084 N 
HETATM   29  C15 UNL     1      28.853  10.654  48.062  1.00  0.00     0.309 C 
HETATM   30  C16 UNL     1      29.583   8.364  47.894  1.00  0.00     0.272 C 
HETATM   31  C17 UNL     1      29.185   6.975  48.335  1.00  0.00     0.037 C 
ENDBRANCH  24  25
ENDBRANCH  23  24
ENDBRANCH   7  23
TORSDOF 6
ENDMDL
MODEL 6
REMARK VINA RESULT:      -7.8      1.726      2.269
REMARK  6 active torsions:
REMARK  status: ('A' for Active; 'I' for Inactive)
REMARK    1  A    between atoms: C5_5  and  N1_6 
REMARK    2  A    between atoms: N1_6  and  C6_7 
REMARK    3  A    between atoms: C10_13  and  O1_14 
REMARK    4  A    between atoms: O1_14  and  C11_15 
REMARK    5  A    between atoms: C11_15  and  C12_16 
REMARK    6  A    between atoms: C18_23  and  O2_24 
ROOT
HETATM    1  C6  UNL     1      23.148  -0.384  53.791  1.00  0.00     0.142 A 
HETATM    2  N2  UNL     1      22.228  -1.283  54.251  1.00  0.00    -0.224 NA
HETATM    3  C7  UNL     1      20.964  -1.206  53.845  1.00  0.00     0.236 A 
HETATM    4  N3  UNL     1      20.571  -0.258  52.988  1.00  0.00    -0.241 NA
HETATM    5  C8  UNL     1      21.405   0.660  52.487  1.00  0.00     0.075 A 
HETATM    6  C9  UNL     1      20.882   1.579  51.604  1.00  0.00     0.072 A 
HETATM    7  C10 UNL     1      21.789   2.516  51.093  1.00  0.00     0.104 A 
HETATM    8  C18 UNL     1      23.108   2.468  51.487  1.00  0.00     0.102 A 
HETATM    9  C20 UNL     1      23.560   1.521  52.373  1.00  0.00     0.057 A 
HETATM   10  C21 UNL     1      22.715   0.581  52.906  1.00  0.00     0.042 A 
ENDROOT
BRANCH   1  11
HETATM   11  N1  UNL     1      24.488  -0.472  54.216  1.00  0.00    -0.338 N 
HETATM   12  H6  UNL     1      24.591  -0.448  55.278  1.00  0.00     0.167 HD
BRANCH  11  13
HETATM   13  C5  UNL     1      25.862  -0.573  53.933  1.00  0.00     0.072 A 
HETATM   14  C4  UNL     1      26.374  -1.374  52.897  1.00  0.00     0.033 A 
HETATM   15  C3  UNL     1      27.765  -1.402  52.742  1.00  0.00     0.009 A 
HETATM   16  C2  UNL     1      28.539  -0.646  53.610  1.00  0.00    -0.059 A 
HETATM   17  C1  UNL     1      30.006  -0.707  53.406  1.00  0.00     0.048 C 
HETATM   18  C23 UNL     1      28.045   0.140  54.625  1.00  0.00     0.051 A 
HETATM   19  C22 UNL     1      26.679   0.163  54.773  1.00  0.00     0.143 A 
HETATM   20  F1  UNL     1      26.195   0.937  55.771  1.00  0.00    -0.204 F 
ENDBRANCH  11  13
ENDBRANCH   1  11
BRANCH   8  21
HETATM   21  O2  UNL     1      23.896   3.451  50.906  1.00  0.00    -0.353 OA
HETATM   22  C19 UNL     1      25.131   3.042  50.330  1.00  0.00     0.210 C 
ENDBRANCH   8  21
BRANCH   7  23
HETATM   23  O1  UNL     1      21.241   3.440  50.201  1.00  0.00    -0.348 OA
BRANCH  23  24
HETATM   24  C11 UNL     1      20.592   4.593  50.684  1.00  0.00     0.180 C 
BRANCH  24  25
HETATM   25  C12 UNL     1      21.088   5.824  49.983  1.00  0.00     0.013 C 
HETATM   26  C13 UNL     1      19.895   6.678  49.563  1.00  0.00     0.037 C 
HETATM   27  C14 UNL     1      20.321   8.134  49.519  1.00  0.00     0.272 C 
HETATM   28  N4  UNL     1      21.733   8.205  49.130  1.00  0.00     0.084 N 
HETATM   29  C15 UNL     1      22.045   9.550  48.669  1.00  0.00     0.309 C 
HETATM   30  C16 UNL     1      22.544   7.835  50.286  1.00  0.00     0.272 C 
HETATM   31  C17 UNL     1      21.907   6.644  50.960  1.00  0.00     0.037 C 
ENDBRANCH  24  25
ENDBRANCH  23  24
ENDBRANCH   7  23
TORSDOF 6
ENDMDL
MODEL 7
REMARK VINA RESULT:      -7.7      3.245      5.179
REMARK  6 active torsions:
REMARK  status: ('A' for Active; 'I' for Inactive)
REMARK    1  A    between atoms: C5_5  and  N1_6 
REMARK    2  A    between atoms: N1_6  and  C6_7 
REMARK    3  A    between atoms: C10_13  and  O1_14 
REMARK    4  A    between atoms: O1_14  and  C11_15 
REMARK    5  A    between atoms: C11_15  and  C12_16 
REMARK    6  A    between atoms: C18_23  and  O2_24 
ROOT
HETATM    1  C6  UNL     1      23.290   0.548  53.247  1.00  0.00     0.142 A 
HETATM    2  N2  UNL     1      22.819  -0.486  54.006  1.00  0.00    -0.224 NA
HETATM    3  C7  UNL     1      21.521  -0.575  54.275  1.00  0.00     0.236 A 
HETATM    4  N3  UNL     1      20.656   0.335  53.815  1.00  0.00    -0.241 NA
HETATM    5  C8  UNL     1      21.030   1.378  53.064  1.00  0.00     0.075 A 
HETATM    6  C9  UNL     1      20.044   2.242  52.642  1.00  0.00     0.072 A 
HETATM    7  C10 UNL     1      20.473   3.314  51.850  1.00  0.00     0.104 A 
HETATM    8  C18 UNL     1      21.810   3.441  51.546  1.00  0.00     0.102 A 
HETATM    9  C20 UNL     1      22.740   2.538  52.003  1.00  0.00     0.057 A 
HETATM   10  C21 UNL     1      22.376   1.471  52.784  1.00  0.00     0.042 A 
ENDROOT
BRANCH   1  11
HETATM   11  N1  UNL     1      24.665   0.637  52.956  1.00  0.00    -0.338 N 
HETATM   12  H6  UNL     1      24.904   1.461  52.320  1.00  0.00     0.167 HD
BRANCH  11  13
HETATM   13  C5  UNL     1      25.980   0.153  53.077  1.00  0.00     0.072 A 
HETATM   14  C4  UNL     1      26.334  -1.179  52.799  1.00  0.00     0.033 A 
HETATM   15  C3  UNL     1      27.677  -1.532  52.985  1.00  0.00     0.009 A 
HETATM   16  C2  UNL     1      28.558  -0.557  53.426  1.00  0.00    -0.059 A 
HETATM   17  C1  UNL     1      29.968  -0.979  53.608  1.00  0.00     0.048 C 
HETATM   18  C23 UNL     1      28.219   0.748  53.700  1.00  0.00     0.051 A 
HETATM   19  C22 UNL     1      26.900   1.088  53.515  1.00  0.00     0.143 A 
HETATM   20  F1  UNL     1      26.568   2.372  53.785  1.00  0.00    -0.204 F 
ENDBRANCH  11  13
ENDBRANCH   1  11
BRANCH   8  21
HETATM   21  O2  UNL     1      22.098   4.544  50.755  1.00  0.00    -0.353 OA
HETATM   22  C19 UNL     1      22.819   5.611  51.360  1.00  0.00     0.210 C 
ENDBRANCH   8  21
BRANCH   7  23
HETATM   23  O1  UNL     1      19.461   4.181  51.432  1.00  0.00    -0.348 OA
BRANCH  23  24
HETATM   24  C11 UNL     1      18.901   4.050  50.146  1.00  0.00     0.180 C 
BRANCH  24  25
HETATM   25  C12 UNL     1      17.444   3.695  50.228  1.00  0.00     0.013 C 
HETATM   26  C13 UNL     1      17.288   2.183  50.093  1.00  0.00     0.037 C 
HETATM   27  C14 UNL     1      16.038   1.748  50.837  1.00  0.00     0.272 C 
HETATM   28  N4  UNL     1      15.043   2.822  50.765  1.00  0.00     0.084 N 
HETATM   29  C15 UNL     1      13.725   2.290  51.078  1.00  0.00     0.309 C 
HETATM   30  C16 UNL     1      15.433   3.869  51.705  1.00  0.00     0.272 C 
HETATM   31  C17 UNL     1      16.925   4.081  51.598  1.00  0.00     0.037 C 
ENDBRANCH  24  25
ENDBRANCH  23  24
ENDBRANCH   7  23
TORSDOF 6
ENDMDL
MODEL 8
REMARK VINA RESULT:      -7.5      3.698      6.211
REMARK  6 active torsions:
REMARK  status: ('A' for Active; 'I' for Inactive)
REMARK    1  A    between atoms: C5_5  and  N1_6 
REMARK    2  A    between atoms: N1_6  and  C6_7 
REMARK    3  A    between atoms: C10_13  and  O1_14 
REMARK    4  A    between atoms: O1_14  and  C11_15 
REMARK    5  A    between atoms: C11_15  and  C12_16 
REMARK    6  A    between atoms: C18_23  and  O2_24 
ROOT
HETATM    1  C6  UNL     1      22.580   3.915  50.933  1.00  0.00     0.142 A 
HETATM    2  N2  UNL     1      21.588   4.618  50.309  1.00  0.00    -0.224 NA
HETATM    3  C7  UNL     1      21.881   5.405  49.278  1.00  0.00     0.236 A 
HETATM    4  N3  UNL     1      23.137   5.526  48.836  1.00  0.00    -0.241 NA
HETATM    5  C8  UNL     1      24.167   4.874  49.387  1.00  0.00     0.075 A 
HETATM    6  C9  UNL     1      25.413   5.073  48.835  1.00  0.00     0.072 A 
HETATM    7  C10 UNL     1      26.464   4.364  49.432  1.00  0.00     0.104 A 
HETATM    8  C18 UNL     1      26.202   3.536  50.501  1.00  0.00     0.102 A 
HETATM    9  C20 UNL     1      24.931   3.386  51.000  1.00  0.00     0.057 A 
HETATM   10  C21 UNL     1      23.866   4.057  50.455  1.00  0.00     0.042 A 
ENDROOT
BRANCH   1  11
HETATM   11  N1  UNL     1      22.268   3.075  52.020  1.00  0.00    -0.338 N 
HETATM   12  H6  UNL     1      22.444   3.535  52.967  1.00  0.00     0.167 HD
BRANCH  11  13
HETATM   13  C5  UNL     1      21.817   1.845  52.532  1.00  0.00     0.072 A 
HETATM   14  C4  UNL     1      20.495   1.392  52.382  1.00  0.00     0.033 A 
HETATM   15  C3  UNL     1      20.175   0.158  52.963  1.00  0.00     0.009 A 
HETATM   16  C2  UNL     1      21.173  -0.528  53.639  1.00  0.00    -0.059 A 
HETATM   17  C1  UNL     1      20.786  -1.829  54.237  1.00  0.00     0.048 C 
HETATM   18  C23 UNL     1      22.468  -0.091  53.790  1.00  0.00     0.051 A 
HETATM   19  C22 UNL     1      22.775   1.121  53.218  1.00  0.00     0.143 A 
HETATM   20  F1  UNL     1      24.050   1.549  53.367  1.00  0.00    -0.204 F 
ENDBRANCH  11  13
ENDBRANCH   1  11
BRANCH   8  21
HETATM   21  O2  UNL     1      27.329   2.896  50.996  1.00  0.00    -0.353 OA
HETATM   22  C19 UNL     1      27.171   2.114  52.174  1.00  0.00     0.210 C 
ENDBRANCH   8  21
BRANCH   7  23
HETATM   23  O1  UNL     1      27.719   4.580  48.861  1.00  0.00    -0.348 OA
BRANCH  23  24
HETATM   24  C11 UNL     1      28.122   5.881  48.504  1.00  0.00     0.180 C 
BRANCH  24  25
HETATM   25  C12 UNL     1      29.438   5.858  47.780  1.00  0.00     0.013 C 
HETATM   26  C13 UNL     1      29.603   7.159  46.999  1.00  0.00     0.037 C 
HETATM   27  C14 UNL     1      31.083   7.469  46.867  1.00  0.00     0.272 C 
HETATM   28  N4  UNL     1      31.829   6.209  46.796  1.00  0.00     0.084 N 
HETATM   29  C15 UNL     1      33.155   6.456  46.248  1.00  0.00     0.309 C 
HETATM   30  C16 UNL     1      31.904   5.646  48.141  1.00  0.00     0.272 C 
HETATM   31  C17 UNL     1      30.554   5.801  48.802  1.00  0.00     0.037 C 
ENDBRANCH  24  25
ENDBRANCH  23  24
ENDBRANCH   7  23
TORSDOF 6
ENDMDL
MODEL 9
REMARK VINA RESULT:      -7.5      4.350      7.894
REMARK  6 active torsions:
REMARK  status: ('A' for Active; 'I' for Inactive)
REMARK    1  A    between atoms: C5_5  and  N1_6 
REMARK    2  A    between atoms: N1_6  and  C6_7 
REMARK    3  A    between atoms: C10_13  and  O1_14 
REMARK    4  A    between atoms: O1_14  and  C11_15 
REMARK    5  A    between atoms: C11_15  and  C12_16 
REMARK    6  A    between atoms: C18_23  and  O2_24 
ROOT
HETATM    1  C6  UNL     1      23.483  -0.189  53.280  1.00  0.00     0.142 A 
HETATM    2  N2  UNL     1      23.951  -0.733  54.444  1.00  0.00    -0.224 NA
HETATM    3  C7  UNL     1      23.102  -1.267  55.316  1.00  0.00     0.236 A 
HETATM    4  N3  UNL     1      21.787  -1.284  55.077  1.00  0.00    -0.241 NA
HETATM    5  C8  UNL     1      21.244  -0.776  53.965  1.00  0.00     0.075 A 
HETATM    6  C9  UNL     1      19.875  -0.863  53.830  1.00  0.00     0.072 A 
HETATM    7  C10 UNL     1      19.346  -0.331  52.648  1.00  0.00     0.104 A 
HETATM    8  C18 UNL     1      20.192   0.230  51.718  1.00  0.00     0.102 A 
HETATM    9  C20 UNL     1      21.550   0.282  51.920  1.00  0.00     0.057 A 
HETATM   10  C21 UNL     1      22.122  -0.222  53.060  1.00  0.00     0.042 A 
ENDROOT
BRANCH   1  11
HETATM   11  N1  UNL     1      24.384   0.370  52.354  1.00  0.00    -0.338 N 
HETATM   12  H6  UNL     1      25.137  -0.318  52.037  1.00  0.00     0.167 HD
BRANCH  11  13
HETATM   13  C5  UNL     1      24.837   1.455  51.583  1.00  0.00     0.072 A 
HETATM   14  C4  UNL     1      23.974   2.283  50.844  1.00  0.00     0.033 A 
HETATM   15  C3  UNL     1      24.562   3.313  50.100  1.00  0.00     0.009 A 
HETATM   16  C2  UNL     1      25.942   3.448  50.140  1.00  0.00    -0.059 A 
HETATM   17  C1  UNL     1      26.517   4.553  49.336  1.00  0.00     0.048 C 
HETATM   18  C23 UNL     1      26.792   2.643  50.861  1.00  0.00     0.051 A 
HETATM   19  C22 UNL     1      26.209   1.633  51.588  1.00  0.00     0.143 A 
HETATM   20  F1  UNL     1      27.048   0.842  52.296  1.00  0.00    -0.204 F 
ENDBRANCH  11  13
ENDBRANCH   1  11
BRANCH   8  21
HETATM   21  O2  UNL     1      19.539   0.718  50.595  1.00  0.00    -0.353 OA
HETATM   22  C19 UNL     1      20.184   1.753  49.862  1.00  0.00     0.210 C 
ENDBRANCH   8  21
BRANCH   7  23
HETATM   23  O1  UNL     1      17.958  -0.426  52.529  1.00  0.00    -0.348 OA
BRANCH  23  24
HETATM   24  C11 UNL     1      17.291  -1.601  52.928  1.00  0.00     0.180 C 
BRANCH  24  25
HETATM   25  C12 UNL     1      15.897  -1.644  52.370  1.00  0.00     0.013 C 
HETATM   26  C13 UNL     1      15.916  -1.136  50.931  1.00  0.00     0.037 C 
HETATM   27  C14 UNL     1      14.784  -1.792  50.162  1.00  0.00     0.272 C 
HETATM   28  N4  UNL     1      13.664  -2.032  51.076  1.00  0.00     0.084 N 
HETATM   29  C15 UNL     1      12.445  -2.249  50.311  1.00  0.00     0.309 C 
HETATM   30  C16 UNL     1      13.989  -3.191  51.902  1.00  0.00     0.272 C 
HETATM   31  C17 UNL     1      15.433  -3.086  52.334  1.00  0.00     0.037 C 
ENDBRANCH  24  25
ENDBRANCH  23  24
ENDBRANCH   7  23
TORSDOF 6
ENDMDL
