MODEL 1
REMARK VINA RESULT:      -8.1      0.000      0.000
REMARK  3 active torsions:
REMARK  status: ('A' for Active; 'I' for Inactive)
REMARK    1  A    between atoms: C7_8  and  N1_9 
REMARK    2  A    between atoms: N1_9  and  C8_10 
REMARK    3  A    between atoms: C16_20  and  O2_21 
ROOT
HETATM    1  C1  UNL     1      29.422  -1.341  53.449  1.00  0.00     0.015 C 
HETATM    2  C2  UNL     1      28.325  -0.879  53.325  1.00  0.00    -0.082 C 
HETATM    3  C3  UNL     1      26.977  -0.336  53.186  1.00  0.00     0.234 C 
HETATM    4  O1  UNL     1      26.241  -0.797  54.298  1.00  0.00    -0.369 OA
HETATM    5  C4  UNL     1      24.840  -0.842  54.279  1.00  0.00     0.110 C 
HETATM    6  C5  UNL     1      23.536  -0.688  54.125  1.00  0.00     0.111 C 
HETATM    7  C6  UNL     1      22.711   0.304  53.419  1.00  0.00     0.009 C 
HETATM    8  C7  UNL     1      22.474   1.396  52.667  1.00  0.00     0.036 C 
HETATM    9  C14 UNL     1      23.464   2.346  52.058  1.00  0.00     0.273 C 
HETATM   10  N2  UNL     1      24.767   2.140  52.247  1.00  0.00    -0.456 NA
HETATM   11  C15 UNL     1      25.861   1.818  52.506  1.00  0.00     0.183 C 
HETATM   12  C16 UNL     1      27.071   1.136  53.015  1.00  0.00     0.213 C 
ENDROOT
BRANCH  12  13
HETATM   13  O2  UNL     1      27.644   1.800  54.100  1.00  0.00    -0.381 OA
HETATM   14  C17 UNL     1      28.757   2.509  53.648  1.00  0.00     0.202 C 
ENDBRANCH  12  13
BRANCH   8  15
HETATM   15  N1  UNL     1      21.147   1.791  52.347  1.00  0.00    -0.358 N 
HETATM   16  H6  UNL     1      21.144   2.837  52.340  1.00  0.00     0.166 HD
BRANCH  15  17
HETATM   17  C8  UNL     1      20.004   0.996  52.078  1.00  0.00     0.034 A 
HETATM   18  C9  UNL     1      19.316   1.303  50.922  1.00  0.00     0.029 A 
HETATM   19  C10 UNL     1      18.188   0.606  50.543  1.00  0.00     0.004 A 
HETATM   20  C11 UNL     1      17.728  -0.435  51.347  1.00  0.00     0.024 A 
HETATM   21  C12 UNL     1      18.437  -0.726  52.507  1.00  0.00     0.036 A 
HETATM   22 CL1  UNL     1      17.903  -2.030  53.559  1.00  0.00    -0.084 Cl
HETATM   23  C13 UNL     1      19.556  -0.034  52.879  1.00  0.00     0.053 A 
ENDBRANCH  15  17
ENDBRANCH   8  15
TORSDOF 3
ENDMDL
MODEL 2
REMARK VINA RESULT:      -7.6      2.870      3.033
REMARK  3 active torsions:
REMARK  status: ('A' for Active; 'I' for Inactive)
REMARK    1  A    between atoms: C7_8  and  N1_9 
REMARK    2  A    between atoms: N1_9  and  C8_10 
REMARK    3  A    between atoms: C16_20  and  O2_21 
ROOT
HETATM    1  C1  UNL     1      29.773  -1.907  53.466  1.00  0.00     0.015 C 
HETATM    2  C2  UNL     1      28.782  -1.262  53.288  1.00  0.00    -0.082 C 
HETATM    3  C3  UNL     1      27.556  -0.496  53.077  1.00  0.00     0.234 C 
HETATM    4  O1  UNL     1      26.594  -1.024  53.962  1.00  0.00    -0.369 OA
HETATM    5  C4  UNL     1      25.221  -0.842  53.743  1.00  0.00     0.110 C 
HETATM    6  C5  UNL     1      23.992  -0.458  53.446  1.00  0.00     0.111 C 
HETATM    7  C6  UNL     1      23.431   0.763  52.846  1.00  0.00     0.009 C 
HETATM    8  C7  UNL     1      23.465   1.995  52.302  1.00  0.00     0.036 C 
HETATM    9  C14 UNL     1      24.656   2.868  52.036  1.00  0.00     0.273 C 
HETATM   10  N2  UNL     1      25.872   2.427  52.358  1.00  0.00    -0.456 NA
HETATM   11  C15 UNL     1      26.858   1.895  52.695  1.00  0.00     0.183 C 
HETATM   12  C16 UNL     1      27.867   0.949  53.218  1.00  0.00     0.213 C 
ENDROOT
BRANCH  12  13
HETATM   13  O2  UNL     1      28.335   1.310  54.482  1.00  0.00    -0.381 OA
HETATM   14  C17 UNL     1      29.446   2.139  54.324  1.00  0.00     0.202 C 
ENDBRANCH  12  13
BRANCH   8  15
HETATM   15  N1  UNL     1      22.271   2.646  51.889  1.00  0.00    -0.358 N 
HETATM   16  H6  UNL     1      21.909   3.157  52.727  1.00  0.00     0.166 HD
BRANCH  15  17
HETATM   17  C8  UNL     1      21.634   2.655  50.622  1.00  0.00     0.034 A 
HETATM   18  C9  UNL     1      21.914   1.582  49.800  1.00  0.00     0.029 A 
HETATM   19  C10 UNL     1      21.360   1.467  48.543  1.00  0.00     0.004 A 
HETATM   20  C11 UNL     1      20.494   2.460  48.087  1.00  0.00     0.024 A 
HETATM   21  C12 UNL     1      20.227   3.532  48.932  1.00  0.00     0.036 A 
HETATM   22 CL1  UNL     1      19.142   4.812  48.409  1.00  0.00    -0.084 Cl
HETATM   23  C13 UNL     1      20.778   3.641  50.179  1.00  0.00     0.053 A 
ENDBRANCH  15  17
ENDBRANCH   8  15
TORSDOF 3
ENDMDL
MODEL 3
REMARK VINA RESULT:      -7.5      3.390      4.063
REMARK  3 active torsions:
REMARK  status: ('A' for Active; 'I' for Inactive)
REMARK    1  A    between atoms: C7_8  and  N1_9 
REMARK    2  A    between atoms: N1_9  and  C8_10 
REMARK    3  A    between atoms: C16_20  and  O2_21 
ROOT
HETATM    1  C1  UNL     1      29.623  -1.940  53.463  1.00  0.00     0.015 C 
HETATM    2  C2  UNL     1      28.651  -1.265  53.286  1.00  0.00    -0.082 C 
HETATM    3  C3  UNL     1      27.450  -0.462  53.077  1.00  0.00     0.234 C 
HETATM    4  O1  UNL     1      26.470  -0.966  53.957  1.00  0.00    -0.369 OA
HETATM    5  C4  UNL     1      25.104  -0.742  53.735  1.00  0.00     0.110 C 
HETATM    6  C5  UNL     1      23.887  -0.319  53.438  1.00  0.00     0.111 C 
HETATM    7  C6  UNL     1      23.364   0.920  52.844  1.00  0.00     0.009 C 
HETATM    8  C7  UNL     1      23.436   2.154  52.307  1.00  0.00     0.036 C 
HETATM    9  C14 UNL     1      24.654   2.993  52.049  1.00  0.00     0.273 C 
HETATM   10  N2  UNL     1      25.855   2.514  52.371  1.00  0.00    -0.456 NA
HETATM   11  C15 UNL     1      26.824   1.951  52.707  1.00  0.00     0.183 C 
HETATM   12  C16 UNL     1      27.804   0.973  53.227  1.00  0.00     0.213 C 
ENDROOT
BRANCH  12  13
HETATM   13  O2  UNL     1      28.278   1.312  54.495  1.00  0.00    -0.381 OA
HETATM   14  C17 UNL     1      29.414   2.109  54.344  1.00  0.00     0.202 C 
ENDBRANCH  12  13
BRANCH   8  15
HETATM   15  N1  UNL     1      22.263   2.843  51.895  1.00  0.00    -0.358 N 
HETATM   16  H6  UNL     1      21.459   2.352  52.349  1.00  0.00     0.166 HD
BRANCH  15  17
HETATM   17  C8  UNL     1      22.125   3.971  51.048  1.00  0.00     0.034 A 
HETATM   18  C9  UNL     1      21.858   5.169  51.679  1.00  0.00     0.029 A 
HETATM   19  C10 UNL     1      21.701   6.343  50.972  1.00  0.00     0.004 A 
HETATM   20  C11 UNL     1      21.814   6.322  49.584  1.00  0.00     0.024 A 
HETATM   21  C12 UNL     1      22.082   5.103  48.969  1.00  0.00     0.036 A 
HETATM   22 CL1  UNL     1      22.235   5.017  47.220  1.00  0.00    -0.084 Cl
HETATM   23  C13 UNL     1      22.238   3.941  49.673  1.00  0.00     0.053 A 
ENDBRANCH  15  17
ENDBRANCH   8  15
TORSDOF 3
ENDMDL
MODEL 4
REMARK VINA RESULT:      -7.4      4.816      7.906
REMARK  3 active torsions:
REMARK  status: ('A' for Active; 'I' for Inactive)
REMARK    1  A    between atoms: C7_8  and  N1_9 
REMARK    2  A    between atoms: N1_9  and  C8_10 
REMARK    3  A    between atoms: C16_20  and  O2_21 
ROOT
HETATM    1  C1  UNL     1      22.726   6.719  46.703  1.00  0.00     0.015 C 
HETATM    2  C2  UNL     1      23.086   6.034  47.615  1.00  0.00    -0.082 C 
HETATM    3  C3  UNL     1      23.549   5.193  48.717  1.00  0.00     0.234 C 
HETATM    4  O1  UNL     1      24.948   5.349  48.781  1.00  0.00    -0.369 OA
HETATM    5  C4  UNL     1      25.762   4.393  49.407  1.00  0.00     0.110 C 
HETATM    6  C5  UNL     1      26.343   3.464  50.146  1.00  0.00     0.111 C 
HETATM    7  C6  UNL     1      25.920   2.703  51.331  1.00  0.00     0.009 C 
HETATM    8  C7  UNL     1      25.084   2.327  52.318  1.00  0.00     0.036 C 
HETATM    9  C14 UNL     1      23.699   2.825  52.613  1.00  0.00     0.273 C 
HETATM   10  N2  UNL     1      23.165   3.764  51.833  1.00  0.00    -0.456 NA
HETATM   11  C15 UNL     1      22.846   4.581  51.058  1.00  0.00     0.183 C 
HETATM   12  C16 UNL     1      22.784   5.546  49.940  1.00  0.00     0.213 C 
ENDROOT
BRANCH  12  13
HETATM   13  O2  UNL     1      22.960   6.865  50.360  1.00  0.00    -0.381 OA
HETATM   14  C17 UNL     1      21.740   7.345  50.836  1.00  0.00     0.202 C 
ENDBRANCH  12  13
BRANCH   8  15
HETATM   15  N1  UNL     1      25.465   1.334  53.262  1.00  0.00    -0.358 N 
HETATM   16  H6  UNL     1      24.868   1.487  54.107  1.00  0.00     0.166 HD
BRANCH  15  17
HETATM   17  C8  UNL     1      26.439   0.310  53.157  1.00  0.00     0.034 A 
HETATM   18  C9  UNL     1      25.973  -0.926  52.759  1.00  0.00     0.029 A 
HETATM   19  C10 UNL     1      26.817  -2.008  52.616  1.00  0.00     0.004 A 
HETATM   20  C11 UNL     1      28.176  -1.852  52.881  1.00  0.00     0.024 A 
HETATM   21  C12 UNL     1      28.623  -0.597  53.280  1.00  0.00     0.036 A 
HETATM   22 CL1  UNL     1      30.327  -0.341  53.627  1.00  0.00    -0.084 Cl
HETATM   23  C13 UNL     1      27.784   0.474  53.420  1.00  0.00     0.053 A 
ENDBRANCH  15  17
ENDBRANCH   8  15
TORSDOF 3
ENDMDL
MODEL 5
REMARK VINA RESULT:      -7.4      4.179      8.052
REMARK  3 active torsions:
REMARK  status: ('A' for Active; 'I' for Inactive)
REMARK    1  A    between atoms: C7_8  and  N1_9 
REMARK    2  A    between atoms: N1_9  and  C8_10 
REMARK    3  A    between atoms: C16_20  and  O2_21 
ROOT
HETATM    1  C1  UNL     1      21.593   3.609  45.839  1.00  0.00     0.015 C 
HETATM    2  C2  UNL     1      22.082   3.290  46.883  1.00  0.00    -0.082 C 
HETATM    3  C3  UNL     1      22.700   2.916  48.153  1.00  0.00     0.234 C 
HETATM    4  O1  UNL     1      23.484   4.015  48.558  1.00  0.00    -0.369 OA
HETATM    5  C4  UNL     1      24.536   3.865  49.474  1.00  0.00     0.110 C 
HETATM    6  C5  UNL     1      25.387   3.554  50.436  1.00  0.00     0.111 C 
HETATM    7  C6  UNL     1      25.350   2.593  51.548  1.00  0.00     0.009 C 
HETATM    8  C7  UNL     1      24.819   1.626  52.323  1.00  0.00     0.036 C 
HETATM    9  C14 UNL     1      23.486   0.950  52.193  1.00  0.00     0.273 C 
HETATM   10  N2  UNL     1      22.668   1.306  51.203  1.00  0.00    -0.456 NA
HETATM   11  C15 UNL     1      22.077   1.730  50.287  1.00  0.00     0.183 C 
HETATM   12  C16 UNL     1      21.634   2.478  49.090  1.00  0.00     0.213 C 
ENDROOT
BRANCH  12  13
HETATM   13  O2  UNL     1      20.701   3.470  49.394  1.00  0.00    -0.381 OA
HETATM   14  C17 UNL     1      19.455   2.866  49.569  1.00  0.00     0.202 C 
ENDBRANCH  12  13
BRANCH   8  15
HETATM   15  N1  UNL     1      25.533   1.106  53.436  1.00  0.00    -0.358 N 
HETATM   16  H6  UNL     1      24.877   1.143  54.250  1.00  0.00     0.166 HD
BRANCH  15  17
HETATM   17  C8  UNL     1      26.861   0.615  53.513  1.00  0.00     0.034 A 
HETATM   18  C9  UNL     1      27.826   1.541  53.851  1.00  0.00     0.029 A 
HETATM   19  C10 UNL     1      29.157   1.195  53.961  1.00  0.00     0.004 A 
HETATM   20  C11 UNL     1      29.539  -0.124  53.724  1.00  0.00     0.024 A 
HETATM   21  C12 UNL     1      28.549  -1.040  53.385  1.00  0.00     0.036 A 
HETATM   22 CL1  UNL     1      28.974  -2.717  53.075  1.00  0.00    -0.084 Cl
HETATM   23  C13 UNL     1      27.230  -0.693  53.277  1.00  0.00     0.053 A 
ENDBRANCH  15  17
ENDBRANCH   8  15
TORSDOF 3
ENDMDL
MODEL 6
REMARK VINA RESULT:      -7.3      5.553      7.245
REMARK  3 active torsions:
REMARK  status: ('A' for Active; 'I' for Inactive)
REMARK    1  A    between atoms: C7_8  and  N1_9 
REMARK    2  A    between atoms: N1_9  and  C8_10 
REMARK    3  A    between atoms: C16_20  and  O2_21 
ROOT
HETATM    1  C1  UNL     1      28.804   8.411  46.097  1.00  0.00     0.015 C 
HETATM    2  C2  UNL     1      28.134   7.806  46.882  1.00  0.00    -0.082 C 
HETATM    3  C3  UNL     1      27.327   7.045  47.832  1.00  0.00     0.234 C 
HETATM    4  O1  UNL     1      28.091   5.918  48.197  1.00  0.00    -0.369 OA
HETATM    5  C4  UNL     1      27.490   4.771  48.734  1.00  0.00     0.110 C 
HETATM    6  C5  UNL     1      26.770   3.843  49.341  1.00  0.00     0.111 C 
HETATM    7  C6  UNL     1      25.591   3.892  50.220  1.00  0.00     0.009 C 
HETATM    8  C7  UNL     1      24.600   4.479  50.918  1.00  0.00     0.036 C 
HETATM    9  C14 UNL     1      24.284   5.941  51.046  1.00  0.00     0.273 C 
HETATM   10  N2  UNL     1      25.046   6.831  50.411  1.00  0.00    -0.456 NA
HETATM   11  C15 UNL     1      25.806   7.473  49.795  1.00  0.00     0.183 C 
HETATM   12  C16 UNL     1      26.909   7.950  48.933  1.00  0.00     0.213 C 
ENDROOT
BRANCH  12  13
HETATM   13  O2  UNL     1      27.970   8.481  49.667  1.00  0.00    -0.381 OA
HETATM   14  C17 UNL     1      27.846   9.871  49.682  1.00  0.00     0.202 C 
ENDBRANCH  12  13
BRANCH   8  15
HETATM   15  N1  UNL     1      23.673   3.704  51.667  1.00  0.00    -0.358 N 
HETATM   16  H6  UNL     1      22.780   4.249  51.685  1.00  0.00     0.166 HD
BRANCH  15  17
HETATM   17  C8  UNL     1      23.843   2.444  52.294  1.00  0.00     0.034 A 
HETATM   18  C9  UNL     1      22.816   1.540  52.115  1.00  0.00     0.029 A 
HETATM   19  C10 UNL     1      22.856   0.278  52.670  1.00  0.00     0.004 A 
HETATM   20  C11 UNL     1      23.961  -0.097  53.432  1.00  0.00     0.024 A 
HETATM   21  C12 UNL     1      24.984   0.831  53.598  1.00  0.00     0.036 A 
HETATM   22 CL1  UNL     1      26.402   0.412  54.548  1.00  0.00    -0.084 Cl
HETATM   23  C13 UNL     1      24.941   2.081  53.045  1.00  0.00     0.053 A 
ENDBRANCH  15  17
ENDBRANCH   8  15
TORSDOF 3
ENDMDL
MODEL 7
REMARK VINA RESULT:      -7.3      4.804      7.441
REMARK  3 active torsions:
REMARK  status: ('A' for Active; 'I' for Inactive)
REMARK    1  A    between atoms: C7_8  and  N1_9 
REMARK    2  A    between atoms: N1_9  and  C8_10 
REMARK    3  A    between atoms: C16_20  and  O2_21 
ROOT
HETATM    1  C1  UNL     1      21.137  -1.974  54.472  1.00  0.00     0.015 C 
HETATM    2  C2  UNL     1      21.484  -0.889  54.106  1.00  0.00    -0.082 C 
HETATM    3  C3  UNL     1      21.932   0.429  53.665  1.00  0.00     0.234 C 
HETATM    4  O1  UNL     1      23.243   0.265  53.172  1.00  0.00    -0.369 OA
HETATM    5  C4  UNL     1      24.128   1.347  53.073  1.00  0.00     0.110 C 
HETATM    6  C5  UNL     1      24.766   2.496  52.931  1.00  0.00     0.111 C 
HETATM    7  C6  UNL     1      24.329   3.862  52.601  1.00  0.00     0.009 C 
HETATM    8  C7  UNL     1      23.445   4.830  52.291  1.00  0.00     0.036 C 
HETATM    9  C14 UNL     1      21.959   4.719  52.113  1.00  0.00     0.273 C 
HETATM   10  N2  UNL     1      21.371   3.533  52.269  1.00  0.00    -0.456 NA
HETATM   11  C15 UNL     1      21.016   2.432  52.441  1.00  0.00     0.183 C 
HETATM   12  C16 UNL     1      20.930   0.982  52.718  1.00  0.00     0.213 C 
ENDROOT
BRANCH  12  13
HETATM   13  O2  UNL     1      20.765   0.223  51.559  1.00  0.00    -0.381 OA
HETATM   14  C17 UNL     1      19.474   0.434  51.073  1.00  0.00     0.202 C 
ENDBRANCH  12  13
BRANCH   8  15
HETATM   15  N1  UNL     1      23.871   6.170  52.082  1.00  0.00    -0.358 N 
HETATM   16  H6  UNL     1      23.755   6.661  52.998  1.00  0.00     0.166 HD
BRANCH  15  17
HETATM   17  C8  UNL     1      24.364   6.793  50.908  1.00  0.00     0.034 A 
HETATM   18  C9  UNL     1      23.682   7.917  50.490  1.00  0.00     0.029 A 
HETATM   19  C10 UNL     1      24.058   8.618  49.364  1.00  0.00     0.004 A 
HETATM   20  C11 UNL     1      25.157   8.181  48.626  1.00  0.00     0.024 A 
HETATM   21  C12 UNL     1      25.829   7.046  49.065  1.00  0.00     0.036 A 
HETATM   22 CL1  UNL     1      27.222   6.449  48.174  1.00  0.00    -0.084 Cl
HETATM   23  C13 UNL     1      25.453   6.354  50.184  1.00  0.00     0.053 A 
ENDBRANCH  15  17
ENDBRANCH   8  15
TORSDOF 3
ENDMDL
MODEL 8
REMARK VINA RESULT:      -7.3      5.484      8.207
REMARK  3 active torsions:
REMARK  status: ('A' for Active; 'I' for Inactive)
REMARK    1  A    between atoms: C7_8  and  N1_9 
REMARK    2  A    between atoms: N1_9  and  C8_10 
REMARK    3  A    between atoms: C16_20  and  O2_21 
ROOT
HETATM    1  C1  UNL     1      23.276  -0.891  54.247  1.00  0.00     0.015 C 
HETATM    2  C2  UNL     1      23.697  -0.029  53.532  1.00  0.00    -0.082 C 
HETATM    3  C3  UNL     1      24.188   1.036  52.663  1.00  0.00     0.234 C 
HETATM    4  O1  UNL     1      23.599   2.232  53.119  1.00  0.00    -0.369 OA
HETATM    5  C4  UNL     1      23.493   3.358  52.290  1.00  0.00     0.110 C 
HETATM    6  C5  UNL     1      23.601   4.344  51.416  1.00  0.00     0.111 C 
HETATM    7  C6  UNL     1      24.613   4.696  50.409  1.00  0.00     0.009 C 
HETATM    8  C7  UNL     1      25.756   4.553  49.709  1.00  0.00     0.036 C 
HETATM    9  C14 UNL     1      26.799   3.481  49.831  1.00  0.00     0.273 C 
HETATM   10  N2  UNL     1      26.636   2.511  50.731  1.00  0.00    -0.456 NA
HETATM   11  C15 UNL     1      26.342   1.741  51.561  1.00  0.00     0.183 C 
HETATM   12  C16 UNL     1      25.672   0.990  52.645  1.00  0.00     0.213 C 
ENDROOT
BRANCH  12  13
HETATM   13  O2  UNL     1      26.263   1.206  53.891  1.00  0.00    -0.381 OA
HETATM   14  C17 UNL     1      27.323   0.310  54.040  1.00  0.00     0.202 C 
ENDBRANCH  12  13
BRANCH   8  15
HETATM   15  N1  UNL     1      26.117   5.484  48.698  1.00  0.00    -0.358 N 
HETATM   16  H6  UNL     1      25.413   5.375  47.932  1.00  0.00     0.166 HD
BRANCH  15  17
HETATM   17  C8  UNL     1      27.193   6.406  48.657  1.00  0.00     0.034 A 
HETATM   18  C9  UNL     1      28.398   5.907  48.207  1.00  0.00     0.029 A 
HETATM   19  C10 UNL     1      29.523   6.698  48.117  1.00  0.00     0.004 A 
HETATM   20  C11 UNL     1      29.445   8.038  48.492  1.00  0.00     0.024 A 
HETATM   21  C12 UNL     1      28.221   8.520  48.943  1.00  0.00     0.036 A 
HETATM   22 CL1  UNL     1      28.064  10.202  49.428  1.00  0.00    -0.084 Cl
HETATM   23  C13 UNL     1      27.106   7.732  49.029  1.00  0.00     0.053 A 
ENDBRANCH  15  17
ENDBRANCH   8  15
TORSDOF 3
ENDMDL
MODEL 9
REMARK VINA RESULT:      -7.2      4.088      8.044
REMARK  3 active torsions:
REMARK  status: ('A' for Active; 'I' for Inactive)
REMARK    1  A    between atoms: C7_8  and  N1_9 
REMARK    2  A    between atoms: N1_9  and  C8_10 
REMARK    3  A    between atoms: C16_20  and  O2_21 
ROOT
HETATM    1  C1  UNL     1      18.435   4.999  49.623  1.00  0.00     0.015 C 
HETATM    2  C2  UNL     1      19.562   4.685  49.874  1.00  0.00    -0.082 C 
HETATM    3  C3  UNL     1      20.929   4.291  50.202  1.00  0.00     0.234 C 
HETATM    4  O1  UNL     1      20.834   3.130  50.997  1.00  0.00    -0.369 OA
HETATM    5  C4  UNL     1      21.883   2.731  51.837  1.00  0.00     0.110 C 
HETATM    6  C5  UNL     1      23.014   2.446  52.459  1.00  0.00     0.111 C 
HETATM    7  C6  UNL     1      24.432   2.646  52.121  1.00  0.00     0.009 C 
HETATM    8  C7  UNL     1      25.473   3.047  51.365  1.00  0.00     0.036 C 
HETATM    9  C14 UNL     1      25.451   3.716  50.023  1.00  0.00     0.273 C 
HETATM   10  N2  UNL     1      24.280   3.978  49.444  1.00  0.00    -0.456 NA
HETATM   11  C15 UNL     1      23.179   4.137  49.079  1.00  0.00     0.183 C 
HETATM   12  C16 UNL     1      21.707   4.173  48.943  1.00  0.00     0.213 C 
ENDROOT
BRANCH  12  13
HETATM   13  O2  UNL     1      21.226   3.200  48.066  1.00  0.00    -0.381 OA
HETATM   14  C17 UNL     1      21.801   3.410  46.812  1.00  0.00     0.202 C 
ENDBRANCH  12  13
BRANCH   8  15
HETATM   15  N1  UNL     1      26.812   2.858  51.804  1.00  0.00    -0.358 N 
HETATM   16  H6  UNL     1      27.336   3.721  51.528  1.00  0.00     0.166 HD
BRANCH  15  17
HETATM   17  C8  UNL     1      27.397   1.760  52.483  1.00  0.00     0.034 A 
HETATM   18  C9  UNL     1      28.360   2.076  53.420  1.00  0.00     0.029 A 
HETATM   19  C10 UNL     1      29.007   1.102  54.151  1.00  0.00     0.004 A 
HETATM   20  C11 UNL     1      28.683  -0.237  53.940  1.00  0.00     0.024 A 
HETATM   21  C12 UNL     1      27.710  -0.531  52.991  1.00  0.00     0.036 A 
HETATM   22 CL1  UNL     1      27.260  -2.202  52.683  1.00  0.00    -0.084 Cl
HETATM   23  C13 UNL     1      27.070   0.438  52.268  1.00  0.00     0.053 A 
ENDBRANCH  15  17
ENDBRANCH   8  15
TORSDOF 3
ENDMDL
