MODEL 1
REMARK VINA RESULT:      -8.5      0.000      0.000
REMARK  1 active torsions:
REMARK  status: ('A' for Active; 'I' for Inactive)
REMARK    1  A    between atoms: C9_12  and  N3_13 
ROOT
HETATM    1  C1  UNL     1      23.034   2.515  48.387  1.00  0.00     0.013 C 
HETATM    2  C2  UNL     1      22.447   3.460  49.379  1.00  0.00     0.021 C 
HETATM    3  C3  UNL     1      23.437   4.217  50.197  1.00  0.00     0.180 C 
HETATM    4  O1  UNL     1      24.267   3.296  50.914  1.00  0.00    -0.363 OA
HETATM    5  C4  UNL     1      23.766   3.046  52.212  1.00  0.00     0.135 C 
HETATM    6  C5  UNL     1      23.523   1.755  52.336  1.00  0.00     0.041 C 
HETATM    7  C6  UNL     1      23.044   0.632  53.176  1.00  0.00     0.038 A 
HETATM    8  C7  UNL     1      21.642   0.517  53.034  1.00  0.00     0.072 A 
HETATM    9  N1  UNL     1      21.096  -0.463  53.804  1.00  0.00    -0.244 NA
HETATM   10  C8  UNL     1      21.883  -1.221  54.608  1.00  0.00     0.235 A 
HETATM   11  N2  UNL     1      23.237  -1.115  54.748  1.00  0.00    -0.223 NA
HETATM   12  C9  UNL     1      23.817  -0.141  53.988  1.00  0.00     0.143 A 
HETATM   13  C15 UNL     1      20.884   1.406  52.093  1.00  0.00     0.164 C 
HETATM   14  C16 UNL     1      20.072   0.551  51.146  1.00  0.00     0.222 C 
HETATM   15  O2  UNL     1      21.193   0.540  50.287  1.00  0.00    -0.301 OA
HETATM   16  N4  UNL     1      21.658   1.658  50.895  1.00  0.00    -0.184 NA
HETATM   17  C17 UNL     1      21.322   2.823  50.170  1.00  0.00     0.128 C 
ENDROOT
BRANCH  12  18
HETATM   18  N3  UNL     1      25.180   0.219  53.877  1.00  0.00    -0.336 N 
HETATM   19  C10 UNL     1      25.823  -1.018  53.468  1.00  0.00     0.120 A 
HETATM   20  C11 UNL     1      27.131  -1.196  53.181  1.00  0.00     0.087 A 
HETATM   21 CL1  UNL     1      27.981  -2.662  52.678  1.00  0.00    -0.080 Cl
HETATM   22  C12 UNL     1      28.044  -0.057  53.297  1.00  0.00     0.137 A 
HETATM   23  F1  UNL     1      29.370  -0.025  53.058  1.00  0.00    -0.205 F 
HETATM   24  C13 UNL     1      27.441   1.053  53.691  1.00  0.00     0.037 A 
HETATM   25  C14 UNL     1      26.034   1.375  54.035  1.00  0.00     0.160 A 
ENDBRANCH  12  18
TORSDOF 1
ENDMDL
MODEL 2
REMARK VINA RESULT:      -8.0      4.035      6.042
REMARK  1 active torsions:
REMARK  status: ('A' for Active; 'I' for Inactive)
REMARK    1  A    between atoms: C9_12  and  N3_13 
ROOT
HETATM    1  C1  UNL     1      22.249   4.303  50.511  1.00  0.00     0.013 C 
HETATM    2  C2  UNL     1      22.903   3.174  49.788  1.00  0.00     0.021 C 
HETATM    3  C3  UNL     1      21.975   2.274  49.045  1.00  0.00     0.180 C 
HETATM    4  O1  UNL     1      21.025   1.712  49.958  1.00  0.00    -0.363 OA
HETATM    5  C4  UNL     1      21.451   0.455  50.443  1.00  0.00     0.135 C 
HETATM    6  C5  UNL     1      21.545   0.513  51.758  1.00  0.00     0.041 C 
HETATM    7  C6  UNL     1      21.870  -0.166  53.035  1.00  0.00     0.038 A 
HETATM    8  C7  UNL     1      23.255  -0.035  53.287  1.00  0.00     0.072 A 
HETATM    9  N1  UNL     1      23.663  -0.666  54.421  1.00  0.00    -0.244 NA
HETATM   10  C8  UNL     1      22.770  -1.339  55.190  1.00  0.00     0.235 A 
HETATM   11  N2  UNL     1      21.432  -1.468  54.952  1.00  0.00    -0.223 NA
HETATM   12  C9  UNL     1      20.989  -0.845  53.820  1.00  0.00     0.143 A 
HETATM   13  C15 UNL     1      24.137   0.755  52.366  1.00  0.00     0.164 C 
HETATM   14  C16 UNL     1      24.882   1.800  53.168  1.00  0.00     0.222 C 
HETATM   15  O2  UNL     1      23.797   2.672  52.930  1.00  0.00    -0.301 OA
HETATM   16  N4  UNL     1      23.437   1.919  51.862  1.00  0.00    -0.184 NA
HETATM   17  C17 UNL     1      23.923   2.463  50.653  1.00  0.00     0.128 C 
ENDROOT
BRANCH  12  18
HETATM   18  N3  UNL     1      19.678  -0.762  53.296  1.00  0.00    -0.336 N 
HETATM   19  C10 UNL     1      19.086  -2.037  53.666  1.00  0.00     0.120 A 
HETATM   20  C11 UNL     1      17.818  -2.439  53.435  1.00  0.00     0.087 A 
HETATM   21 CL1  UNL     1      17.030  -3.964  53.855  1.00  0.00    -0.080 Cl
HETATM   22  C12 UNL     1      16.907  -1.541  52.723  1.00  0.00     0.137 A 
HETATM   23  F1  UNL     1      15.616  -1.750  52.398  1.00  0.00    -0.205 F 
HETATM   24  C13 UNL     1      17.472  -0.396  52.377  1.00  0.00     0.037 A 
HETATM   25  C14 UNL     1      18.836   0.159  52.566  1.00  0.00     0.160 A 
ENDBRANCH  12  18
TORSDOF 1
ENDMDL
MODEL 3
REMARK VINA RESULT:      -7.8      3.329      5.645
REMARK  1 active torsions:
REMARK  status: ('A' for Active; 'I' for Inactive)
REMARK    1  A    between atoms: C9_12  and  N3_13 
ROOT
HETATM    1  C1  UNL     1      26.449   0.242  54.958  1.00  0.00     0.013 C 
HETATM    2  C2  UNL     1      26.322  -0.454  53.645  1.00  0.00     0.021 C 
HETATM    3  C3  UNL     1      26.759   0.341  52.462  1.00  0.00     0.180 C 
HETATM    4  O1  UNL     1      25.994   1.549  52.389  1.00  0.00    -0.363 OA
HETATM    5  C4  UNL     1      24.864   1.398  51.552  1.00  0.00     0.135 C 
HETATM    6  C5  UNL     1      23.775   1.642  52.256  1.00  0.00     0.041 C 
HETATM    7  C6  UNL     1      22.296   1.734  52.310  1.00  0.00     0.038 A 
HETATM    8  C7  UNL     1      21.767   0.455  52.601  1.00  0.00     0.072 A 
HETATM    9  N1  UNL     1      20.407   0.424  52.629  1.00  0.00    -0.244 NA
HETATM   10  C8  UNL     1      19.691   1.552  52.391  1.00  0.00     0.235 A 
HETATM   11  N2  UNL     1      20.197   2.789  52.111  1.00  0.00    -0.223 NA
HETATM   12  C9  UNL     1      21.560   2.855  52.076  1.00  0.00     0.143 A 
HETATM   13  C15 UNL     1      22.668  -0.714  52.866  1.00  0.00     0.164 C 
HETATM   14  C16 UNL     1      22.303  -1.332  54.197  1.00  0.00     0.222 C 
HETATM   15  O2  UNL     1      23.223  -0.444  54.796  1.00  0.00    -0.301 OA
HETATM   16  N4  UNL     1      23.844  -0.295  53.601  1.00  0.00    -0.184 NA
HETATM   17  C17 UNL     1      24.976  -1.133  53.494  1.00  0.00     0.128 C 
ENDROOT
BRANCH  12  18
HETATM   18  N3  UNL     1      22.399   3.968  51.839  1.00  0.00    -0.336 N 
HETATM   19  C10 UNL     1      22.392   4.093  50.391  1.00  0.00     0.120 A 
HETATM   20  C11 UNL     1      23.012   5.042  49.656  1.00  0.00     0.087 A 
HETATM   21 CL1  UNL     1      23.048   5.258  47.902  1.00  0.00    -0.080 Cl
HETATM   22  C12 UNL     1      23.802   6.066  50.341  1.00  0.00     0.137 A 
HETATM   23  F1  UNL     1      24.489   7.091  49.797  1.00  0.00    -0.205 F 
HETATM   24  C13 UNL     1      23.811   5.922  51.656  1.00  0.00     0.037 A 
HETATM   25  C14 UNL     1      23.185   4.936  52.571  1.00  0.00     0.160 A 
ENDBRANCH  12  18
TORSDOF 1
ENDMDL
MODEL 4
REMARK VINA RESULT:      -7.4      3.916      6.023
REMARK  1 active torsions:
REMARK  status: ('A' for Active; 'I' for Inactive)
REMARK    1  A    between atoms: C9_12  and  N3_13 
ROOT
HETATM    1  C1  UNL     1      24.982   4.802  50.928  1.00  0.00     0.013 C 
HETATM    2  C2  UNL     1      25.199   3.561  50.129  1.00  0.00     0.021 C 
HETATM    3  C3  UNL     1      24.116   3.236  49.158  1.00  0.00     0.180 C 
HETATM    4  O1  UNL     1      22.875   3.090  49.858  1.00  0.00    -0.363 OA
HETATM    5  C4  UNL     1      22.627   1.741  50.200  1.00  0.00     0.135 C 
HETATM    6  C5  UNL     1      22.509   1.646  51.511  1.00  0.00     0.041 C 
HETATM    7  C6  UNL     1      22.285   0.795  52.704  1.00  0.00     0.038 A 
HETATM    8  C7  UNL     1      23.525   0.270  53.135  1.00  0.00     0.072 A 
HETATM    9  N1  UNL     1      23.419  -0.565  54.204  1.00  0.00    -0.244 NA
HETATM   10  C8  UNL     1      22.206  -0.823  54.754  1.00  0.00     0.235 A 
HETATM   11  N2  UNL     1      21.006  -0.319  54.342  1.00  0.00    -0.223 NA
HETATM   12  C9  UNL     1      21.077   0.524  53.271  1.00  0.00     0.143 A 
HETATM   13  C15 UNL     1      24.805   0.650  52.452  1.00  0.00     0.164 C 
HETATM   14  C16 UNL     1      25.778   1.182  53.481  1.00  0.00     0.222 C 
HETATM   15  O2  UNL     1      25.234   2.464  53.247  1.00  0.00    -0.301 OA
HETATM   16  N4  UNL     1      24.773   2.040  52.045  1.00  0.00    -0.184 NA
HETATM   17  C17 UNL     1      25.647   2.402  50.996  1.00  0.00     0.128 C 
ENDROOT
BRANCH  12  18
HETATM   18  N3  UNL     1      20.042   1.228  52.612  1.00  0.00    -0.336 N 
HETATM   19  C10 UNL     1      19.124   0.176  52.207  1.00  0.00     0.120 A 
HETATM   20  C11 UNL     1      17.940   0.331  51.576  1.00  0.00     0.087 A 
HETATM   21 CL1  UNL     1      16.776  -0.893  51.056  1.00  0.00    -0.080 Cl
HETATM   22  C12 UNL     1      17.496   1.681  51.223  1.00  0.00     0.137 A 
HETATM   23  F1  UNL     1      16.359   2.047  50.599  1.00  0.00    -0.205 F 
HETATM   24  C13 UNL     1      18.356   2.620  51.582  1.00  0.00     0.037 A 
HETATM   25  C14 UNL     1      19.671   2.582  52.267  1.00  0.00     0.160 A 
ENDBRANCH  12  18
TORSDOF 1
ENDMDL
MODEL 5
REMARK VINA RESULT:      -7.4      8.809     10.522
REMARK  1 active torsions:
REMARK  status: ('A' for Active; 'I' for Inactive)
REMARK    1  A    between atoms: C9_12  and  N3_13 
ROOT
HETATM    1  C1  UNL     1      30.238  11.706  46.196  1.00  0.00     0.013 C 
HETATM    2  C2  UNL     1      29.843  11.882  47.623  1.00  0.00     0.021 C 
HETATM    3  C3  UNL     1      30.911  11.581  48.618  1.00  0.00     0.180 C 
HETATM    4  O1  UNL     1      31.349  10.227  48.453  1.00  0.00    -0.363 OA
HETATM    5  C4  UNL     1      30.652   9.347  49.312  1.00  0.00     0.135 C 
HETATM    6  C5  UNL     1      30.032   8.439  48.583  1.00  0.00     0.041 C 
HETATM    7  C6  UNL     1      29.153   7.247  48.524  1.00  0.00     0.038 A 
HETATM    8  C7  UNL     1      27.804   7.670  48.501  1.00  0.00     0.072 A 
HETATM    9  N1  UNL     1      26.912   6.643  48.492  1.00  0.00    -0.244 NA
HETATM   10  C8  UNL     1      27.347   5.358  48.504  1.00  0.00     0.235 A 
HETATM   11  N2  UNL     1      28.648   4.944  48.525  1.00  0.00    -0.223 NA
HETATM   12  C9  UNL     1      29.570   5.951  48.534  1.00  0.00     0.143 A 
HETATM   13  C15 UNL     1      27.451   9.128  48.470  1.00  0.00     0.164 C 
HETATM   14  C16 UNL     1      26.538   9.393  47.293  1.00  0.00     0.222 C 
HETATM   15  O2  UNL     1      27.697   9.623  46.521  1.00  0.00    -0.301 OA
HETATM   16  N4  UNL     1      28.396   9.864  47.656  1.00  0.00    -0.184 NA
HETATM   17  C17 UNL     1      28.499  11.248  47.919  1.00  0.00     0.128 C 
ENDROOT
BRANCH  12  18
HETATM   18  N3  UNL     1      30.982   5.875  48.535  1.00  0.00    -0.336 N 
HETATM   19  C10 UNL     1      31.292   5.359  47.212  1.00  0.00     0.120 A 
HETATM   20  C11 UNL     1      32.521   5.146  46.693  1.00  0.00     0.087 A 
HETATM   21 CL1  UNL     1      32.975   4.525  45.102  1.00  0.00    -0.080 Cl
HETATM   22  C12 UNL     1      33.698   5.432  47.515  1.00  0.00     0.137 A 
HETATM   23  F1  UNL     1      34.998   5.291  47.187  1.00  0.00    -0.205 F 
HETATM   24  C13 UNL     1      33.392   5.881  48.721  1.00  0.00     0.037 A 
HETATM   25  C14 UNL     1      32.103   6.153  49.405  1.00  0.00     0.160 A 
ENDBRANCH  12  18
TORSDOF 1
ENDMDL
MODEL 6
REMARK VINA RESULT:      -7.3      3.718      5.962
REMARK  1 active torsions:
REMARK  status: ('A' for Active; 'I' for Inactive)
REMARK    1  A    between atoms: C9_12  and  N3_13 
ROOT
HETATM    1  C1  UNL     1      27.456   2.486  53.559  1.00  0.00     0.013 C 
HETATM    2  C2  UNL     1      27.307   1.494  52.456  1.00  0.00     0.021 C 
HETATM    3  C3  UNL     1      26.829   2.056  51.160  1.00  0.00     0.180 C 
HETATM    4  O1  UNL     1      25.556   2.685  51.353  1.00  0.00    -0.363 OA
HETATM    5  C4  UNL     1      24.491   1.799  51.073  1.00  0.00     0.135 C 
HETATM    6  C5  UNL     1      23.745   1.671  52.154  1.00  0.00     0.041 C 
HETATM    7  C6  UNL     1      22.569   1.058  52.815  1.00  0.00     0.038 A 
HETATM    8  C7  UNL     1      22.947  -0.189  53.363  1.00  0.00     0.072 A 
HETATM    9  N1  UNL     1      21.920  -0.855  53.957  1.00  0.00    -0.244 NA
HETATM   10  C8  UNL     1      20.677  -0.314  53.985  1.00  0.00     0.235 A 
HETATM   11  N2  UNL     1      20.306   0.890  53.458  1.00  0.00    -0.223 NA
HETATM   12  C9  UNL     1      21.314   1.586  52.854  1.00  0.00     0.143 A 
HETATM   13  C15 UNL     1      24.366  -0.670  53.285  1.00  0.00     0.164 C 
HETATM   14  C16 UNL     1      24.852  -1.010  54.677  1.00  0.00     0.222 C 
HETATM   15  O2  UNL     1      25.278   0.332  54.792  1.00  0.00    -0.301 OA
HETATM   16  N4  UNL     1      25.288   0.436  53.441  1.00  0.00    -0.184 NA
HETATM   17  C17 UNL     1      26.585   0.244  52.914  1.00  0.00     0.128 C 
ENDROOT
BRANCH  12  18
HETATM   18  N3  UNL     1      21.282   2.856  52.234  1.00  0.00    -0.336 N 
HETATM   19  C10 UNL     1      20.456   2.636  51.059  1.00  0.00     0.120 A 
HETATM   20  C11 UNL     1      20.078   3.560  50.148  1.00  0.00     0.087 A 
HETATM   21 CL1  UNL     1      19.080   3.370  48.703  1.00  0.00    -0.080 Cl
HETATM   22  C12 UNL     1      20.539   4.941  50.306  1.00  0.00     0.137 A 
HETATM   23  F1  UNL     1      20.277   6.002  49.518  1.00  0.00    -0.205 F 
HETATM   24  C13 UNL     1      21.306   5.114  51.371  1.00  0.00     0.037 A 
HETATM   25  C14 UNL     1      21.790   4.195  52.431  1.00  0.00     0.160 A 
ENDBRANCH  12  18
TORSDOF 1
ENDMDL
MODEL 7
REMARK VINA RESULT:      -7.3      3.487      5.555
REMARK  1 active torsions:
REMARK  status: ('A' for Active; 'I' for Inactive)
REMARK    1  A    between atoms: C9_12  and  N3_13 
ROOT
HETATM    1  C1  UNL     1      19.050   0.264  50.856  1.00  0.00     0.013 C 
HETATM    2  C2  UNL     1      19.142   1.017  52.140  1.00  0.00     0.021 C 
HETATM    3  C3  UNL     1      19.129   2.502  52.005  1.00  0.00     0.180 C 
HETATM    4  O1  UNL     1      20.225   2.915  51.180  1.00  0.00    -0.363 OA
HETATM    5  C4  UNL     1      21.361   3.248  51.953  1.00  0.00     0.135 C 
HETATM    6  C5  UNL     1      22.366   2.473  51.593  1.00  0.00     0.041 C 
HETATM    7  C6  UNL     1      23.781   2.071  51.770  1.00  0.00     0.038 A 
HETATM    8  C7  UNL     1      23.858   1.092  52.787  1.00  0.00     0.072 A 
HETATM    9  N1  UNL     1      25.128   0.688  53.058  1.00  0.00    -0.244 NA
HETATM   10  C8  UNL     1      26.175   1.216  52.375  1.00  0.00     0.235 A 
HETATM   11  N2  UNL     1      26.107   2.160  51.392  1.00  0.00    -0.223 NA
HETATM   12  C9  UNL     1      24.845   2.588  51.095  1.00  0.00     0.143 A 
HETATM   13  C15 UNL     1      22.620   0.571  53.455  1.00  0.00     0.164 C 
HETATM   14  C16 UNL     1      22.596  -0.938  53.352  1.00  0.00     0.222 C 
HETATM   15  O2  UNL     1      21.912  -0.785  52.127  1.00  0.00    -0.301 OA
HETATM   16  N4  UNL     1      21.534   0.461  52.502  1.00  0.00    -0.184 NA
HETATM   17  C17 UNL     1      20.229   0.468  53.041  1.00  0.00     0.128 C 
ENDROOT
BRANCH  12  18
HETATM   18  N3  UNL     1      24.420   3.529  50.129  1.00  0.00    -0.336 N 
HETATM   19  C10 UNL     1      25.085   4.755  50.537  1.00  0.00     0.120 A 
HETATM   20  C11 UNL     1      25.040   5.949  49.907  1.00  0.00     0.087 A 
HETATM   21 CL1  UNL     1      25.820   7.475  50.340  1.00  0.00    -0.080 Cl
HETATM   22  C12 UNL     1      24.236   6.081  48.691  1.00  0.00     0.137 A 
HETATM   23  F1  UNL     1      24.063   7.173  47.921  1.00  0.00    -0.205 F 
HETATM   24  C13 UNL     1      23.623   4.959  48.350  1.00  0.00     0.037 A 
HETATM   25  C14 UNL     1      23.588   3.601  48.948  1.00  0.00     0.160 A 
ENDBRANCH  12  18
TORSDOF 1
ENDMDL
MODEL 8
REMARK VINA RESULT:      -7.3      4.197      7.006
REMARK  1 active torsions:
REMARK  status: ('A' for Active; 'I' for Inactive)
REMARK    1  A    between atoms: C9_12  and  N3_13 
ROOT
HETATM    1  C1  UNL     1      26.805  -0.005  51.898  1.00  0.00     0.013 C 
HETATM    2  C2  UNL     1      26.664   1.216  52.742  1.00  0.00     0.021 C 
HETATM    3  C3  UNL     1      25.499   1.215  53.671  1.00  0.00     0.180 C 
HETATM    4  O1  UNL     1      24.289   1.066  52.918  1.00  0.00    -0.363 OA
HETATM    5  C4  UNL     1      23.715   2.319  52.605  1.00  0.00     0.135 C 
HETATM    6  C5  UNL     1      23.626   2.432  51.293  1.00  0.00     0.041 C 
HETATM    7  C6  UNL     1      23.234   3.244  50.116  1.00  0.00     0.038 A 
HETATM    8  C7  UNL     1      24.312   4.085  49.758  1.00  0.00     0.072 A 
HETATM    9  N1  UNL     1      24.035   4.907  48.710  1.00  0.00    -0.244 NA
HETATM   10  C8  UNL     1      22.818   4.868  48.112  1.00  0.00     0.235 A 
HETATM   11  N2  UNL     1      21.774   4.057  48.453  1.00  0.00    -0.223 NA
HETATM   12  C9  UNL     1      22.019   3.218  49.502  1.00  0.00     0.143 A 
HETATM   13  C15 UNL     1      25.621   4.019  50.488  1.00  0.00     0.164 C 
HETATM   14  C16 UNL     1      26.736   3.796  49.490  1.00  0.00     0.222 C 
HETATM   15  O2  UNL     1      26.532   2.409  49.662  1.00  0.00    -0.301 OA
HETATM   16  N4  UNL     1      25.933   2.653  50.853  1.00  0.00    -0.184 NA
HETATM   17  C17 UNL     1      26.831   2.485  51.930  1.00  0.00     0.128 C 
ENDROOT
BRANCH  12  18
HETATM   18  N3  UNL     1      21.176   2.248  50.091  1.00  0.00    -0.336 N 
HETATM   19  C10 UNL     1      20.039   3.025  50.554  1.00  0.00     0.120 A 
HETATM   20  C11 UNL     1      18.924   2.554  51.153  1.00  0.00     0.087 A 
HETATM   21 CL1  UNL     1      17.507   3.432  51.738  1.00  0.00    -0.080 Cl
HETATM   22  C12 UNL     1      18.807   1.116  51.402  1.00  0.00     0.137 A 
HETATM   23  F1  UNL     1      17.786   0.451  51.978  1.00  0.00    -0.205 F 
HETATM   24  C13 UNL     1      19.861   0.430  50.991  1.00  0.00     0.037 A 
HETATM   25  C14 UNL     1      21.132   0.823  50.333  1.00  0.00     0.160 A 
ENDBRANCH  12  18
TORSDOF 1
ENDMDL
MODEL 9
REMARK VINA RESULT:      -7.2      3.942      6.744
REMARK  1 active torsions:
REMARK  status: ('A' for Active; 'I' for Inactive)
REMARK    1  A    between atoms: C9_12  and  N3_13 
ROOT
HETATM    1  C1  UNL     1      21.931  -2.008  53.520  1.00  0.00     0.013 C 
HETATM    2  C2  UNL     1      22.078  -0.893  54.500  1.00  0.00     0.021 C 
HETATM    3  C3  UNL     1      21.078   0.204  54.366  1.00  0.00     0.180 C 
HETATM    4  O1  UNL     1      21.162   0.768  53.052  1.00  0.00    -0.363 OA
HETATM    5  C4  UNL     1      22.021   1.890  53.022  1.00  0.00     0.135 C 
HETATM    6  C5  UNL     1      22.997   1.659  52.165  1.00  0.00     0.041 C 
HETATM    7  C6  UNL     1      24.238   2.127  51.503  1.00  0.00     0.038 A 
HETATM    8  C7  UNL     1      25.347   1.787  52.311  1.00  0.00     0.072 A 
HETATM    9  N1  UNL     1      26.537   2.215  51.808  1.00  0.00    -0.244 NA
HETATM   10  C8  UNL     1      26.580   2.898  50.636  1.00  0.00     0.235 A 
HETATM   11  N2  UNL     1      25.512   3.228  49.852  1.00  0.00    -0.223 NA
HETATM   12  C9  UNL     1      24.302   2.812  50.328  1.00  0.00     0.143 A 
HETATM   13  C15 UNL     1      25.170   1.008  53.580  1.00  0.00     0.164 C 
HETATM   14  C16 UNL     1      26.059  -0.215  53.541  1.00  0.00     0.222 C 
HETATM   15  O2  UNL     1      24.987  -0.902  52.931  1.00  0.00    -0.301 OA
HETATM   16  N4  UNL     1      24.125   0.017  53.429  1.00  0.00    -0.184 NA
HETATM   17  C17 UNL     1      23.516  -0.433  54.622  1.00  0.00     0.128 C 
ENDROOT
BRANCH  12  18
HETATM   18  N3  UNL     1      23.014   2.966  49.763  1.00  0.00    -0.336 N 
HETATM   19  C10 UNL     1      22.642   4.320  50.137  1.00  0.00     0.120 A 
HETATM   20  C11 UNL     1      21.509   4.973  49.798  1.00  0.00     0.087 A 
HETATM   21 CL1  UNL     1      20.991   6.611  50.210  1.00  0.00    -0.080 Cl
HETATM   22  C12 UNL     1      20.508   4.280  48.984  1.00  0.00     0.137 A 
HETATM   23  F1  UNL     1      19.325   4.749  48.541  1.00  0.00    -0.205 F 
HETATM   24  C13 UNL     1      20.858   3.042  48.673  1.00  0.00     0.037 A 
HETATM   25  C14 UNL     1      22.054   2.220  48.981  1.00  0.00     0.160 A 
ENDBRANCH  12  18
TORSDOF 1
ENDMDL
