MODEL 1
REMARK VINA RESULT:      -8.2      0.000      0.000
REMARK  2 active torsions:
REMARK  status: ('A' for Active; 'I' for Inactive)
REMARK    1  A    between atoms: C9_11  and  O2_12 
REMARK    2  A    between atoms: C12_16  and  C13_17 
ROOT
HETATM    1  C1  UNL     1      23.800   4.819  52.069  1.00  0.00     0.046 C 
HETATM    2  S1  UNL     1      23.791   3.601  51.055  1.00  0.00    -0.204 SA
HETATM    3  C2  UNL     1      25.362   3.618  50.558  1.00  0.00     0.169 C 
HETATM    4  O1  UNL     1      26.296   2.966  51.376  1.00  0.00    -0.319 OA
HETATM    5  C3  UNL     1      26.210   1.668  51.831  1.00  0.00     0.082 C 
HETATM    6  C4  UNL     1      25.066   1.441  51.226  1.00  0.00     0.023 C 
HETATM    7  C5  UNL     1      23.792   2.035  51.891  1.00  0.00     0.067 C 
HETATM    8  C6  UNL     1      22.692   1.136  51.796  1.00  0.00     0.023 C 
HETATM    9  C7  UNL     1      21.842   1.029  50.565  1.00  0.00     0.015 C 
HETATM   10  C8  UNL     1      22.029   0.745  53.067  1.00  0.00     0.015 C 
HETATM   11  C9  UNL     1      22.519  -0.087  54.000  1.00  0.00     0.064 C 
HETATM   12  C10 UNL     1      23.762  -0.811  54.145  1.00  0.00     0.060 C 
HETATM   13  C11 UNL     1      24.928  -0.989  53.543  1.00  0.00     0.138 C 
HETATM   14  O3  UNL     1      25.673  -0.583  52.400  1.00  0.00    -0.348 OA
HETATM   15  C12 UNL     1      26.631   0.462  52.559  1.00  0.00     0.220 C 
HETATM   16  H3  UNL     1      22.942   3.669  50.034  1.00  0.00     0.091 HD
ENDROOT
BRANCH  15  17
HETATM   17  C13 UNL     1      27.008   0.722  53.982  1.00  0.00     0.226 C 
HETATM   18  O4  UNL     1      27.523  -0.410  54.607  1.00  0.00    -0.375 OA
HETATM   19  C14 UNL     1      28.731  -0.689  53.961  1.00  0.00     0.176 C 
HETATM   20  C15 UNL     1      29.317   0.660  53.543  1.00  0.00     0.107 C 
HETATM   21  C16 UNL     1      28.215   1.596  53.967  1.00  0.00     0.160 C 
HETATM   22  O5  UNL     1      28.441   2.788  54.209  1.00  0.00    -0.295 OA
ENDBRANCH  15  17
BRANCH  11  23
HETATM   23  O2  UNL     1      21.577  -0.219  55.041  1.00  0.00    -0.361 OA
HETATM   24  H12 UNL     1      21.483  -1.084  55.557  1.00  0.00     0.217 HD
ENDBRANCH  11  23
TORSDOF 2
ENDMDL
MODEL 2
REMARK VINA RESULT:      -7.1      2.123      5.250
REMARK  2 active torsions:
REMARK  status: ('A' for Active; 'I' for Inactive)
REMARK    1  A    between atoms: C9_11  and  O2_12 
REMARK    2  A    between atoms: C12_16  and  C13_17 
ROOT
HETATM    1  C1  UNL     1      27.073   2.101  53.832  1.00  0.00     0.046 C 
HETATM    2  S1  UNL     1      26.578   1.746  52.369  1.00  0.00    -0.204 SA
HETATM    3  C2  UNL     1      26.340   0.123  52.521  1.00  0.00     0.169 C 
HETATM    4  O1  UNL     1      25.115  -0.292  53.066  1.00  0.00    -0.319 OA
HETATM    5  C3  UNL     1      23.864   0.087  52.630  1.00  0.00     0.082 C 
HETATM    6  C4  UNL     1      24.335   0.852  51.671  1.00  0.00     0.023 C 
HETATM    7  C5  UNL     1      24.896   2.239  52.093  1.00  0.00     0.067 C 
HETATM    8  C6  UNL     1      24.557   3.245  51.144  1.00  0.00     0.023 C 
HETATM    9  C7  UNL     1      25.338   3.457  49.881  1.00  0.00     0.015 C 
HETATM   10  C8  UNL     1      23.827   4.435  51.652  1.00  0.00     0.015 C 
HETATM   11  C9  UNL     1      22.541   4.481  52.033  1.00  0.00     0.064 C 
HETATM   12  C10 UNL     1      21.489   3.493  52.133  1.00  0.00     0.060 C 
HETATM   13  C11 UNL     1      21.270   2.199  51.962  1.00  0.00     0.138 C 
HETATM   14  O3  UNL     1      21.923   0.992  51.584  1.00  0.00    -0.348 OA
HETATM   15  C12 UNL     1      22.394   0.130  52.619  1.00  0.00     0.220 C 
HETATM   16  H3  UNL     1      27.399   2.039  51.364  1.00  0.00     0.091 HD
ENDROOT
BRANCH  15  17
HETATM   17  C13 UNL     1      21.793   0.414  53.958  1.00  0.00     0.226 C 
HETATM   18  O4  UNL     1      20.402   0.457  53.915  1.00  0.00    -0.375 OA
HETATM   19  C14 UNL     1      19.988  -0.841  53.602  1.00  0.00     0.176 C 
HETATM   20  C15 UNL     1      21.007  -1.784  54.241  1.00  0.00     0.107 C 
HETATM   21  C16 UNL     1      22.000  -0.798  54.801  1.00  0.00     0.160 C 
HETATM   22  O5  UNL     1      22.739  -1.096  55.748  1.00  0.00    -0.295 OA
ENDBRANCH  15  17
BRANCH  11  23
HETATM   23  O2  UNL     1      22.222   5.797  52.427  1.00  0.00    -0.361 OA
HETATM   24  H12 UNL     1      21.378   6.250  52.106  1.00  0.00     0.217 HD
ENDBRANCH  11  23
TORSDOF 2
ENDMDL
MODEL 3
REMARK VINA RESULT:      -7.1      2.023      2.569
REMARK  2 active torsions:
REMARK  status: ('A' for Active; 'I' for Inactive)
REMARK    1  A    between atoms: C9_11  and  O2_12 
REMARK    2  A    between atoms: C12_16  and  C13_17 
ROOT
HETATM    1  C1  UNL     1      25.662   6.354  50.115  1.00  0.00     0.046 C 
HETATM    2  S1  UNL     1      25.320   5.054  49.275  1.00  0.00    -0.204 SA
HETATM    3  C2  UNL     1      26.780   4.290  49.305  1.00  0.00     0.169 C 
HETATM    4  O1  UNL     1      27.070   3.515  50.438  1.00  0.00    -0.319 OA
HETATM    5  C3  UNL     1      26.275   2.520  50.965  1.00  0.00     0.082 C 
HETATM    6  C4  UNL     1      25.341   2.664  50.052  1.00  0.00     0.023 C 
HETATM    7  C5  UNL     1      24.383   3.877  50.216  1.00  0.00     0.067 C 
HETATM    8  C6  UNL     1      23.046   3.532  49.863  1.00  0.00     0.023 C 
HETATM    9  C7  UNL     1      22.568   3.510  48.442  1.00  0.00     0.015 C 
HETATM   10  C8  UNL     1      21.996   3.765  50.888  1.00  0.00     0.015 C 
HETATM   11  C9  UNL     1      21.797   3.047  52.005  1.00  0.00     0.064 C 
HETATM   12  C10 UNL     1      22.475   1.922  52.608  1.00  0.00     0.060 C 
HETATM   13  C11 UNL     1      23.524   1.133  52.430  1.00  0.00     0.138 C 
HETATM   14  O3  UNL     1      24.620   0.908  51.549  1.00  0.00    -0.348 OA
HETATM   15  C12 UNL     1      25.889   1.456  51.904  1.00  0.00     0.220 C 
HETATM   16  H3  UNL     1      24.876   5.234  48.035  1.00  0.00     0.091 HD
ENDROOT
BRANCH  15  17
HETATM   17  C13 UNL     1      25.992   1.856  53.340  1.00  0.00     0.226 C 
HETATM   18  O4  UNL     1      25.605   0.835  54.203  1.00  0.00    -0.375 OA
HETATM   19  C14 UNL     1      26.551  -0.182  54.044  1.00  0.00     0.176 C 
HETATM   20  C15 UNL     1      27.879   0.511  53.738  1.00  0.00     0.107 C 
HETATM   21  C16 UNL     1      27.443   1.951  53.669  1.00  0.00     0.160 C 
HETATM   22  O5  UNL     1      28.241   2.876  53.869  1.00  0.00    -0.295 OA
ENDBRANCH  15  17
BRANCH  11  23
HETATM   23  O2  UNL     1      20.687   3.572  52.699  1.00  0.00    -0.361 OA
HETATM   24  H12 UNL     1      19.826   3.050  52.782  1.00  0.00     0.217 HD
ENDBRANCH  11  23
TORSDOF 2
ENDMDL
MODEL 4
REMARK VINA RESULT:      -6.9      2.528      5.460
REMARK  2 active torsions:
REMARK  status: ('A' for Active; 'I' for Inactive)
REMARK    1  A    between atoms: C9_11  and  O2_12 
REMARK    2  A    between atoms: C12_16  and  C13_17 
ROOT
HETATM    1  C1  UNL     1      21.196   4.842  48.756  1.00  0.00     0.046 C 
HETATM    2  S1  UNL     1      21.791   5.503  50.068  1.00  0.00    -0.204 SA
HETATM    3  C2  UNL     1      20.803   4.839  51.208  1.00  0.00     0.169 C 
HETATM    4  O1  UNL     1      21.135   3.557  51.670  1.00  0.00    -0.319 OA
HETATM    5  C3  UNL     1      22.361   3.166  52.166  1.00  0.00     0.082 C 
HETATM    6  C4  UNL     1      22.899   4.355  52.009  1.00  0.00     0.023 C 
HETATM    7  C5  UNL     1      23.318   4.747  50.565  1.00  0.00     0.067 C 
HETATM    8  C6  UNL     1      24.545   5.470  50.560  1.00  0.00     0.023 C 
HETATM    9  C7  UNL     1      24.616   6.941  50.843  1.00  0.00     0.015 C 
HETATM   10  C8  UNL     1      25.645   4.926  49.722  1.00  0.00     0.015 C 
HETATM   11  C9  UNL     1      26.385   3.837  49.984  1.00  0.00     0.064 C 
HETATM   12  C10 UNL     1      26.375   2.848  51.038  1.00  0.00     0.060 C 
HETATM   13  C11 UNL     1      25.708   2.512  52.132  1.00  0.00     0.138 C 
HETATM   14  O3  UNL     1      24.601   2.909  52.935  1.00  0.00    -0.348 OA
HETATM   15  C12 UNL     1      23.355   2.244  52.735  1.00  0.00     0.220 C 
HETATM   16  H3  UNL     1      21.799   6.831  50.126  1.00  0.00     0.091 HD
ENDROOT
BRANCH  15  17
HETATM   17  C13 UNL     1      23.473   0.954  51.988  1.00  0.00     0.226 C 
HETATM   18  O4  UNL     1      24.168  -0.012  52.709  1.00  0.00    -0.375 OA
HETATM   19  C14 UNL     1      23.371  -0.311  53.818  1.00  0.00     0.176 C 
HETATM   20  C15 UNL     1      21.921  -0.159  53.359  1.00  0.00     0.107 C 
HETATM   21  C16 UNL     1      22.116   0.340  51.950  1.00  0.00     0.160 C 
HETATM   22  O5  UNL     1      21.242   0.187  51.087  1.00  0.00    -0.295 OA
ENDBRANCH  15  17
BRANCH  11  23
HETATM   23  O2  UNL     1      27.340   3.670  48.959  1.00  0.00    -0.361 OA
HETATM   24  H12 UNL     1      27.499   4.392  48.269  1.00  0.00     0.217 HD
ENDBRANCH  11  23
TORSDOF 2
ENDMDL
MODEL 5
REMARK VINA RESULT:      -6.7      2.506      6.127
REMARK  2 active torsions:
REMARK  status: ('A' for Active; 'I' for Inactive)
REMARK    1  A    between atoms: C9_11  and  O2_12 
REMARK    2  A    between atoms: C12_16  and  C13_17 
ROOT
HETATM    1  C1  UNL     1      26.098   2.217  53.997  1.00  0.00     0.046 C 
HETATM    2  S1  UNL     1      25.943   1.965  52.440  1.00  0.00    -0.204 SA
HETATM    3  C2  UNL     1      25.286   0.453  52.448  1.00  0.00     0.169 C 
HETATM    4  O1  UNL     1      23.897   0.364  52.629  1.00  0.00    -0.319 OA
HETATM    5  C3  UNL     1      22.940   1.031  51.895  1.00  0.00     0.082 C 
HETATM    6  C4  UNL     1      23.822   1.636  51.132  1.00  0.00     0.023 C 
HETATM    7  C5  UNL     1      24.567   2.851  51.752  1.00  0.00     0.067 C 
HETATM    8  C6  UNL     1      24.750   3.889  50.795  1.00  0.00     0.023 C 
HETATM    9  C7  UNL     1      25.868   3.876  49.796  1.00  0.00     0.015 C 
HETATM   10  C8  UNL     1      24.222   5.232  51.147  1.00  0.00     0.015 C 
HETATM   11  C9  UNL     1      22.932   5.601  51.175  1.00  0.00     0.064 C 
HETATM   12  C10 UNL     1      21.685   4.906  50.947  1.00  0.00     0.060 C 
HETATM   13  C11 UNL     1      21.212   3.702  50.664  1.00  0.00     0.138 C 
HETATM   14  O3  UNL     1      21.630   2.363  50.416  1.00  0.00    -0.348 OA
HETATM   15  C12 UNL     1      21.582   1.434  51.498  1.00  0.00     0.220 C 
HETATM   16  H3  UNL     1      27.048   2.025  51.703  1.00  0.00     0.091 HD
ENDROOT
BRANCH  15  17
HETATM   17  C13 UNL     1      20.731   1.884  52.642  1.00  0.00     0.226 C 
HETATM   18  O4  UNL     1      19.408   2.095  52.265  1.00  0.00    -0.375 OA
HETATM   19  C14 UNL     1      18.904   0.839  51.915  1.00  0.00     0.176 C 
HETATM   20  C15 UNL     1      19.609  -0.174  52.817  1.00  0.00     0.107 C 
HETATM   21  C16 UNL     1      20.570   0.720  53.557  1.00  0.00     0.160 C 
HETATM   22  O5  UNL     1      21.021   0.402  54.665  1.00  0.00    -0.295 OA
ENDBRANCH  15  17
BRANCH  11  23
HETATM   23  O2  UNL     1      22.849   6.963  51.532  1.00  0.00    -0.361 OA
HETATM   24  H12 UNL     1      22.027   7.336  51.988  1.00  0.00     0.217 HD
ENDBRANCH  11  23
TORSDOF 2
ENDMDL
MODEL 6
REMARK VINA RESULT:      -6.4      3.760      7.589
REMARK  2 active torsions:
REMARK  status: ('A' for Active; 'I' for Inactive)
REMARK    1  A    between atoms: C9_11  and  O2_12 
REMARK    2  A    between atoms: C12_16  and  C13_17 
ROOT
HETATM    1  C1  UNL     1      20.792   0.389  54.412  1.00  0.00     0.046 C 
HETATM    2  S1  UNL     1      21.621   0.236  53.070  1.00  0.00    -0.204 SA
HETATM    3  C2  UNL     1      20.410  -0.130  52.014  1.00  0.00     0.169 C 
HETATM    4  O1  UNL     1      19.686   0.945  51.477  1.00  0.00    -0.319 OA
HETATM    5  C3  UNL     1      20.221   2.047  50.846  1.00  0.00     0.082 C 
HETATM    6  C4  UNL     1      21.460   1.635  50.988  1.00  0.00     0.023 C 
HETATM    7  C5  UNL     1      22.098   1.807  52.396  1.00  0.00     0.067 C 
HETATM    8  C6  UNL     1      23.465   2.196  52.301  1.00  0.00     0.023 C 
HETATM    9  C7  UNL     1      24.568   1.210  52.062  1.00  0.00     0.015 C 
HETATM   10  C8  UNL     1      23.861   3.443  53.004  1.00  0.00     0.015 C 
HETATM   11  C9  UNL     1      23.566   4.699  52.631  1.00  0.00     0.064 C 
HETATM   12  C10 UNL     1      22.793   5.269  51.550  1.00  0.00     0.060 C 
HETATM   13  C11 UNL     1      22.043   4.912  50.519  1.00  0.00     0.138 C 
HETATM   14  O3  UNL     1      21.536   3.764  49.846  1.00  0.00    -0.348 OA
HETATM   15  C12 UNL     1      20.207   3.342  50.148  1.00  0.00     0.220 C 
HETATM   16  H3  UNL     1      22.589  -0.675  53.056  1.00  0.00     0.091 HD
ENDROOT
BRANCH  15  17
HETATM   17  C13 UNL     1      19.385   4.385  50.835  1.00  0.00     0.226 C 
HETATM   18  O4  UNL     1      19.075   5.451  49.995  1.00  0.00    -0.375 OA
HETATM   19  C14 UNL     1      18.238   4.928  49.005  1.00  0.00     0.176 C 
HETATM   20  C15 UNL     1      17.421   3.822  49.671  1.00  0.00     0.107 C 
HETATM   21  C16 UNL     1      18.029   3.807  51.050  1.00  0.00     0.160 C 
HETATM   22  O5  UNL     1      17.399   3.377  52.026  1.00  0.00    -0.295 OA
ENDBRANCH  15  17
BRANCH  11  23
HETATM   23  O2  UNL     1      24.146   5.601  53.547  1.00  0.00    -0.361 OA
HETATM   24  H12 UNL     1      23.574   6.192  54.135  1.00  0.00     0.217 HD
ENDBRANCH  11  23
TORSDOF 2
ENDMDL
MODEL 7
REMARK VINA RESULT:      -6.2      8.473     11.117
REMARK  2 active torsions:
REMARK  status: ('A' for Active; 'I' for Inactive)
REMARK    1  A    between atoms: C9_11  and  O2_12 
REMARK    2  A    between atoms: C12_16  and  C13_17 
ROOT
HETATM    1  C1  UNL     1      28.804   7.747  46.152  1.00  0.00     0.046 C 
HETATM    2  S1  UNL     1      29.219   7.883  47.675  1.00  0.00    -0.204 SA
HETATM    3  C2  UNL     1      28.987   6.333  48.185  1.00  0.00     0.169 C 
HETATM    4  O1  UNL     1      30.029   5.423  47.953  1.00  0.00    -0.319 OA
HETATM    5  C3  UNL     1      31.349   5.593  48.315  1.00  0.00     0.082 C 
HETATM    6  C4  UNL     1      31.139   6.771  48.858  1.00  0.00     0.023 C 
HETATM    7  C5  UNL     1      30.980   7.972  47.883  1.00  0.00     0.067 C 
HETATM    8  C6  UNL     1      31.614   9.140  48.394  1.00  0.00     0.023 C 
HETATM    9  C7  UNL     1      30.959  10.037  49.402  1.00  0.00     0.015 C 
HETATM   10  C8  UNL     1      32.634   9.787  47.529  1.00  0.00     0.015 C 
HETATM   11  C9  UNL     1      33.871   9.330  47.275  1.00  0.00     0.064 C 
HETATM   12  C10 UNL     1      34.599   8.141  47.658  1.00  0.00     0.060 C 
HETATM   13  C11 UNL     1      34.450   7.013  48.335  1.00  0.00     0.138 C 
HETATM   14  O3  UNL     1      33.494   6.279  49.093  1.00  0.00    -0.348 OA
HETATM   15  C12 UNL     1      32.771   5.239  48.436  1.00  0.00     0.220 C 
HETATM   16  H3  UNL     1      28.542   8.758  48.412  1.00  0.00     0.091 HD
ENDROOT
BRANCH  15  17
HETATM   17  C13 UNL     1      33.390   4.795  47.150  1.00  0.00     0.226 C 
HETATM   18  O4  UNL     1      34.709   4.381  47.313  1.00  0.00    -0.375 OA
HETATM   19  C14 UNL     1      34.654   3.228  48.102  1.00  0.00     0.176 C 
HETATM   20  C15 UNL     1      33.349   2.520  47.738  1.00  0.00     0.107 C 
HETATM   21  C16 UNL     1      32.747   3.506  46.771  1.00  0.00     0.160 C 
HETATM   22  O5  UNL     1      31.920   3.151  45.921  1.00  0.00    -0.295 OA
ENDBRANCH  15  17
BRANCH  11  23
HETATM   23  O2  UNL     1      34.535  10.243  46.430  1.00  0.00    -0.361 OA
HETATM   24  H12 UNL     1      35.399   9.995  45.966  1.00  0.00     0.217 HD
ENDBRANCH  11  23
TORSDOF 2
ENDMDL
MODEL 8
REMARK VINA RESULT:      -6.2      2.910      4.426
REMARK  2 active torsions:
REMARK  status: ('A' for Active; 'I' for Inactive)
REMARK    1  A    between atoms: C9_11  and  O2_12 
REMARK    2  A    between atoms: C12_16  and  C13_17 
ROOT
HETATM    1  C1  UNL     1      22.878   5.934  49.741  1.00  0.00     0.046 C 
HETATM    2  S1  UNL     1      22.445   4.694  48.855  1.00  0.00    -0.204 SA
HETATM    3  C2  UNL     1      23.817   3.785  48.925  1.00  0.00     0.169 C 
HETATM    4  O1  UNL     1      23.978   2.961  50.049  1.00  0.00    -0.319 OA
HETATM    5  C3  UNL     1      23.065   2.041  50.517  1.00  0.00     0.082 C 
HETATM    6  C4  UNL     1      22.191   2.298  49.570  1.00  0.00     0.023 C 
HETATM    7  C5  UNL     1      21.353   3.598  49.725  1.00  0.00     0.067 C 
HETATM    8  C6  UNL     1      20.006   3.399  49.309  1.00  0.00     0.023 C 
HETATM    9  C7  UNL     1      19.591   3.456  47.869  1.00  0.00     0.015 C 
HETATM   10  C8  UNL     1      18.941   3.716  50.295  1.00  0.00     0.015 C 
HETATM   11  C9  UNL     1      18.622   2.998  51.384  1.00  0.00     0.064 C 
HETATM   12  C10 UNL     1      19.157   1.797  51.986  1.00  0.00     0.060 C 
HETATM   13  C11 UNL     1      20.127   0.909  51.831  1.00  0.00     0.138 C 
HETATM   14  O3  UNL     1      21.233   0.593  50.991  1.00  0.00    -0.348 OA
HETATM   15  C12 UNL     1      22.534   1.001  51.411  1.00  0.00     0.220 C 
HETATM   16  H3  UNL     1      22.075   4.945  47.602  1.00  0.00     0.091 HD
ENDROOT
BRANCH  15  17
HETATM   17  C13 UNL     1      22.614   1.358  52.860  1.00  0.00     0.226 C 
HETATM   18  O4  UNL     1      22.487   0.245  53.686  1.00  0.00    -0.375 OA
HETATM   19  C14 UNL     1      23.617  -0.542  53.447  1.00  0.00     0.176 C 
HETATM   20  C15 UNL     1      24.756   0.427  53.128  1.00  0.00     0.107 C 
HETATM   21  C16 UNL     1      24.025   1.744  53.142  1.00  0.00     0.160 C 
HETATM   22  O5  UNL     1      24.620   2.808  53.357  1.00  0.00    -0.295 OA
ENDBRANCH  15  17
BRANCH  11  23
HETATM   23  O2  UNL     1      17.541   3.618  52.045  1.00  0.00    -0.361 OA
HETATM   24  H12 UNL     1      16.848   3.074  52.540  1.00  0.00     0.217 HD
ENDBRANCH  11  23
TORSDOF 2
ENDMDL
MODEL 9
REMARK VINA RESULT:      -6.2      3.596      7.462
REMARK  2 active torsions:
REMARK  status: ('A' for Active; 'I' for Inactive)
REMARK    1  A    between atoms: C9_11  and  O2_12 
REMARK    2  A    between atoms: C12_16  and  C13_17 
ROOT
HETATM    1  C1  UNL     1      24.963   2.627  53.234  1.00  0.00     0.046 C 
HETATM    2  S1  UNL     1      25.095   2.513  51.659  1.00  0.00    -0.204 SA
HETATM    3  C2  UNL     1      23.889   1.438  51.337  1.00  0.00     0.169 C 
HETATM    4  O1  UNL     1      22.590   1.955  51.217  1.00  0.00    -0.319 OA
HETATM    5  C3  UNL     1      22.203   2.993  50.397  1.00  0.00     0.082 C 
HETATM    6  C4  UNL     1      23.411   3.177  49.914  1.00  0.00     0.023 C 
HETATM    7  C5  UNL     1      24.422   3.928  50.826  1.00  0.00     0.067 C 
HETATM    8  C6  UNL     1      25.244   4.811  50.068  1.00  0.00     0.023 C 
HETATM    9  C7  UNL     1      26.459   4.342  49.325  1.00  0.00     0.015 C 
HETATM   10  C8  UNL     1      25.255   6.239  50.477  1.00  0.00     0.015 C 
HETATM   11  C9  UNL     1      24.270   7.131  50.289  1.00  0.00     0.064 C 
HETATM   12  C10 UNL     1      22.942   7.054  49.722  1.00  0.00     0.060 C 
HETATM   13  C11 UNL     1      22.094   6.184  49.196  1.00  0.00     0.138 C 
HETATM   14  O3  UNL     1      21.963   4.804  48.867  1.00  0.00    -0.348 OA
HETATM   15  C12 UNL     1      21.275   3.958  49.787  1.00  0.00     0.220 C 
HETATM   16  H3  UNL     1      26.267   2.108  51.177  1.00  0.00     0.091 HD
ENDROOT
BRANCH  15  17
HETATM   17  C13 UNL     1      20.442   4.700  50.781  1.00  0.00     0.226 C 
HETATM   18  O4  UNL     1      19.353   5.333  50.190  1.00  0.00    -0.375 OA
HETATM   19  C14 UNL     1      18.524   4.311  49.719  1.00  0.00     0.176 C 
HETATM   20  C15 UNL     1      18.681   3.146  50.695  1.00  0.00     0.107 C 
HETATM   21  C16 UNL     1      19.743   3.684  51.618  1.00  0.00     0.160 C 
HETATM   22  O5  UNL     1      19.864   3.263  52.776  1.00  0.00    -0.295 OA
ENDBRANCH  15  17
BRANCH  11  23
HETATM   23  O2  UNL     1      24.678   8.383  50.795  1.00  0.00    -0.361 OA
HETATM   24  H12 UNL     1      25.257   8.451  51.620  1.00  0.00     0.217 HD
ENDBRANCH  11  23
TORSDOF 2
ENDMDL
