MODEL 1
REMARK VINA RESULT:      -7.2      0.000      0.000
REMARK  5 active torsions:
REMARK  status: ('A' for Active; 'I' for Inactive)
REMARK    1  A    between atoms: C2_2  and  C3_3 
REMARK    2  A    between atoms: C2_2  and  N2_7 
REMARK       I    between atoms: N2_7  and  C6_8 
REMARK    3  A    between atoms: C6_8  and  C7_10 
REMARK    4  A    between atoms: C7_10  and  C8_11 
REMARK    5  A    between atoms: C11_16  and  C12_17 
ROOT
HETATM    1  C3  UNL     1      25.457   4.176  49.942  1.00  0.00    -0.066 C 
HETATM    2  C4  UNL     1      26.509   4.436  49.410  1.00  0.00     0.015 C 
HETATM    3  C5  UNL     1      27.736   4.763  48.786  1.00  0.00     0.152 C 
HETATM    4  N1  UNL     1      28.727   5.047  48.269  1.00  0.00    -0.182 NA
ENDROOT
BRANCH   1   5
HETATM    5  C2  UNL     1      24.156   3.880  50.592  1.00  0.00     0.161 C 
HETATM    6  C1  UNL     1      23.052   4.425  49.684  1.00  0.00     0.046 C 
BRANCH   5   7
HETATM    7  N2  UNL     1      24.030   2.473  50.789  1.00  0.00    -0.343 N 
HETATM    8  C6  UNL     1      23.901   1.855  52.066  1.00  0.00     0.242 C 
HETATM    9  O1  UNL     1      23.922   2.788  52.936  1.00  0.00    -0.269 OA
HETATM   10  H5  UNL     1      24.028   1.814  49.973  1.00  0.00     0.164 HD
BRANCH   8  11
HETATM   11  C7  UNL     1      23.768   0.459  52.396  1.00  0.00     0.085 C 
BRANCH  11  12
HETATM   12  C8  UNL     1      23.851  -0.189  53.531  1.00  0.00    -0.003 A 
HETATM   13  C9  UNL     1      22.506  -0.599  53.988  1.00  0.00     0.191 A 
HETATM   14  N3  UNL     1      22.569  -1.307  55.255  1.00  0.00    -0.278 NA
HETATM   15  C10 UNL     1      23.717  -1.487  55.794  1.00  0.00     0.227 A 
HETATM   16  N4  UNL     1      24.962  -1.057  55.272  1.00  0.00    -0.241 NA
HETATM   17  C11 UNL     1      25.123  -0.415  54.169  1.00  0.00     0.079 A 
BRANCH  17  18
HETATM   18  C12 UNL     1      26.408   0.000  53.675  1.00  0.00     0.032 A 
HETATM   19  C13 UNL     1      27.511  -0.178  54.423  1.00  0.00     0.020 A 
HETATM   20  C14 UNL     1      28.360   0.401  53.429  1.00  0.00     0.044 A 
HETATM   21  C15 UNL     1      27.282   0.577  52.698  1.00  0.00     0.129 A 
HETATM   22  F1  UNL     1      27.046   1.095  51.484  1.00  0.00    -0.205 F 
ENDBRANCH  17  18
ENDBRANCH  11  12
ENDBRANCH   8  11
ENDBRANCH   5   7
ENDBRANCH   1   5
TORSDOF 5
ENDMDL
MODEL 2
REMARK VINA RESULT:      -7.2      1.821      3.314
REMARK  5 active torsions:
REMARK  status: ('A' for Active; 'I' for Inactive)
REMARK    1  A    between atoms: C2_2  and  C3_3 
REMARK    2  A    between atoms: C2_2  and  N2_7 
REMARK       I    between atoms: N2_7  and  C6_8 
REMARK    3  A    between atoms: C6_8  and  C7_10 
REMARK    4  A    between atoms: C7_10  and  C8_11 
REMARK    5  A    between atoms: C11_16  and  C12_17 
ROOT
HETATM    1  C3  UNL     1      25.924   4.654  49.424  1.00  0.00    -0.066 C 
HETATM    2  C4  UNL     1      27.026   4.871  48.984  1.00  0.00     0.015 C 
HETATM    3  C5  UNL     1      28.325   5.102  48.472  1.00  0.00     0.152 C 
HETATM    4  N1  UNL     1      29.391   5.276  48.067  1.00  0.00    -0.182 NA
ENDROOT
BRANCH   1   5
HETATM    5  C2  UNL     1      24.576   4.365  49.974  1.00  0.00     0.161 C 
HETATM    6  C1  UNL     1      23.642   4.101  48.792  1.00  0.00     0.046 C 
BRANCH   5   7
HETATM    7  N2  UNL     1      24.650   3.242  50.850  1.00  0.00    -0.343 N 
HETATM    8  C6  UNL     1      24.197   3.251  52.201  1.00  0.00     0.242 C 
HETATM    9  O1  UNL     1      23.740   4.420  52.432  1.00  0.00    -0.269 OA
HETATM   10  H5  UNL     1      25.055   2.331  50.523  1.00  0.00     0.164 HD
BRANCH   8  11
HETATM   11  C7  UNL     1      24.215   2.193  53.179  1.00  0.00     0.085 C 
BRANCH  11  12
HETATM   12  C8  UNL     1      25.136   1.329  53.522  1.00  0.00    -0.003 A 
HETATM   13  C9  UNL     1      26.471   1.965  53.499  1.00  0.00     0.191 A 
HETATM   14  N3  UNL     1      27.515   1.022  53.861  1.00  0.00    -0.278 NA
HETATM   15  C10 UNL     1      27.175  -0.179  54.148  1.00  0.00     0.227 A 
HETATM   16  N4  UNL     1      25.857  -0.698  54.149  1.00  0.00    -0.241 NA
HETATM   17  C11 UNL     1      24.797  -0.031  53.855  1.00  0.00     0.079 A 
BRANCH  17  18
HETATM   18  C12 UNL     1      23.475  -0.598  53.871  1.00  0.00     0.032 A 
HETATM   19  C13 UNL     1      23.021  -1.225  54.970  1.00  0.00     0.020 A 
HETATM   20  C14 UNL     1      21.761  -1.520  54.361  1.00  0.00     0.044 A 
HETATM   21  C15 UNL     1      22.205  -0.909  53.287  1.00  0.00     0.129 A 
HETATM   22  F1  UNL     1      21.692  -0.648  52.075  1.00  0.00    -0.205 F 
ENDBRANCH  17  18
ENDBRANCH  11  12
ENDBRANCH   8  11
ENDBRANCH   5   7
ENDBRANCH   1   5
TORSDOF 5
ENDMDL
MODEL 3
REMARK VINA RESULT:      -7.2      2.018      7.099
REMARK  5 active torsions:
REMARK  status: ('A' for Active; 'I' for Inactive)
REMARK    1  A    between atoms: C2_2  and  C3_3 
REMARK    2  A    between atoms: C2_2  and  N2_7 
REMARK       I    between atoms: N2_7  and  C6_8 
REMARK    3  A    between atoms: C6_8  and  C7_10 
REMARK    4  A    between atoms: C7_10  and  C8_11 
REMARK    5  A    between atoms: C11_16  and  C12_17 
ROOT
HETATM    1  C3  UNL     1      24.838  -0.162  53.420  1.00  0.00    -0.066 C 
HETATM    2  C4  UNL     1      23.792  -0.510  53.910  1.00  0.00     0.015 C 
HETATM    3  C5  UNL     1      22.573  -0.914  54.506  1.00  0.00     0.152 C 
HETATM    4  N1  UNL     1      21.591  -1.248  55.008  1.00  0.00    -0.182 NA
ENDROOT
BRANCH   1   5
HETATM    5  C2  UNL     1      26.136   0.267  52.841  1.00  0.00     0.161 C 
HETATM    6  C1  UNL     1      26.986  -0.988  52.634  1.00  0.00     0.046 C 
BRANCH   5   7
HETATM    7  N2  UNL     1      25.906   0.958  51.615  1.00  0.00    -0.343 N 
HETATM    8  C6  UNL     1      26.654   2.092  51.185  1.00  0.00     0.242 C 
HETATM    9  O1  UNL     1      27.520   2.332  52.091  1.00  0.00    -0.269 OA
HETATM   10  H5  UNL     1      25.150   0.647  50.957  1.00  0.00     0.164 HD
BRANCH   8  11
HETATM   11  C7  UNL     1      26.521   2.871  49.980  1.00  0.00     0.085 C 
BRANCH  11  12
HETATM   12  C8  UNL     1      26.226   4.129  49.775  1.00  0.00    -0.003 A 
HETATM   13  C9  UNL     1      27.202   4.740  48.847  1.00  0.00     0.191 A 
HETATM   14  N3  UNL     1      26.906   6.143  48.614  1.00  0.00    -0.278 NA
HETATM   15  C10 UNL     1      25.889   6.655  49.202  1.00  0.00     0.227 A 
HETATM   16  N4  UNL     1      25.002   5.981  50.076  1.00  0.00    -0.241 NA
HETATM   17  C11 UNL     1      25.090   4.743  50.413  1.00  0.00     0.079 A 
BRANCH  17  18
HETATM   18  C12 UNL     1      24.163   4.098  51.304  1.00  0.00     0.032 A 
HETATM   19  C13 UNL     1      22.952   3.716  50.861  1.00  0.00     0.020 A 
HETATM   20  C14 UNL     1      22.577   3.192  52.137  1.00  0.00     0.044 A 
HETATM   21  C15 UNL     1      23.760   3.566  52.571  1.00  0.00     0.129 A 
HETATM   22  F1  UNL     1      24.393   3.493  53.751  1.00  0.00    -0.205 F 
ENDBRANCH  17  18
ENDBRANCH  11  12
ENDBRANCH   8  11
ENDBRANCH   5   7
ENDBRANCH   1   5
TORSDOF 5
ENDMDL
MODEL 4
REMARK VINA RESULT:      -7.0      2.176      2.600
REMARK  5 active torsions:
REMARK  status: ('A' for Active; 'I' for Inactive)
REMARK    1  A    between atoms: C2_2  and  C3_3 
REMARK    2  A    between atoms: C2_2  and  N2_7 
REMARK       I    between atoms: N2_7  and  C6_8 
REMARK    3  A    between atoms: C6_8  and  C7_10 
REMARK    4  A    between atoms: C7_10  and  C8_11 
REMARK    5  A    between atoms: C11_16  and  C12_17 
ROOT
HETATM    1  C3  UNL     1      25.704   5.954  49.902  1.00  0.00    -0.066 C 
HETATM    2  C4  UNL     1      25.885   7.145  49.969  1.00  0.00     0.015 C 
HETATM    3  C5  UNL     1      26.119   8.539  50.042  1.00  0.00     0.152 C 
HETATM    4  N1  UNL     1      26.330   9.671  50.105  1.00  0.00    -0.182 NA
ENDROOT
BRANCH   1   5
HETATM    5  C2  UNL     1      25.507   4.485  49.815  1.00  0.00     0.161 C 
HETATM    6  C1  UNL     1      26.807   3.875  49.291  1.00  0.00     0.046 C 
BRANCH   5   7
HETATM    7  N2  UNL     1      25.163   3.974  51.101  1.00  0.00    -0.343 N 
HETATM    8  C6  UNL     1      24.089   3.069  51.340  1.00  0.00     0.242 C 
HETATM    9  O1  UNL     1      23.539   2.838  50.212  1.00  0.00    -0.269 OA
HETATM   10  H5  UNL     1      25.709   4.253  51.954  1.00  0.00     0.164 HD
BRANCH   8  11
HETATM   11  C7  UNL     1      23.645   2.485  52.580  1.00  0.00     0.085 C 
BRANCH  11  12
HETATM   12  C8  UNL     1      23.087   1.335  52.860  1.00  0.00    -0.003 A 
HETATM   13  C9  UNL     1      21.625   1.497  53.015  1.00  0.00     0.191 A 
HETATM   14  N3  UNL     1      20.983   0.236  53.343  1.00  0.00    -0.278 NA
HETATM   15  C10 UNL     1      21.715  -0.810  53.448  1.00  0.00     0.227 A 
HETATM   16  N4  UNL     1      23.119  -0.867  53.274  1.00  0.00    -0.241 NA
HETATM   17  C11 UNL     1      23.873   0.134  52.984  1.00  0.00     0.079 A 
BRANCH  17  18
HETATM   18  C12 UNL     1      25.298   0.029  52.814  1.00  0.00     0.032 A 
HETATM   19  C13 UNL     1      26.023  -0.746  53.639  1.00  0.00     0.020 A 
HETATM   20  C14 UNL     1      27.247  -0.424  52.974  1.00  0.00     0.044 A 
HETATM   21  C15 UNL     1      26.539   0.336  52.168  1.00  0.00     0.129 A 
HETATM   22  F1  UNL     1      26.830   1.119  51.119  1.00  0.00    -0.205 F 
ENDBRANCH  17  18
ENDBRANCH  11  12
ENDBRANCH   8  11
ENDBRANCH   5   7
ENDBRANCH   1   5
TORSDOF 5
ENDMDL
MODEL 5
REMARK VINA RESULT:      -7.0      2.609      4.127
REMARK  5 active torsions:
REMARK  status: ('A' for Active; 'I' for Inactive)
REMARK    1  A    between atoms: C2_2  and  C3_3 
REMARK    2  A    between atoms: C2_2  and  N2_7 
REMARK       I    between atoms: N2_7  and  C6_8 
REMARK    3  A    between atoms: C6_8  and  C7_10 
REMARK    4  A    between atoms: C7_10  and  C8_11 
REMARK    5  A    between atoms: C11_16  and  C12_17 
ROOT
HETATM    1  C3  UNL     1      25.242   5.343  48.870  1.00  0.00    -0.066 C 
HETATM    2  C4  UNL     1      24.419   6.160  48.535  1.00  0.00     0.015 C 
HETATM    3  C5  UNL     1      23.438   7.104  48.147  1.00  0.00     0.152 C 
HETATM    4  N1  UNL     1      22.626   7.857  47.826  1.00  0.00    -0.182 NA
ENDROOT
BRANCH   1   5
HETATM    5  C2  UNL     1      26.234   4.319  49.283  1.00  0.00     0.161 C 
HETATM    6  C1  UNL     1      27.612   4.804  48.830  1.00  0.00     0.046 C 
BRANCH   5   7
HETATM    7  N2  UNL     1      26.174   4.141  50.696  1.00  0.00    -0.343 N 
HETATM    8  C6  UNL     1      26.344   2.887  51.351  1.00  0.00     0.242 C 
HETATM    9  O1  UNL     1      26.547   2.016  50.441  1.00  0.00    -0.269 OA
HETATM   10  H5  UNL     1      25.997   4.956  51.334  1.00  0.00     0.164 HD
BRANCH   8  11
HETATM   11  C7  UNL     1      26.307   2.578  52.758  1.00  0.00     0.085 C 
BRANCH  11  12
HETATM   12  C8  UNL     1      27.002   1.751  53.495  1.00  0.00    -0.003 A 
HETATM   13  C9  UNL     1      28.376   2.264  53.687  1.00  0.00     0.191 A 
HETATM   14  N3  UNL     1      29.176   1.354  54.489  1.00  0.00    -0.278 NA
HETATM   15  C10 UNL     1      28.627   0.279  54.917  1.00  0.00     0.227 A 
HETATM   16  N4  UNL     1      27.290  -0.127  54.684  1.00  0.00    -0.241 NA
HETATM   17  C11 UNL     1      26.423   0.532  53.999  1.00  0.00     0.079 A 
BRANCH  17  18
HETATM   18  C12 UNL     1      25.073   0.082  53.790  1.00  0.00     0.032 A 
HETATM   19  C13 UNL     1      24.511  -0.794  54.640  1.00  0.00     0.020 A 
HETATM   20  C14 UNL     1      23.279  -0.811  53.914  1.00  0.00     0.044 A 
HETATM   21  C15 UNL     1      23.828   0.044  53.082  1.00  0.00     0.129 A 
HETATM   22  F1  UNL     1      23.412   0.673  51.973  1.00  0.00    -0.205 F 
ENDBRANCH  17  18
ENDBRANCH  11  12
ENDBRANCH   8  11
ENDBRANCH   5   7
ENDBRANCH   1   5
TORSDOF 5
ENDMDL
MODEL 6
REMARK VINA RESULT:      -6.9      2.593      4.003
REMARK  5 active torsions:
REMARK  status: ('A' for Active; 'I' for Inactive)
REMARK    1  A    between atoms: C2_2  and  C3_3 
REMARK    2  A    between atoms: C2_2  and  N2_7 
REMARK       I    between atoms: N2_7  and  C6_8 
REMARK    3  A    between atoms: C6_8  and  C7_10 
REMARK    4  A    between atoms: C7_10  and  C8_11 
REMARK    5  A    between atoms: C11_16  and  C12_17 
ROOT
HETATM    1  C3  UNL     1      26.037   6.329  49.682  1.00  0.00    -0.066 C 
HETATM    2  C4  UNL     1      26.183   7.526  49.732  1.00  0.00     0.015 C 
HETATM    3  C5  UNL     1      26.337   8.931  49.805  1.00  0.00     0.152 C 
HETATM    4  N1  UNL     1      26.442  10.077  49.868  1.00  0.00    -0.182 NA
ENDROOT
BRANCH   1   5
HETATM    5  C2  UNL     1      25.835   4.859  49.634  1.00  0.00     0.161 C 
HETATM    6  C1  UNL     1      27.087   4.241  49.011  1.00  0.00     0.046 C 
BRANCH   5   7
HETATM    7  N2  UNL     1      25.603   4.368  50.953  1.00  0.00    -0.343 N 
HETATM    8  C6  UNL     1      24.701   3.309  51.263  1.00  0.00     0.242 C 
HETATM    9  O1  UNL     1      24.181   2.928  50.162  1.00  0.00    -0.269 OA
HETATM   10  H5  UNL     1      26.106   4.780  51.777  1.00  0.00     0.164 HD
BRANCH   8  11
HETATM   11  C7  UNL     1      24.381   2.726  52.541  1.00  0.00     0.085 C 
BRANCH  11  12
HETATM   12  C8  UNL     1      24.934   1.762  53.231  1.00  0.00    -0.003 A 
HETATM   13  C9  UNL     1      26.299   2.147  53.650  1.00  0.00     0.191 A 
HETATM   14  N3  UNL     1      26.942   1.087  54.405  1.00  0.00    -0.278 NA
HETATM   15  C10 UNL     1      26.288   0.005  54.612  1.00  0.00     0.227 A 
HETATM   16  N4  UNL     1      24.971  -0.272  54.171  1.00  0.00    -0.241 NA
HETATM   17  C11 UNL     1      24.232   0.530  53.489  1.00  0.00     0.079 A 
BRANCH  17  18
HETATM   18  C12 UNL     1      22.896   0.208  53.064  1.00  0.00     0.032 A 
HETATM   19  C13 UNL     1      22.004  -0.279  53.943  1.00  0.00     0.020 A 
HETATM   20  C14 UNL     1      20.978  -0.372  52.953  1.00  0.00     0.044 A 
HETATM   21  C15 UNL     1      21.850   0.102  52.091  1.00  0.00     0.129 A 
HETATM   22  F1  UNL     1      21.813   0.395  50.783  1.00  0.00    -0.205 F 
ENDBRANCH  17  18
ENDBRANCH  11  12
ENDBRANCH   8  11
ENDBRANCH   5   7
ENDBRANCH   1   5
TORSDOF 5
ENDMDL
MODEL 7
REMARK VINA RESULT:      -6.9      2.085      7.059
REMARK  5 active torsions:
REMARK  status: ('A' for Active; 'I' for Inactive)
REMARK    1  A    between atoms: C2_2  and  C3_3 
REMARK    2  A    between atoms: C2_2  and  N2_7 
REMARK       I    between atoms: N2_7  and  C6_8 
REMARK    3  A    between atoms: C6_8  and  C7_10 
REMARK    4  A    between atoms: C7_10  and  C8_11 
REMARK    5  A    between atoms: C11_16  and  C12_17 
ROOT
HETATM    1  C3  UNL     1      24.148   0.093  53.377  1.00  0.00    -0.066 C 
HETATM    2  C4  UNL     1      23.261  -0.553  53.880  1.00  0.00     0.015 C 
HETATM    3  C5  UNL     1      22.206  -1.301  54.454  1.00  0.00     0.152 C 
HETATM    4  N1  UNL     1      21.333  -1.896  54.915  1.00  0.00    -0.182 NA
ENDROOT
BRANCH   1   5
HETATM    5  C2  UNL     1      25.222   0.899  52.744  1.00  0.00     0.161 C 
HETATM    6  C1  UNL     1      26.325  -0.066  52.305  1.00  0.00     0.046 C 
BRANCH   5   7
HETATM    7  N2  UNL     1      24.684   1.624  51.640  1.00  0.00    -0.343 N 
HETATM    8  C6  UNL     1      24.310   2.998  51.693  1.00  0.00     0.242 C 
HETATM    9  O1  UNL     1      24.550   3.403  52.879  1.00  0.00    -0.269 OA
HETATM   10  H5  UNL     1      24.538   1.158  50.711  1.00  0.00     0.164 HD
BRANCH   8  11
HETATM   11  C7  UNL     1      23.761   3.836  50.658  1.00  0.00     0.085 C 
BRANCH  11  12
HETATM   12  C8  UNL     1      23.689   5.136  50.525  1.00  0.00    -0.003 A 
HETATM   13  C9  UNL     1      22.417   5.639  51.087  1.00  0.00     0.191 A 
HETATM   14  N3  UNL     1      22.303   7.080  50.938  1.00  0.00    -0.278 NA
HETATM   15  C10 UNL     1      23.266   7.710  50.375  1.00  0.00     0.227 A 
HETATM   16  N4  UNL     1      24.458   7.136  49.870  1.00  0.00    -0.241 NA
HETATM   17  C11 UNL     1      24.750   5.884  49.901  1.00  0.00     0.079 A 
BRANCH  17  18
HETATM   18  C12 UNL     1      25.976   5.344  49.377  1.00  0.00     0.032 A 
HETATM   19  C13 UNL     1      26.868   6.149  48.776  1.00  0.00     0.020 A 
HETATM   20  C14 UNL     1      27.769   5.069  48.516  1.00  0.00     0.044 A 
HETATM   21  C15 UNL     1      26.897   4.281  49.103  1.00  0.00     0.129 A 
HETATM   22  F1  UNL     1      26.849   2.967  49.369  1.00  0.00    -0.205 F 
ENDBRANCH  17  18
ENDBRANCH  11  12
ENDBRANCH   8  11
ENDBRANCH   5   7
ENDBRANCH   1   5
TORSDOF 5
ENDMDL
MODEL 8
REMARK VINA RESULT:      -6.7      3.094      5.250
REMARK  5 active torsions:
REMARK  status: ('A' for Active; 'I' for Inactive)
REMARK    1  A    between atoms: C2_2  and  C3_3 
REMARK    2  A    between atoms: C2_2  and  N2_7 
REMARK       I    between atoms: N2_7  and  C6_8 
REMARK    3  A    between atoms: C6_8  and  C7_10 
REMARK    4  A    between atoms: C7_10  and  C8_11 
REMARK    5  A    between atoms: C11_16  and  C12_17 
ROOT
HETATM    1  C3  UNL     1      22.638   2.354  52.451  1.00  0.00    -0.066 C 
HETATM    2  C4  UNL     1      21.669   1.636  52.494  1.00  0.00     0.015 C 
HETATM    3  C5  UNL     1      20.524   0.804  52.525  1.00  0.00     0.152 C 
HETATM    4  N1  UNL     1      19.580   0.142  52.542  1.00  0.00    -0.182 NA
ENDROOT
BRANCH   1   5
HETATM    5  C2  UNL     1      23.818   3.252  52.380  1.00  0.00     0.161 C 
HETATM    6  C1  UNL     1      23.344   4.664  52.725  1.00  0.00     0.046 C 
BRANCH   5   7
HETATM    7  N2  UNL     1      24.819   2.794  53.286  1.00  0.00    -0.343 N 
HETATM    8  C6  UNL     1      26.142   2.432  52.898  1.00  0.00     0.242 C 
HETATM    9  O1  UNL     1      26.218   2.599  51.635  1.00  0.00    -0.269 OA
HETATM   10  H5  UNL     1      24.616   2.703  54.311  1.00  0.00     0.164 HD
BRANCH   8  11
HETATM   11  C7  UNL     1      27.235   1.960  53.709  1.00  0.00     0.085 C 
BRANCH  11  12
HETATM   12  C8  UNL     1      27.923   0.847  53.696  1.00  0.00    -0.003 A 
HETATM   13  C9  UNL     1      29.358   1.132  53.479  1.00  0.00     0.191 A 
HETATM   14  N3  UNL     1      30.143  -0.089  53.444  1.00  0.00    -0.278 NA
HETATM   15  C10 UNL     1      29.536  -1.206  53.602  1.00  0.00     0.227 A 
HETATM   16  N4  UNL     1      28.146  -1.380  53.811  1.00  0.00    -0.241 NA
HETATM   17  C11 UNL     1      27.280  -0.431  53.871  1.00  0.00     0.079 A 
BRANCH  17  18
HETATM   18  C12 UNL     1      25.876  -0.653  54.088  1.00  0.00     0.032 A 
HETATM   19  C13 UNL     1      25.024  -0.664  53.049  1.00  0.00     0.020 A 
HETATM   20  C14 UNL     1      23.895  -0.913  53.890  1.00  0.00     0.044 A 
HETATM   21  C15 UNL     1      24.727  -0.901  54.907  1.00  0.00     0.129 A 
HETATM   22  F1  UNL     1      24.593  -1.060  56.232  1.00  0.00    -0.205 F 
ENDBRANCH  17  18
ENDBRANCH  11  12
ENDBRANCH   8  11
ENDBRANCH   5   7
ENDBRANCH   1   5
TORSDOF 5
ENDMDL
MODEL 9
REMARK VINA RESULT:      -6.3      3.076      6.358
REMARK  5 active torsions:
REMARK  status: ('A' for Active; 'I' for Inactive)
REMARK    1  A    between atoms: C2_2  and  C3_3 
REMARK    2  A    between atoms: C2_2  and  N2_7 
REMARK       I    between atoms: N2_7  and  C6_8 
REMARK    3  A    between atoms: C6_8  and  C7_10 
REMARK    4  A    between atoms: C7_10  and  C8_11 
REMARK    5  A    between atoms: C11_16  and  C12_17 
ROOT
HETATM    1  C3  UNL     1      23.559  -0.618  53.868  1.00  0.00    -0.066 C 
HETATM    2  C4  UNL     1      24.732  -0.502  54.125  1.00  0.00     0.015 C 
HETATM    3  C5  UNL     1      26.112  -0.354  54.407  1.00  0.00     0.152 C 
HETATM    4  N1  UNL     1      27.239  -0.233  54.616  1.00  0.00    -0.182 NA
ENDROOT
BRANCH   1   5
HETATM    5  C2  UNL     1      22.120  -0.752  53.528  1.00  0.00     0.161 C 
HETATM    6  C1  UNL     1      21.495  -1.718  54.535  1.00  0.00     0.046 C 
BRANCH   5   7
HETATM    7  N2  UNL     1      21.500   0.531  53.571  1.00  0.00    -0.343 N 
HETATM    8  C6  UNL     1      20.761   1.098  52.492  1.00  0.00     0.242 C 
HETATM    9  O1  UNL     1      20.781   0.248  51.540  1.00  0.00    -0.269 OA
HETATM   10  H5  UNL     1      21.564   1.131  54.429  1.00  0.00     0.164 HD
BRANCH   8  11
HETATM   11  C7  UNL     1      20.092   2.371  52.412  1.00  0.00     0.085 C 
BRANCH  11  12
HETATM   12  C8  UNL     1      20.248   3.397  51.615  1.00  0.00    -0.003 A 
HETATM   13  C9  UNL     1      18.937   3.861  51.112  1.00  0.00     0.191 A 
HETATM   14  N3  UNL     1      19.083   4.991  50.211  1.00  0.00    -0.278 NA
HETATM   15  C10 UNL     1      20.263   5.432  49.976  1.00  0.00     0.227 A 
HETATM   16  N4  UNL     1      21.468   4.921  50.514  1.00  0.00    -0.241 NA
HETATM   17  C11 UNL     1      21.556   3.926  51.325  1.00  0.00     0.079 A 
BRANCH  17  18
HETATM   18  C12 UNL     1      22.805   3.441  51.850  1.00  0.00     0.032 A 
HETATM   19  C13 UNL     1      23.432   4.109  52.833  1.00  0.00     0.020 A 
HETATM   20  C14 UNL     1      24.509   3.170  52.876  1.00  0.00     0.044 A 
HETATM   21  C15 UNL     1      23.898   2.517  51.914  1.00  0.00     0.129 A 
HETATM   22  F1  UNL     1      24.162   1.397  51.224  1.00  0.00    -0.205 F 
ENDBRANCH  17  18
ENDBRANCH  11  12
ENDBRANCH   8  11
ENDBRANCH   5   7
ENDBRANCH   1   5
TORSDOF 5
ENDMDL
