MODEL 1
REMARK VINA RESULT:      -7.0      0.000      0.000
REMARK  11 active torsions:
REMARK  status: ('A' for Active; 'I' for Inactive)
REMARK    1  A    between atoms: C2_2  and  N1_3 
REMARK    2  A    between atoms: N1_3  and  C3_4 
REMARK    3  A    between atoms: C3_4  and  N2_5 
REMARK    4  A    between atoms: N2_5  and  C4_6 
REMARK    5  A    between atoms: C4_6  and  C5_7 
REMARK    6  A    between atoms: C5_7  and  O1_8 
REMARK    7  A    between atoms: O1_8  and  C6_9 
REMARK    8  A    between atoms: C10_13  and  N3_14 
REMARK    9  A    between atoms: N3_14  and  C11_15 
REMARK   10  A    between atoms: C14_19  and  C15_20 
REMARK   11  A    between atoms: N5_21  and  C16_22 
ROOT
HETATM    1  C6  UNL     1      28.127   6.001  48.212  1.00  0.00     0.070 A 
HETATM    2  C7  UNL     1      27.042   6.845  48.113  1.00  0.00     0.037 A 
HETATM    3  C8  UNL     1      25.757   6.569  48.513  1.00  0.00     0.005 A 
HETATM    4  C9  UNL     1      25.525   5.329  49.068  1.00  0.00     0.030 A 
HETATM    5  C10 UNL     1      26.572   4.445  49.194  1.00  0.00     0.052 A 
HETATM    6  C19 UNL     1      27.837   4.754  48.785  1.00  0.00     0.066 A 
ENDROOT
BRANCH   5   7
HETATM    7  N3  UNL     1      26.347   3.167  49.765  1.00  0.00    -0.188 N 
HETATM    8  H11 UNL     1      26.653   2.280  49.284  1.00  0.00     0.184 HD
BRANCH   7   9
HETATM    9  C11 UNL     1      25.765   2.646  50.935  1.00  0.00     0.727 A 
HETATM   10  N4  UNL     1      24.812   3.428  51.525  1.00  0.00    -0.075 NA
HETATM   11  C12 UNL     1      24.185   3.014  52.662  1.00  0.00     0.139 A 
HETATM   12  C13 UNL     1      24.572   1.787  53.156  1.00  0.00     0.053 A 
HETATM   13  C14 UNL     1      25.527   0.990  52.575  1.00  0.00     0.094 A 
HETATM   14  N6  UNL     1      26.114   1.444  51.457  1.00  0.00    -0.061 NA
BRANCH  13  15
HETATM   15  C15 UNL     1      25.951  -0.292  53.065  1.00  0.00     0.148 C 
HETATM   16  N5  UNL     1      26.777  -0.750  53.911  1.00  0.00    -0.271 NA
BRANCH  16  17
HETATM   17  C16 UNL     1      27.604   0.104  54.687  1.00  0.00     0.112 C 
HETATM   18  C17 UNL     1      28.868   0.441  54.610  1.00  0.00    -0.012 C 
HETATM   19  C18 UNL     1      29.771  -0.065  53.576  1.00  0.00     0.037 C 
ENDBRANCH  16  17
ENDBRANCH  13  15
ENDBRANCH   7   9
ENDBRANCH   5   7
BRANCH   1  20
HETATM   20  O1  UNL     1      29.416   6.152  47.864  1.00  0.00    -0.349 OA
BRANCH  20  21
HETATM   21  C5  UNL     1      30.433   7.005  48.171  1.00  0.00     0.198 C 
BRANCH  21  22
HETATM   22  C4  UNL     1      31.662   6.251  48.609  1.00  0.00     0.188 C 
BRANCH  22  23
HETATM   23  N2  UNL     1      31.554   4.815  48.446  1.00  0.00    -0.228 NA
BRANCH  23  24
HETATM   24  C3  UNL     1      32.442   4.186  47.792  1.00  0.00     0.095 C 
BRANCH  24  25
HETATM   25  N1  UNL     1      33.327   3.479  47.212  1.00  0.00    -0.201 NA
BRANCH  25  26
HETATM   26  C2  UNL     1      34.617   3.403  47.840  1.00  0.00     0.118 C 
HETATM   27  C1  UNL     1      35.036   4.594  48.296  1.00  0.00     0.033 C 
ENDBRANCH  25  26
ENDBRANCH  24  25
ENDBRANCH  23  24
ENDBRANCH  22  23
ENDBRANCH  21  22
ENDBRANCH  20  21
ENDBRANCH   1  20
TORSDOF 11
ENDMDL
MODEL 2
REMARK VINA RESULT:      -7.0      3.888      7.184
REMARK  11 active torsions:
REMARK  status: ('A' for Active; 'I' for Inactive)
REMARK    1  A    between atoms: C2_2  and  N1_3 
REMARK    2  A    between atoms: N1_3  and  C3_4 
REMARK    3  A    between atoms: C3_4  and  N2_5 
REMARK    4  A    between atoms: N2_5  and  C4_6 
REMARK    5  A    between atoms: C4_6  and  C5_7 
REMARK    6  A    between atoms: C5_7  and  O1_8 
REMARK    7  A    between atoms: O1_8  and  C6_9 
REMARK    8  A    between atoms: C10_13  and  N3_14 
REMARK    9  A    between atoms: N3_14  and  C11_15 
REMARK   10  A    between atoms: C14_19  and  C15_20 
REMARK   11  A    between atoms: N5_21  and  C16_22 
ROOT
HETATM    1  C6  UNL     1      27.155   2.063  52.139  1.00  0.00     0.070 A 
HETATM    2  C7  UNL     1      28.039   1.871  53.178  1.00  0.00     0.037 A 
HETATM    3  C8  UNL     1      27.894   0.985  54.218  1.00  0.00     0.005 A 
HETATM    4  C9  UNL     1      26.754   0.211  54.228  1.00  0.00     0.030 A 
HETATM    5  C10 UNL     1      25.834   0.358  53.215  1.00  0.00     0.052 A 
HETATM    6  C19 UNL     1      26.013   1.250  52.196  1.00  0.00     0.066 A 
ENDROOT
BRANCH   5   7
HETATM    7  N3  UNL     1      24.658  -0.433  53.212  1.00  0.00    -0.188 N 
HETATM    8  H11 UNL     1      24.669  -1.446  52.919  1.00  0.00     0.184 HD
BRANCH   7   9
HETATM    9  C11 UNL     1      23.297  -0.262  53.521  1.00  0.00     0.727 A 
HETATM   10  N4  UNL     1      22.778  -1.138  54.431  1.00  0.00    -0.075 NA
HETATM   11  C12 UNL     1      21.468  -1.056  54.801  1.00  0.00     0.139 A 
HETATM   12  C13 UNL     1      20.731  -0.055  54.207  1.00  0.00     0.053 A 
HETATM   13  C14 UNL     1      21.239   0.833  53.290  1.00  0.00     0.094 A 
HETATM   14  N6  UNL     1      22.533   0.709  52.960  1.00  0.00    -0.061 NA
BRANCH  13  15
HETATM   15  C15 UNL     1      20.497   1.886  52.654  1.00  0.00     0.148 C 
HETATM   16  N5  UNL     1      20.015   2.139  51.509  1.00  0.00    -0.271 NA
BRANCH  16  17
HETATM   17  C16 UNL     1      20.153   1.235  50.423  1.00  0.00     0.112 C 
HETATM   18  C17 UNL     1      21.089   1.047  49.525  1.00  0.00    -0.012 C 
HETATM   19  C18 UNL     1      22.319   1.837  49.472  1.00  0.00     0.037 C 
ENDBRANCH  16  17
ENDBRANCH  13  15
ENDBRANCH   7   9
ENDBRANCH   5   7
BRANCH   1  20
HETATM   20  O1  UNL     1      27.184   2.885  51.077  1.00  0.00    -0.349 OA
BRANCH  20  21
HETATM   21  C5  UNL     1      26.437   3.081  49.954  1.00  0.00     0.198 C 
BRANCH  21  22
HETATM   22  C4  UNL     1      26.872   4.323  49.221  1.00  0.00     0.188 C 
BRANCH  22  23
HETATM   23  N2  UNL     1      25.871   5.370  49.203  1.00  0.00    -0.228 NA
BRANCH  23  24
HETATM   24  C3  UNL     1      24.757   5.187  49.784  1.00  0.00     0.095 C 
BRANCH  24  25
HETATM   25  N1  UNL     1      23.646   5.105  50.398  1.00  0.00    -0.201 NA
BRANCH  25  26
HETATM   26  C2  UNL     1      23.676   5.263  51.826  1.00  0.00     0.118 C 
HETATM   27  C1  UNL     1      23.626   4.087  52.472  1.00  0.00     0.033 C 
ENDBRANCH  25  26
ENDBRANCH  24  25
ENDBRANCH  23  24
ENDBRANCH  22  23
ENDBRANCH  21  22
ENDBRANCH  20  21
ENDBRANCH   1  20
TORSDOF 11
ENDMDL
MODEL 3
REMARK VINA RESULT:      -6.9      2.119      7.628
REMARK  11 active torsions:
REMARK  status: ('A' for Active; 'I' for Inactive)
REMARK    1  A    between atoms: C2_2  and  N1_3 
REMARK    2  A    between atoms: N1_3  and  C3_4 
REMARK    3  A    between atoms: C3_4  and  N2_5 
REMARK    4  A    between atoms: N2_5  and  C4_6 
REMARK    5  A    between atoms: C4_6  and  C5_7 
REMARK    6  A    between atoms: C5_7  and  O1_8 
REMARK    7  A    between atoms: O1_8  and  C6_9 
REMARK    8  A    between atoms: C10_13  and  N3_14 
REMARK    9  A    between atoms: N3_14  and  C11_15 
REMARK   10  A    between atoms: C14_19  and  C15_20 
REMARK   11  A    between atoms: N5_21  and  C16_22 
ROOT
HETATM    1  C6  UNL     1      25.485   3.443  50.375  1.00  0.00     0.070 A 
HETATM    2  C7  UNL     1      24.493   4.385  50.213  1.00  0.00     0.037 A 
HETATM    3  C8  UNL     1      24.574   5.533  49.463  1.00  0.00     0.005 A 
HETATM    4  C9  UNL     1      25.763   5.771  48.807  1.00  0.00     0.030 A 
HETATM    5  C10 UNL     1      26.791   4.864  48.932  1.00  0.00     0.052 A 
HETATM    6  C19 UNL     1      26.673   3.732  49.687  1.00  0.00     0.066 A 
ENDROOT
BRANCH   5   7
HETATM    7  N3  UNL     1      28.018   5.095  48.261  1.00  0.00    -0.188 N 
HETATM    8  H11 UNL     1      28.279   4.577  47.382  1.00  0.00     0.184 HD
BRANCH   7   9
HETATM    9  C11 UNL     1      29.149   5.914  48.430  1.00  0.00     0.727 A 
HETATM   10  N4  UNL     1      28.905   7.256  48.516  1.00  0.00    -0.075 NA
HETATM   11  C12 UNL     1      29.932   8.136  48.682  1.00  0.00     0.139 A 
HETATM   12  C13 UNL     1      31.195   7.589  48.755  1.00  0.00     0.053 A 
HETATM   13  C14 UNL     1      31.455   6.243  48.670  1.00  0.00     0.094 A 
HETATM   14  N6  UNL     1      30.410   5.420  48.507  1.00  0.00    -0.061 NA
BRANCH  13  15
HETATM   15  C15 UNL     1      32.759   5.643  48.743  1.00  0.00     0.148 C 
HETATM   16  N5  UNL     1      33.559   5.035  47.971  1.00  0.00    -0.271 NA
BRANCH  16  17
HETATM   17  C16 UNL     1      33.242   4.786  46.609  1.00  0.00     0.112 C 
HETATM   18  C17 UNL     1      32.714   3.762  45.984  1.00  0.00    -0.012 C 
HETATM   19  C18 UNL     1      32.304   2.532  46.662  1.00  0.00     0.037 C 
ENDBRANCH  16  17
ENDBRANCH  13  15
ENDBRANCH   7   9
ENDBRANCH   5   7
BRANCH   1  20
HETATM   20  O1  UNL     1      25.527   2.294  51.071  1.00  0.00    -0.349 OA
BRANCH  20  21
HETATM   21  C5  UNL     1      26.350   1.723  51.995  1.00  0.00     0.198 C 
BRANCH  21  22
HETATM   22  C4  UNL     1      25.834   0.375  52.425  1.00  0.00     0.188 C 
BRANCH  22  23
HETATM   23  N2  UNL     1      25.965   0.128  53.847  1.00  0.00    -0.228 NA
BRANCH  23  24
HETATM   24  C3  UNL     1      27.076   0.338  54.424  1.00  0.00     0.095 C 
BRANCH  24  25
HETATM   25  N1  UNL     1      28.198   0.638  54.945  1.00  0.00    -0.201 NA
BRANCH  25  26
HETATM   26  C2  UNL     1      29.337   0.666  54.070  1.00  0.00     0.118 C 
HETATM   27  C1  UNL     1      29.675  -0.557  53.630  1.00  0.00     0.033 C 
ENDBRANCH  25  26
ENDBRANCH  24  25
ENDBRANCH  23  24
ENDBRANCH  22  23
ENDBRANCH  21  22
ENDBRANCH  20  21
ENDBRANCH   1  20
TORSDOF 11
ENDMDL
MODEL 4
REMARK VINA RESULT:      -6.9      4.828      8.032
REMARK  11 active torsions:
REMARK  status: ('A' for Active; 'I' for Inactive)
REMARK    1  A    between atoms: C2_2  and  N1_3 
REMARK    2  A    between atoms: N1_3  and  C3_4 
REMARK    3  A    between atoms: C3_4  and  N2_5 
REMARK    4  A    between atoms: N2_5  and  C4_6 
REMARK    5  A    between atoms: C4_6  and  C5_7 
REMARK    6  A    between atoms: C5_7  and  O1_8 
REMARK    7  A    between atoms: O1_8  and  C6_9 
REMARK    8  A    between atoms: C10_13  and  N3_14 
REMARK    9  A    between atoms: N3_14  and  C11_15 
REMARK   10  A    between atoms: C14_19  and  C15_20 
REMARK   11  A    between atoms: N5_21  and  C16_22 
ROOT
HETATM    1  C6  UNL     1      23.272  -0.047  53.348  1.00  0.00     0.070 A 
HETATM    2  C7  UNL     1      22.579  -1.049  53.990  1.00  0.00     0.037 A 
HETATM    3  C8  UNL     1      21.238  -1.050  54.289  1.00  0.00     0.005 A 
HETATM    4  C9  UNL     1      20.511   0.059  53.913  1.00  0.00     0.030 A 
HETATM    5  C10 UNL     1      21.150   1.092  53.267  1.00  0.00     0.052 A 
HETATM    6  C19 UNL     1      22.486   1.057  52.986  1.00  0.00     0.066 A 
ENDROOT
BRANCH   5   7
HETATM    7  N3  UNL     1      20.414   2.238  52.873  1.00  0.00    -0.188 N 
HETATM    8  H11 UNL     1      19.439   2.423  53.228  1.00  0.00     0.184 HD
BRANCH   7   9
HETATM    9  C11 UNL     1      20.609   3.355  52.041  1.00  0.00     0.727 A 
HETATM   10  N4  UNL     1      19.557   3.689  51.235  1.00  0.00    -0.075 NA
HETATM   11  C12 UNL     1      19.644   4.757  50.393  1.00  0.00     0.139 A 
HETATM   12  C13 UNL     1      20.833   5.452  50.414  1.00  0.00     0.053 A 
HETATM   13  C14 UNL     1      21.899   5.128  51.218  1.00  0.00     0.094 A 
HETATM   14  N6  UNL     1      21.763   4.068  52.029  1.00  0.00    -0.061 NA
BRANCH  13  15
HETATM   15  C15 UNL     1      23.151   5.833  51.263  1.00  0.00     0.148 C 
HETATM   16  N5  UNL     1      24.263   5.815  50.656  1.00  0.00    -0.271 NA
BRANCH  16  17
HETATM   17  C16 UNL     1      24.525   4.901  49.601  1.00  0.00     0.112 C 
HETATM   18  C17 UNL     1      24.898   3.645  49.574  1.00  0.00    -0.012 C 
HETATM   19  C18 UNL     1      25.143   2.855  50.781  1.00  0.00     0.037 C 
ENDBRANCH  16  17
ENDBRANCH  13  15
ENDBRANCH   7   9
ENDBRANCH   5   7
BRANCH   1  20
HETATM   20  O1  UNL     1      24.565   0.071  53.002  1.00  0.00    -0.349 OA
BRANCH  20  21
HETATM   21  C5  UNL     1      25.758  -0.418  53.442  1.00  0.00     0.198 C 
BRANCH  21  22
HETATM   22  C4  UNL     1      26.002  -0.043  54.881  1.00  0.00     0.188 C 
BRANCH  22  23
HETATM   23  N2  UNL     1      27.209   0.736  55.083  1.00  0.00    -0.228 NA
BRANCH  23  24
HETATM   24  C3  UNL     1      28.188   0.598  54.287  1.00  0.00     0.095 C 
BRANCH  24  25
HETATM   25  N1  UNL     1      29.167   0.566  53.475  1.00  0.00    -0.201 NA
BRANCH  25  26
HETATM   26  C2  UNL     1      29.985  -0.614  53.484  1.00  0.00     0.118 C 
HETATM   27  C1  UNL     1      29.264  -1.739  53.348  1.00  0.00     0.033 C 
ENDBRANCH  25  26
ENDBRANCH  24  25
ENDBRANCH  23  24
ENDBRANCH  22  23
ENDBRANCH  21  22
ENDBRANCH  20  21
ENDBRANCH   1  20
TORSDOF 11
ENDMDL
MODEL 5
REMARK VINA RESULT:      -6.9      4.567      7.941
REMARK  11 active torsions:
REMARK  status: ('A' for Active; 'I' for Inactive)
REMARK    1  A    between atoms: C2_2  and  N1_3 
REMARK    2  A    between atoms: N1_3  and  C3_4 
REMARK    3  A    between atoms: C3_4  and  N2_5 
REMARK    4  A    between atoms: N2_5  and  C4_6 
REMARK    5  A    between atoms: C4_6  and  C5_7 
REMARK    6  A    between atoms: C5_7  and  O1_8 
REMARK    7  A    between atoms: O1_8  and  C6_9 
REMARK    8  A    between atoms: C10_13  and  N3_14 
REMARK    9  A    between atoms: N3_14  and  C11_15 
REMARK   10  A    between atoms: C14_19  and  C15_20 
REMARK   11  A    between atoms: N5_21  and  C16_22 
ROOT
HETATM    1  C6  UNL     1      23.842  -0.615  54.020  1.00  0.00     0.070 A 
HETATM    2  C7  UNL     1      22.822  -1.110  54.804  1.00  0.00     0.037 A 
HETATM    3  C8  UNL     1      21.515  -0.686  54.803  1.00  0.00     0.005 A 
HETATM    4  C9  UNL     1      21.187   0.333  53.935  1.00  0.00     0.030 A 
HETATM    5  C10 UNL     1      22.164   0.866  53.126  1.00  0.00     0.052 A 
HETATM    6  C19 UNL     1      23.454   0.418  53.155  1.00  0.00     0.066 A 
ENDROOT
BRANCH   5   7
HETATM    7  N3  UNL     1      21.840   1.913  52.227  1.00  0.00    -0.188 N 
HETATM    8  H11 UNL     1      21.044   2.578  52.411  1.00  0.00     0.184 HD
BRANCH   7   9
HETATM    9  C11 UNL     1      22.318   2.406  51.000  1.00  0.00     0.727 A 
HETATM   10  N4  UNL     1      21.425   2.396  49.965  1.00  0.00    -0.075 NA
HETATM   11  C12 UNL     1      21.789   2.854  48.734  1.00  0.00     0.139 A 
HETATM   12  C13 UNL     1      23.082   3.312  48.614  1.00  0.00     0.053 A 
HETATM   13  C14 UNL     1      23.991   3.328  49.644  1.00  0.00     0.094 A 
HETATM   14  N6  UNL     1      23.583   2.867  50.836  1.00  0.00    -0.061 NA
BRANCH  13  15
HETATM   15  C15 UNL     1      25.345   3.800  49.551  1.00  0.00     0.148 C 
HETATM   16  N5  UNL     1      25.975   4.888  49.712  1.00  0.00    -0.271 NA
BRANCH  16  17
HETATM   17  C16 UNL     1      25.316   6.085  50.096  1.00  0.00     0.112 C 
HETATM   18  C17 UNL     1      24.689   7.019  49.423  1.00  0.00    -0.012 C 
HETATM   19  C18 UNL     1      24.535   6.993  47.969  1.00  0.00     0.037 C 
ENDBRANCH  16  17
ENDBRANCH  13  15
ENDBRANCH   7   9
ENDBRANCH   5   7
BRANCH   1  20
HETATM   20  O1  UNL     1      25.142  -0.941  53.929  1.00  0.00    -0.349 OA
BRANCH  20  21
HETATM   21  C5  UNL     1      26.203  -0.579  53.155  1.00  0.00     0.198 C 
BRANCH  21  22
HETATM   22  C4  UNL     1      27.003  -1.783  52.731  1.00  0.00     0.188 C 
BRANCH  22  23
HETATM   23  N2  UNL     1      28.334  -1.830  53.303  1.00  0.00    -0.228 NA
BRANCH  23  24
HETATM   24  C3  UNL     1      28.997  -0.757  53.446  1.00  0.00     0.095 C 
BRANCH  24  25
HETATM   25  N1  UNL     1      29.736   0.261  53.640  1.00  0.00    -0.201 NA
BRANCH  25  26
HETATM   26  C2  UNL     1      29.166   1.350  54.384  1.00  0.00     0.118 C 
HETATM   27  C1  UNL     1      28.620   2.284  53.588  1.00  0.00     0.033 C 
ENDBRANCH  25  26
ENDBRANCH  24  25
ENDBRANCH  23  24
ENDBRANCH  22  23
ENDBRANCH  21  22
ENDBRANCH  20  21
ENDBRANCH   1  20
TORSDOF 11
ENDMDL
MODEL 6
REMARK VINA RESULT:      -6.8      4.615      7.915
REMARK  11 active torsions:
REMARK  status: ('A' for Active; 'I' for Inactive)
REMARK    1  A    between atoms: C2_2  and  N1_3 
REMARK    2  A    between atoms: N1_3  and  C3_4 
REMARK    3  A    between atoms: C3_4  and  N2_5 
REMARK    4  A    between atoms: N2_5  and  C4_6 
REMARK    5  A    between atoms: C4_6  and  C5_7 
REMARK    6  A    between atoms: C5_7  and  O1_8 
REMARK    7  A    between atoms: O1_8  and  C6_9 
REMARK    8  A    between atoms: C10_13  and  N3_14 
REMARK    9  A    between atoms: N3_14  and  C11_15 
REMARK   10  A    between atoms: C14_19  and  C15_20 
REMARK   11  A    between atoms: N5_21  and  C16_22 
ROOT
HETATM    1  C6  UNL     1      24.218  -0.706  54.306  1.00  0.00     0.070 A 
HETATM    2  C7  UNL     1      23.083  -1.186  54.923  1.00  0.00     0.037 A 
HETATM    3  C8  UNL     1      21.787  -0.991  54.511  1.00  0.00     0.005 A 
HETATM    4  C9  UNL     1      21.598  -0.241  53.370  1.00  0.00     0.030 A 
HETATM    5  C10 UNL     1      22.694   0.265  52.711  1.00  0.00     0.052 A 
HETATM    6  C19 UNL     1      23.969   0.049  53.150  1.00  0.00     0.066 A 
ENDROOT
BRANCH   5   7
HETATM    7  N3  UNL     1      22.514   1.036  51.535  1.00  0.00    -0.188 N 
HETATM    8  H11 UNL     1      22.492   0.596  50.578  1.00  0.00     0.184 HD
BRANCH   7   9
HETATM    9  C11 UNL     1      22.330   2.392  51.207  1.00  0.00     0.727 A 
HETATM   10  N4  UNL     1      21.412   3.067  51.961  1.00  0.00    -0.075 NA
HETATM   11  C12 UNL     1      21.160   4.386  51.726  1.00  0.00     0.139 A 
HETATM   12  C13 UNL     1      21.877   4.968  50.703  1.00  0.00     0.053 A 
HETATM   13  C14 UNL     1      22.802   4.302  49.936  1.00  0.00     0.094 A 
HETATM   14  N6  UNL     1      23.013   3.005  50.209  1.00  0.00    -0.061 NA
BRANCH  13  15
HETATM   15  C15 UNL     1      23.565   4.880  48.865  1.00  0.00     0.148 C 
HETATM   16  N5  UNL     1      24.571   5.640  48.730  1.00  0.00    -0.271 NA
BRANCH  16  17
HETATM   17  C16 UNL     1      25.269   6.163  49.850  1.00  0.00     0.112 C 
HETATM   18  C17 UNL     1      25.073   7.202  50.624  1.00  0.00    -0.012 C 
HETATM   19  C18 UNL     1      23.954   8.129  50.453  1.00  0.00     0.037 C 
ENDBRANCH  16  17
ENDBRANCH  13  15
ENDBRANCH   7   9
ENDBRANCH   5   7
BRANCH   1  20
HETATM   20  O1  UNL     1      25.522  -0.827  54.605  1.00  0.00    -0.349 OA
BRANCH  20  21
HETATM   21  C5  UNL     1      26.709  -0.507  54.017  1.00  0.00     0.198 C 
BRANCH  21  22
HETATM   22  C4  UNL     1      27.615   0.215  54.980  1.00  0.00     0.188 C 
BRANCH  22  23
HETATM   23  N2  UNL     1      28.544   1.124  54.337  1.00  0.00    -0.228 NA
BRANCH  23  24
HETATM   24  C3  UNL     1      28.170   1.795  53.326  1.00  0.00     0.095 C 
BRANCH  24  25
HETATM   25  N1  UNL     1      27.891   2.446  52.269  1.00  0.00    -0.201 NA
BRANCH  25  26
HETATM   26  C2  UNL     1      26.737   2.020  51.526  1.00  0.00     0.118 C 
HETATM   27  C1  UNL     1      26.460   2.839  50.498  1.00  0.00     0.033 C 
ENDBRANCH  25  26
ENDBRANCH  24  25
ENDBRANCH  23  24
ENDBRANCH  22  23
ENDBRANCH  21  22
ENDBRANCH  20  21
ENDBRANCH   1  20
TORSDOF 11
ENDMDL
MODEL 7
REMARK VINA RESULT:      -6.6      2.630      7.661
REMARK  11 active torsions:
REMARK  status: ('A' for Active; 'I' for Inactive)
REMARK    1  A    between atoms: C2_2  and  N1_3 
REMARK    2  A    between atoms: N1_3  and  C3_4 
REMARK    3  A    between atoms: C3_4  and  N2_5 
REMARK    4  A    between atoms: N2_5  and  C4_6 
REMARK    5  A    between atoms: C4_6  and  C5_7 
REMARK    6  A    between atoms: C5_7  and  O1_8 
REMARK    7  A    between atoms: O1_8  and  C6_9 
REMARK    8  A    between atoms: C10_13  and  N3_14 
REMARK    9  A    between atoms: N3_14  and  C11_15 
REMARK   10  A    between atoms: C14_19  and  C15_20 
REMARK   11  A    between atoms: N5_21  and  C16_22 
ROOT
HETATM    1  C6  UNL     1      24.083   1.680  51.411  1.00  0.00     0.070 A 
HETATM    2  C7  UNL     1      22.892   1.825  50.734  1.00  0.00     0.037 A 
HETATM    3  C8  UNL     1      22.666   2.635  49.647  1.00  0.00     0.005 A 
HETATM    4  C9  UNL     1      23.732   3.377  49.185  1.00  0.00     0.030 A 
HETATM    5  C10 UNL     1      24.947   3.272  49.822  1.00  0.00     0.052 A 
HETATM    6  C19 UNL     1      25.134   2.456  50.900  1.00  0.00     0.066 A 
ENDROOT
BRANCH   5   7
HETATM    7  N3  UNL     1      26.052   4.029  49.357  1.00  0.00    -0.188 N 
HETATM    8  H11 UNL     1      26.917   3.569  48.968  1.00  0.00     0.184 HD
BRANCH   7   9
HETATM    9  C11 UNL     1      26.397   5.387  49.237  1.00  0.00     0.727 A 
HETATM   10  N4  UNL     1      25.702   6.250  50.036  1.00  0.00    -0.075 NA
HETATM   11  C12 UNL     1      25.962   7.588  49.998  1.00  0.00     0.139 A 
HETATM   12  C13 UNL     1      26.945   7.991  49.121  1.00  0.00     0.053 A 
HETATM   13  C14 UNL     1      27.652   7.135  48.312  1.00  0.00     0.094 A 
HETATM   14  N6  UNL     1      27.358   5.828  48.388  1.00  0.00    -0.061 NA
BRANCH  13  15
HETATM   15  C15 UNL     1      28.683   7.524  47.389  1.00  0.00     0.148 C 
HETATM   16  N5  UNL     1      29.948   7.500  47.328  1.00  0.00    -0.271 NA
BRANCH  16  17
HETATM   17  C16 UNL     1      30.739   6.971  48.382  1.00  0.00     0.112 C 
HETATM   18  C17 UNL     1      31.349   5.824  48.558  1.00  0.00    -0.012 C 
HETATM   19  C18 UNL     1      31.323   4.743  47.573  1.00  0.00     0.037 C 
ENDBRANCH  16  17
ENDBRANCH  13  15
ENDBRANCH   7   9
ENDBRANCH   5   7
BRANCH   1  20
HETATM   20  O1  UNL     1      24.426   0.930  52.471  1.00  0.00    -0.349 OA
BRANCH  20  21
HETATM   21  C5  UNL     1      25.567   0.370  52.962  1.00  0.00     0.198 C 
BRANCH  21  22
HETATM   22  C4  UNL     1      25.281  -0.473  54.177  1.00  0.00     0.188 C 
BRANCH  22  23
HETATM   23  N2  UNL     1      26.383  -0.535  55.117  1.00  0.00    -0.228 NA
BRANCH  23  24
HETATM   24  C3  UNL     1      27.388   0.225  54.961  1.00  0.00     0.095 C 
BRANCH  24  25
HETATM   25  N1  UNL     1      28.457   0.900  54.819  1.00  0.00    -0.201 NA
BRANCH  25  26
HETATM   26  C2  UNL     1      29.301   0.563  53.706  1.00  0.00     0.118 C 
HETATM   27  C1  UNL     1      29.629  -0.739  53.689  1.00  0.00     0.033 C 
ENDBRANCH  25  26
ENDBRANCH  24  25
ENDBRANCH  23  24
ENDBRANCH  22  23
ENDBRANCH  21  22
ENDBRANCH  20  21
ENDBRANCH   1  20
TORSDOF 11
ENDMDL
MODEL 8
REMARK VINA RESULT:      -6.6      4.407      6.319
REMARK  11 active torsions:
REMARK  status: ('A' for Active; 'I' for Inactive)
REMARK    1  A    between atoms: C2_2  and  N1_3 
REMARK    2  A    between atoms: N1_3  and  C3_4 
REMARK    3  A    between atoms: C3_4  and  N2_5 
REMARK    4  A    between atoms: N2_5  and  C4_6 
REMARK    5  A    between atoms: C4_6  and  C5_7 
REMARK    6  A    between atoms: C5_7  and  O1_8 
REMARK    7  A    between atoms: O1_8  and  C6_9 
REMARK    8  A    between atoms: C10_13  and  N3_14 
REMARK    9  A    between atoms: N3_14  and  C11_15 
REMARK   10  A    between atoms: C14_19  and  C15_20 
REMARK   11  A    between atoms: N5_21  and  C16_22 
ROOT
HETATM    1  C6  UNL     1      25.947   3.281  50.251  1.00  0.00     0.070 A 
HETATM    2  C7  UNL     1      26.317   4.481  49.684  1.00  0.00     0.037 A 
HETATM    3  C8  UNL     1      25.499   5.341  48.992  1.00  0.00     0.005 A 
HETATM    4  C9  UNL     1      24.178   4.973  48.849  1.00  0.00     0.030 A 
HETATM    5  C10 UNL     1      23.751   3.784  49.396  1.00  0.00     0.052 A 
HETATM    6  C19 UNL     1      24.594   2.954  50.078  1.00  0.00     0.066 A 
ENDROOT
BRANCH   5   7
HETATM    7  N3  UNL     1      22.395   3.394  49.258  1.00  0.00    -0.188 N 
HETATM    8  H11 UNL     1      21.970   3.179  48.318  1.00  0.00     0.184 HD
BRANCH   7   9
HETATM    9  C11 UNL     1      21.293   3.174  50.103  1.00  0.00     0.727 A 
HETATM   10  N4  UNL     1      20.591   4.289  50.468  1.00  0.00    -0.075 NA
HETATM   11  C12 UNL     1      19.504   4.184  51.284  1.00  0.00     0.139 A 
HETATM   12  C13 UNL     1      19.176   2.912  51.699  1.00  0.00     0.053 A 
HETATM   13  C14 UNL     1      19.872   1.783  51.341  1.00  0.00     0.094 A 
HETATM   14  N6  UNL     1      20.934   1.940  50.536  1.00  0.00    -0.061 NA
BRANCH  13  15
HETATM   15  C15 UNL     1      19.555   0.444  51.756  1.00  0.00     0.148 C 
HETATM   16  N5  UNL     1      19.790  -0.315  52.744  1.00  0.00    -0.271 NA
BRANCH  16  17
HETATM   17  C16 UNL     1      20.574   0.114  53.847  1.00  0.00     0.112 C 
HETATM   18  C17 UNL     1      21.865   0.145  54.073  1.00  0.00    -0.012 C 
HETATM   19  C18 UNL     1      22.859  -0.315  53.103  1.00  0.00     0.037 C 
ENDBRANCH  16  17
ENDBRANCH  13  15
ENDBRANCH   7   9
ENDBRANCH   5   7
BRANCH   1  20
HETATM   20  O1  UNL     1      26.643   2.364  50.943  1.00  0.00    -0.349 OA
BRANCH  20  21
HETATM   21  C5  UNL     1      26.374   1.421  51.890  1.00  0.00     0.198 C 
BRANCH  21  22
HETATM   22  C4  UNL     1      26.052   2.058  53.217  1.00  0.00     0.188 C 
BRANCH  22  23
HETATM   23  N2  UNL     1      27.040   1.797  54.244  1.00  0.00    -0.228 NA
BRANCH  23  24
HETATM   24  C3  UNL     1      27.545   0.637  54.352  1.00  0.00     0.095 C 
BRANCH  24  25
HETATM   25  N1  UNL     1      27.961  -0.555  54.509  1.00  0.00    -0.201 NA
BRANCH  25  26
HETATM   26  C2  UNL     1      28.826  -1.084  53.490  1.00  0.00     0.118 C 
HETATM   27  C1  UNL     1      30.048  -0.528  53.517  1.00  0.00     0.033 C 
ENDBRANCH  25  26
ENDBRANCH  24  25
ENDBRANCH  23  24
ENDBRANCH  22  23
ENDBRANCH  21  22
ENDBRANCH  20  21
ENDBRANCH   1  20
TORSDOF 11
ENDMDL
MODEL 9
REMARK VINA RESULT:      -6.6      1.751      2.999
REMARK  11 active torsions:
REMARK  status: ('A' for Active; 'I' for Inactive)
REMARK    1  A    between atoms: C2_2  and  N1_3 
REMARK    2  A    between atoms: N1_3  and  C3_4 
REMARK    3  A    between atoms: C3_4  and  N2_5 
REMARK    4  A    between atoms: N2_5  and  C4_6 
REMARK    5  A    between atoms: C4_6  and  C5_7 
REMARK    6  A    between atoms: C5_7  and  O1_8 
REMARK    7  A    between atoms: O1_8  and  C6_9 
REMARK    8  A    between atoms: C10_13  and  N3_14 
REMARK    9  A    between atoms: N3_14  and  C11_15 
REMARK   10  A    between atoms: C14_19  and  C15_20 
REMARK   11  A    between atoms: N5_21  and  C16_22 
ROOT
HETATM    1  C6  UNL     1      28.461   6.265  47.967  1.00  0.00     0.070 A 
HETATM    2  C7  UNL     1      27.387   7.126  47.902  1.00  0.00     0.037 A 
HETATM    3  C8  UNL     1      26.110   6.870  48.339  1.00  0.00     0.005 A 
HETATM    4  C9  UNL     1      25.874   5.632  48.897  1.00  0.00     0.030 A 
HETATM    5  C10 UNL     1      26.909   4.730  48.988  1.00  0.00     0.052 A 
HETATM    6  C19 UNL     1      28.167   5.020  48.543  1.00  0.00     0.066 A 
ENDROOT
BRANCH   5   7
HETATM    7  N3  UNL     1      26.681   3.454  49.562  1.00  0.00    -0.188 N 
HETATM    8  H11 UNL     1      26.807   2.565  49.010  1.00  0.00     0.184 HD
BRANCH   7   9
HETATM    9  C11 UNL     1      26.284   2.938  50.808  1.00  0.00     0.727 A 
HETATM   10  N4  UNL     1      27.294   2.508  51.624  1.00  0.00    -0.075 NA
HETATM   11  C12 UNL     1      27.016   1.993  52.854  1.00  0.00     0.139 A 
HETATM   12  C13 UNL     1      25.684   1.938  53.204  1.00  0.00     0.053 A 
HETATM   13  C14 UNL     1      24.659   2.365  52.395  1.00  0.00     0.094 A 
HETATM   14  N6  UNL     1      24.986   2.865  51.194  1.00  0.00    -0.061 NA
BRANCH  13  15
HETATM   15  C15 UNL     1      23.262   2.322  52.731  1.00  0.00     0.148 C 
HETATM   16  N5  UNL     1      22.357   1.447  52.879  1.00  0.00    -0.271 NA
BRANCH  16  17
HETATM   17  C16 UNL     1      22.618   0.062  52.702  1.00  0.00     0.112 C 
HETATM   18  C17 UNL     1      22.530  -0.976  53.497  1.00  0.00    -0.012 C 
HETATM   19  C18 UNL     1      22.089  -0.884  54.889  1.00  0.00     0.037 C 
ENDBRANCH  16  17
ENDBRANCH  13  15
ENDBRANCH   7   9
ENDBRANCH   5   7
BRANCH   1  20
HETATM   20  O1  UNL     1      29.741   6.396  47.581  1.00  0.00    -0.349 OA
BRANCH  20  21
HETATM   21  C5  UNL     1      30.923   6.736  48.166  1.00  0.00     0.198 C 
BRANCH  21  22
HETATM   22  C4  UNL     1      31.787   7.535  47.225  1.00  0.00     0.188 C 
BRANCH  22  23
HETATM   23  N2  UNL     1      32.723   6.728  46.466  1.00  0.00    -0.228 NA
BRANCH  23  24
HETATM   24  C3  UNL     1      33.197   5.666  46.975  1.00  0.00     0.095 C 
BRANCH  24  25
HETATM   25  N1  UNL     1      33.611   4.547  47.417  1.00  0.00    -0.201 NA
BRANCH  25  26
HETATM   26  C2  UNL     1      32.619   3.547  47.696  1.00  0.00     0.118 C 
HETATM   27  C1  UNL     1      32.345   2.784  46.625  1.00  0.00     0.033 C 
ENDBRANCH  25  26
ENDBRANCH  24  25
ENDBRANCH  23  24
ENDBRANCH  22  23
ENDBRANCH  21  22
ENDBRANCH  20  21
ENDBRANCH   1  20
TORSDOF 11
ENDMDL
