MODEL 1
REMARK VINA RESULT:      -7.6      0.000      0.000
REMARK  4 active torsions:
REMARK  status: ('A' for Active; 'I' for Inactive)
REMARK    1  A    between atoms: C2_2  and  C3_4 
REMARK    2  A    between atoms: C3_4  and  C4_5 
REMARK    3  A    between atoms: C4_5  and  O1_6 
REMARK    4  A    between atoms: O1_6  and  C5_7 
ROOT
HETATM    1  C5  UNL     1      24.438   0.633  52.863  1.00  0.00     0.091 A 
HETATM    2  C6  UNL     1      24.255   1.995  53.088  1.00  0.00     0.041 A 
HETATM    3  C7  UNL     1      25.241   2.865  53.466  1.00  0.00     0.033 A 
HETATM    4  C8  UNL     1      26.475   2.370  53.636  1.00  0.00     0.042 A 
HETATM    5  C9  UNL     1      26.626   0.994  53.406  1.00  0.00     0.053 A 
HETATM    6  C10 UNL     1      25.692   0.010  53.017  1.00  0.00     0.080 A 
HETATM    7 CL1  UNL     1      25.942  -1.707  52.747  1.00  0.00    -0.081 Cl
HETATM    8  C11 UNL     1      27.759   0.015  53.468  1.00  0.00     0.291 A 
HETATM    9  C12 UNL     1      29.014   0.821  53.914  1.00  0.00     0.437 A 
HETATM   10  C13 UNL     1      29.178   1.855  54.083  1.00  0.00     0.220 A 
HETATM   11  N1  UNL     1      29.011   0.462  53.870  1.00  0.00     0.030 N 
HETATM   12  C14 UNL     1      29.776  -0.677  53.919  1.00  0.00     0.354 A 
HETATM   13  N2  UNL     1      28.438  -1.045  53.530  1.00  0.00    -0.248 NA
HETATM   14  N3  UNL     1      27.859   2.565  53.937  1.00  0.00    -0.359 N 
HETATM   15  H11 UNL     1      27.931   3.566  54.094  1.00  0.00     0.161 HD
ENDROOT
BRANCH   1  16
HETATM   16  O1  UNL     1      23.362  -0.094  52.486  1.00  0.00    -0.349 OA
BRANCH  16  17
HETATM   17  C4  UNL     1      22.021   0.030  52.594  1.00  0.00     0.182 C 
BRANCH  17  18
HETATM   18  C3  UNL     1      21.515  -0.086  53.994  1.00  0.00     0.092 C 
BRANCH  18  19
HETATM   19  C2  UNL     1      22.123  -1.206  54.730  1.00  0.00     0.074 C 
HETATM   20  C1  UNL     1      23.170  -1.426  55.585  1.00  0.00     0.072 C 
HETATM   21  F1  UNL     1      21.788  -2.498  54.752  1.00  0.00    -0.215 F 
ENDBRANCH  18  19
ENDBRANCH  17  18
ENDBRANCH  16  17
ENDBRANCH   1  16
TORSDOF 4
ENDMDL
MODEL 2
REMARK VINA RESULT:      -7.5      0.982      1.368
REMARK  4 active torsions:
REMARK  status: ('A' for Active; 'I' for Inactive)
REMARK    1  A    between atoms: C2_2  and  C3_4 
REMARK    2  A    between atoms: C3_4  and  C4_5 
REMARK    3  A    between atoms: C4_5  and  O1_6 
REMARK    4  A    between atoms: O1_6  and  C5_7 
ROOT
HETATM    1  C5  UNL     1      24.505   0.345  52.914  1.00  0.00     0.091 A 
HETATM    2  C6  UNL     1      24.198   1.680  53.169  1.00  0.00     0.041 A 
HETATM    3  C7  UNL     1      25.108   2.639  53.519  1.00  0.00     0.033 A 
HETATM    4  C8  UNL     1      26.392   2.267  53.628  1.00  0.00     0.042 A 
HETATM    5  C9  UNL     1      26.668   0.916  53.368  1.00  0.00     0.053 A 
HETATM    6  C10 UNL     1      25.820  -0.151  53.004  1.00  0.00     0.080 A 
HETATM    7 CL1  UNL     1      26.227  -1.831  52.694  1.00  0.00    -0.081 Cl
HETATM    8  C11 UNL     1      27.895   0.055  53.365  1.00  0.00     0.291 A 
HETATM    9  C12 UNL     1      29.083   0.976  53.771  1.00  0.00     0.437 A 
HETATM   10  C13 UNL     1      29.150   2.019  53.949  1.00  0.00     0.220 A 
HETATM   11  N1  UNL     1      29.112   0.620  53.720  1.00  0.00     0.030 N 
HETATM   12  C14 UNL     1      29.989  -0.438  53.717  1.00  0.00     0.354 A 
HETATM   13  N2  UNL     1      28.678  -0.933  53.380  1.00  0.00    -0.248 NA
HETATM   14  N3  UNL     1      27.762   2.596  53.872  1.00  0.00    -0.359 N 
HETATM   15  H11 UNL     1      27.741   3.597  54.043  1.00  0.00     0.161 HD
ENDROOT
BRANCH   1  16
HETATM   16  O1  UNL     1      23.491  -0.480  52.571  1.00  0.00    -0.349 OA
BRANCH  16  17
HETATM   17  C4  UNL     1      22.658  -1.318  53.228  1.00  0.00     0.182 C 
BRANCH  17  18
HETATM   18  C3  UNL     1      22.238  -0.823  54.572  1.00  0.00     0.092 C 
BRANCH  18  19
HETATM   19  C2  UNL     1      21.133   0.146  54.503  1.00  0.00     0.074 C 
HETATM   20  C1  UNL     1      20.423   0.831  53.552  1.00  0.00     0.072 C 
HETATM   21  F1  UNL     1      20.436   0.721  55.486  1.00  0.00    -0.215 F 
ENDBRANCH  18  19
ENDBRANCH  17  18
ENDBRANCH  16  17
ENDBRANCH   1  16
TORSDOF 4
ENDMDL
MODEL 3
REMARK VINA RESULT:      -7.5      3.236      5.461
REMARK  4 active torsions:
REMARK  status: ('A' for Active; 'I' for Inactive)
REMARK    1  A    between atoms: C2_2  and  C3_4 
REMARK    2  A    between atoms: C3_4  and  C4_5 
REMARK    3  A    between atoms: C4_5  and  O1_6 
REMARK    4  A    between atoms: O1_6  and  C5_7 
ROOT
HETATM    1  C5  UNL     1      26.956   1.236  53.629  1.00  0.00     0.091 A 
HETATM    2  C6  UNL     1      27.066   2.052  52.507  1.00  0.00     0.041 A 
HETATM    3  C7  UNL     1      26.067   2.270  51.597  1.00  0.00     0.033 A 
HETATM    4  C8  UNL     1      24.896   1.650  51.799  1.00  0.00     0.042 A 
HETATM    5  C9  UNL     1      24.818   0.832  52.937  1.00  0.00     0.053 A 
HETATM    6  C10 UNL     1      25.771   0.536  53.933  1.00  0.00     0.080 A 
HETATM    7 CL1  UNL     1      25.615  -0.505  55.339  1.00  0.00    -0.081 Cl
HETATM    8  C11 UNL     1      23.769  -0.037  53.562  1.00  0.00     0.291 A 
HETATM    9  C12 UNL     1      22.515   0.055  52.643  1.00  0.00     0.437 A 
HETATM   10  C13 UNL     1      22.298   0.638  51.784  1.00  0.00     0.220 A 
HETATM   11  N1  UNL     1      22.539  -0.164  52.930  1.00  0.00     0.030 N 
HETATM   12  C14 UNL     1      21.865  -1.090  53.687  1.00  0.00     0.354 A 
HETATM   13  N2  UNL     1      23.176  -0.906  54.255  1.00  0.00    -0.248 NA
HETATM   14  N3  UNL     1      23.541   1.402  51.414  1.00  0.00    -0.359 N 
HETATM   15  H11 UNL     1      23.417   1.982  50.589  1.00  0.00     0.161 HD
ENDROOT
BRANCH   1  16
HETATM   16  O1  UNL     1      28.033   1.128  54.439  1.00  0.00    -0.349 OA
BRANCH  16  17
HETATM   17  C4  UNL     1      28.935   0.165  54.730  1.00  0.00     0.182 C 
BRANCH  17  18
HETATM   18  C3  UNL     1      29.515  -0.504  53.529  1.00  0.00     0.092 C 
BRANCH  18  19
HETATM   19  C2  UNL     1      28.915  -1.822  53.265  1.00  0.00     0.074 C 
HETATM   20  C1  UNL     1      27.771  -2.341  52.718  1.00  0.00     0.072 C 
HETATM   21  F1  UNL     1      29.375  -3.044  53.546  1.00  0.00    -0.215 F 
ENDBRANCH  18  19
ENDBRANCH  17  18
ENDBRANCH  16  17
ENDBRANCH   1  16
TORSDOF 4
ENDMDL
MODEL 4
REMARK VINA RESULT:      -7.3      3.952      6.727
REMARK  4 active torsions:
REMARK  status: ('A' for Active; 'I' for Inactive)
REMARK    1  A    between atoms: C2_2  and  C3_4 
REMARK    2  A    between atoms: C3_4  and  C4_5 
REMARK    3  A    between atoms: C4_5  and  O1_6 
REMARK    4  A    between atoms: O1_6  and  C5_7 
ROOT
HETATM    1  C5  UNL     1      24.305  -0.076  53.666  1.00  0.00     0.091 A 
HETATM    2  C6  UNL     1      24.173  -0.871  54.802  1.00  0.00     0.041 A 
HETATM    3  C7  UNL     1      22.992  -1.381  55.268  1.00  0.00     0.033 A 
HETATM    4  C8  UNL     1      21.877  -1.092  54.583  1.00  0.00     0.042 A 
HETATM    5  C9  UNL     1      22.042  -0.287  53.445  1.00  0.00     0.053 A 
HETATM    6  C10 UNL     1      23.197   0.290  52.876  1.00  0.00     0.080 A 
HETATM    7 CL1  UNL     1      23.340   1.297  51.444  1.00  0.00    -0.081 Cl
HETATM    8  C11 UNL     1      21.135   0.289  52.400  1.00  0.00     0.291 A 
HETATM    9  C12 UNL     1      19.693  -0.168  52.765  1.00  0.00     0.437 A 
HETATM   10  C13 UNL     1      19.316  -0.817  53.515  1.00  0.00     0.220 A 
HETATM   11  N1  UNL     1      19.770   0.059  52.495  1.00  0.00     0.030 N 
HETATM   12  C14 UNL     1      19.231   0.795  51.468  1.00  0.00     0.354 A 
HETATM   13  N2  UNL     1      20.659   0.990  51.467  1.00  0.00    -0.248 NA
HETATM   14  N3  UNL     1      20.466  -1.231  54.394  1.00  0.00    -0.359 N 
HETATM   15  H11 UNL     1      20.184  -1.850  55.147  1.00  0.00     0.161 HD
ENDROOT
BRANCH   1  16
HETATM   16  O1  UNL     1      25.544   0.345  53.331  1.00  0.00    -0.349 OA
BRANCH  16  17
HETATM   17  C4  UNL     1      26.450   0.035  52.376  1.00  0.00     0.182 C 
BRANCH  17  18
HETATM   18  C3  UNL     1      27.317  -1.129  52.721  1.00  0.00     0.092 C 
BRANCH  18  19
HETATM   19  C2  UNL     1      28.450  -0.760  53.585  1.00  0.00     0.074 C 
HETATM   20  C1  UNL     1      29.811  -0.916  53.619  1.00  0.00     0.072 C 
HETATM   21  F1  UNL     1      28.463  -0.099  54.745  1.00  0.00    -0.215 F 
ENDBRANCH  18  19
ENDBRANCH  17  18
ENDBRANCH  16  17
ENDBRANCH   1  16
TORSDOF 4
ENDMDL
MODEL 5
REMARK VINA RESULT:      -7.3      4.211      6.332
REMARK  4 active torsions:
REMARK  status: ('A' for Active; 'I' for Inactive)
REMARK    1  A    between atoms: C2_2  and  C3_4 
REMARK    2  A    between atoms: C3_4  and  C4_5 
REMARK    3  A    between atoms: C4_5  and  O1_6 
REMARK    4  A    between atoms: O1_6  and  C5_7 
ROOT
HETATM    1  C5  UNL     1      26.025   1.058  52.112  1.00  0.00     0.091 A 
HETATM    2  C6  UNL     1      27.070   0.611  52.916  1.00  0.00     0.041 A 
HETATM    3  C7  UNL     1      26.920  -0.151  54.042  1.00  0.00     0.033 A 
HETATM    4  C8  UNL     1      25.674  -0.492  54.401  1.00  0.00     0.042 A 
HETATM    5  C9  UNL     1      24.643  -0.024  53.572  1.00  0.00     0.053 A 
HETATM    6  C10 UNL     1      24.678   0.761  52.400  1.00  0.00     0.080 A 
HETATM    7 CL1  UNL     1      23.345   1.321  51.404  1.00  0.00    -0.081 Cl
HETATM    8  C11 UNL     1      23.148  -0.130  53.559  1.00  0.00     0.291 A 
HETATM    9  C12 UNL     1      22.753  -0.969  54.809  1.00  0.00     0.437 A 
HETATM   10  C13 UNL     1      23.329  -1.482  55.537  1.00  0.00     0.220 A 
HETATM   11  N1  UNL     1      22.514  -0.813  54.588  1.00  0.00     0.030 N 
HETATM   12  C14 UNL     1      21.175  -0.635  54.337  1.00  0.00     0.354 A 
HETATM   13  N2  UNL     1      21.925   0.065  53.324  1.00  0.00    -0.248 NA
HETATM   14  N3  UNL     1      24.782  -1.187  55.275  1.00  0.00    -0.359 N 
HETATM   15  H11 UNL     1      25.402  -1.638  55.941  1.00  0.00     0.161 HD
ENDROOT
BRANCH   1  16
HETATM   16  O1  UNL     1      26.337   1.800  51.026  1.00  0.00    -0.349 OA
BRANCH  16  17
HETATM   17  C4  UNL     1      26.742   3.069  50.801  1.00  0.00     0.182 C 
BRANCH  17  18
HETATM   18  C3  UNL     1      26.061   3.726  49.647  1.00  0.00     0.092 C 
BRANCH  18  19
HETATM   19  C2  UNL     1      26.930   4.678  48.938  1.00  0.00     0.074 C 
HETATM   20  C1  UNL     1      26.934   6.003  48.588  1.00  0.00     0.072 C 
HETATM   21  F1  UNL     1      28.106   4.481  48.338  1.00  0.00    -0.215 F 
ENDBRANCH  18  19
ENDBRANCH  17  18
ENDBRANCH  16  17
ENDBRANCH   1  16
TORSDOF 4
ENDMDL
MODEL 6
REMARK VINA RESULT:      -7.2      1.873      2.323
REMARK  4 active torsions:
REMARK  status: ('A' for Active; 'I' for Inactive)
REMARK    1  A    between atoms: C2_2  and  C3_4 
REMARK    2  A    between atoms: C3_4  and  C4_5 
REMARK    3  A    between atoms: C4_5  and  O1_6 
REMARK    4  A    between atoms: O1_6  and  C5_7 
ROOT
HETATM    1  C5  UNL     1      23.517   0.279  53.031  1.00  0.00     0.091 A 
HETATM    2  C6  UNL     1      23.332   1.277  52.078  1.00  0.00     0.041 A 
HETATM    3  C7  UNL     1      24.302   2.144  51.654  1.00  0.00     0.033 A 
HETATM    4  C8  UNL     1      25.522   2.026  52.198  1.00  0.00     0.042 A 
HETATM    5  C9  UNL     1      25.675   1.013  53.158  1.00  0.00     0.053 A 
HETATM    6  C10 UNL     1      24.757   0.072  53.668  1.00  0.00     0.080 A 
HETATM    7 CL1  UNL     1      25.009  -1.176  54.878  1.00  0.00    -0.081 Cl
HETATM    8  C11 UNL     1      26.797   0.512  54.016  1.00  0.00     0.291 A 
HETATM    9  C12 UNL     1      28.032   1.404  53.695  1.00  0.00     0.437 A 
HETATM   10  C13 UNL     1      28.193   2.172  52.982  1.00  0.00     0.220 A 
HETATM   11  N1  UNL     1      28.028   1.151  53.952  1.00  0.00     0.030 N 
HETATM   12  C14 UNL     1      28.782   0.528  54.917  1.00  0.00     0.354 A 
HETATM   13  N2  UNL     1      27.464  -0.055  54.922  1.00  0.00    -0.248 NA
HETATM   14  N3  UNL     1      26.889   2.437  52.278  1.00  0.00    -0.359 N 
HETATM   15  H11 UNL     1      26.959   3.172  51.581  1.00  0.00     0.161 HD
ENDROOT
BRANCH   1  16
HETATM   16  O1  UNL     1      22.459  -0.503  53.339  1.00  0.00    -0.349 OA
BRANCH  16  17
HETATM   17  C4  UNL     1      21.515  -0.522  54.307  1.00  0.00     0.182 C 
BRANCH  17  18
HETATM   18  C3  UNL     1      20.335   0.345  54.017  1.00  0.00     0.092 C 
BRANCH  18  19
HETATM   19  C2  UNL     1      19.638  -0.034  52.778  1.00  0.00     0.074 C 
HETATM   20  C1  UNL     1      18.413  -0.512  52.392  1.00  0.00     0.072 C 
HETATM   21  F1  UNL     1      20.076  -0.039  51.517  1.00  0.00    -0.215 F 
ENDBRANCH  18  19
ENDBRANCH  17  18
ENDBRANCH  16  17
ENDBRANCH   1  16
TORSDOF 4
ENDMDL
MODEL 7
REMARK VINA RESULT:      -6.7      3.826      6.352
REMARK  4 active torsions:
REMARK  status: ('A' for Active; 'I' for Inactive)
REMARK    1  A    between atoms: C2_2  and  C3_4 
REMARK    2  A    between atoms: C3_4  and  C4_5 
REMARK    3  A    between atoms: C4_5  and  O1_6 
REMARK    4  A    between atoms: O1_6  and  C5_7 
ROOT
HETATM    1  C5  UNL     1      24.325   0.265  53.192  1.00  0.00     0.091 A 
HETATM    2  C6  UNL     1      23.353  -0.636  53.621  1.00  0.00     0.041 A 
HETATM    3  C7  UNL     1      22.007  -0.393  53.625  1.00  0.00     0.033 A 
HETATM    4  C8  UNL     1      21.590   0.803  53.185  1.00  0.00     0.042 A 
HETATM    5  C9  UNL     1      22.593   1.690  52.764  1.00  0.00     0.053 A 
HETATM    6  C10 UNL     1      23.996   1.550  52.716  1.00  0.00     0.080 A 
HETATM    7 CL1  UNL     1      25.205   2.704  52.178  1.00  0.00    -0.081 Cl
HETATM    8  C11 UNL     1      22.629   3.086  52.219  1.00  0.00     0.291 A 
HETATM    9  C12 UNL     1      21.152   3.575  52.159  1.00  0.00     0.437 A 
HETATM   10  C13 UNL     1      20.229   3.089  52.351  1.00  0.00     0.220 A 
HETATM   11  N1  UNL     1      21.436   3.784  52.082  1.00  0.00     0.030 N 
HETATM   12  C14 UNL     1      21.823   5.035  51.669  1.00  0.00     0.354 A 
HETATM   13  N2  UNL     1      23.005   4.235  51.864  1.00  0.00    -0.248 NA
HETATM   14  N3  UNL     1      20.529   1.709  52.872  1.00  0.00    -0.359 N 
HETATM   15  H11 UNL     1      19.690   1.179  53.091  1.00  0.00     0.161 HD
ENDROOT
BRANCH   1  16
HETATM   16  O1  UNL     1      25.617  -0.128  53.244  1.00  0.00    -0.349 OA
BRANCH  16  17
HETATM   17  C4  UNL     1      26.548  -0.523  52.348  1.00  0.00     0.182 C 
BRANCH  17  18
HETATM   18  C3  UNL     1      27.539  -1.496  52.895  1.00  0.00     0.092 C 
BRANCH  18  19
HETATM   19  C2  UNL     1      28.776  -0.849  53.361  1.00  0.00     0.074 C 
HETATM   20  C1  UNL     1      29.150   0.220  54.131  1.00  0.00     0.072 C 
HETATM   21  F1  UNL     1      30.050  -1.156  53.107  1.00  0.00    -0.215 F 
ENDBRANCH  18  19
ENDBRANCH  17  18
ENDBRANCH  16  17
ENDBRANCH   1  16
TORSDOF 4
ENDMDL
MODEL 8
REMARK VINA RESULT:      -6.7      2.992      4.117
REMARK  4 active torsions:
REMARK  status: ('A' for Active; 'I' for Inactive)
REMARK    1  A    between atoms: C2_2  and  C3_4 
REMARK    2  A    between atoms: C3_4  and  C4_5 
REMARK    3  A    between atoms: C4_5  and  O1_6 
REMARK    4  A    between atoms: O1_6  and  C5_7 
ROOT
HETATM    1  C5  UNL     1      22.940   1.233  52.613  1.00  0.00     0.091 A 
HETATM    2  C6  UNL     1      22.547   0.057  53.246  1.00  0.00     0.041 A 
HETATM    3  C7  UNL     1      23.376  -0.755  53.972  1.00  0.00     0.033 A 
HETATM    4  C8  UNL     1      24.662  -0.393  54.080  1.00  0.00     0.042 A 
HETATM    5  C9  UNL     1      25.027   0.795  53.428  1.00  0.00     0.053 A 
HETATM    6  C10 UNL     1      24.267   1.702  52.659  1.00  0.00     0.080 A 
HETATM    7 CL1  UNL     1      24.784   3.178  51.861  1.00  0.00    -0.081 Cl
HETATM    8  C11 UNL     1      26.293   1.579  53.258  1.00  0.00     0.291 A 
HETATM    9  C12 UNL     1      27.404   0.793  54.015  1.00  0.00     0.437 A 
HETATM   10  C13 UNL     1      27.377  -0.073  54.628  1.00  0.00     0.220 A 
HETATM   11  N1  UNL     1      27.466   1.088  53.817  1.00  0.00     0.030 N 
HETATM   12  C14 UNL     1      28.433   1.968  53.396  1.00  0.00     0.354 A 
HETATM   13  N2  UNL     1      27.169   2.383  52.842  1.00  0.00    -0.248 NA
HETATM   14  N3  UNL     1      25.974  -0.617  54.603  1.00  0.00    -0.359 N 
HETATM   15  H11 UNL     1      25.868  -1.459  55.162  1.00  0.00     0.161 HD
ENDROOT
BRANCH   1  16
HETATM   16  O1  UNL     1      21.998   1.930  51.938  1.00  0.00    -0.349 OA
BRANCH  16  17
HETATM   17  C4  UNL     1      21.055   1.643  51.013  1.00  0.00     0.182 C 
BRANCH  17  18
HETATM   18  C3  UNL     1      21.588   0.958  49.799  1.00  0.00     0.092 C 
BRANCH  18  19
HETATM   19  C2  UNL     1      22.299   1.874  48.893  1.00  0.00     0.074 C 
HETATM   20  C1  UNL     1      22.164   2.378  47.626  1.00  0.00     0.072 C 
HETATM   21  F1  UNL     1      23.442   2.541  49.073  1.00  0.00    -0.215 F 
ENDBRANCH  18  19
ENDBRANCH  17  18
ENDBRANCH  16  17
ENDBRANCH   1  16
TORSDOF 4
ENDMDL
MODEL 9
REMARK VINA RESULT:      -6.6      4.162      6.734
REMARK  4 active torsions:
REMARK  status: ('A' for Active; 'I' for Inactive)
REMARK    1  A    between atoms: C2_2  and  C3_4 
REMARK    2  A    between atoms: C3_4  and  C4_5 
REMARK    3  A    between atoms: C4_5  and  O1_6 
REMARK    4  A    between atoms: O1_6  and  C5_7 
ROOT
HETATM    1  C5  UNL     1      23.927   0.623  52.998  1.00  0.00     0.091 A 
HETATM    2  C6  UNL     1      24.150   1.370  51.845  1.00  0.00     0.041 A 
HETATM    3  C7  UNL     1      23.191   1.692  50.923  1.00  0.00     0.033 A 
HETATM    4  C8  UNL     1      21.944   1.255  51.146  1.00  0.00     0.042 A 
HETATM    5  C9  UNL     1      21.751   0.502  52.315  1.00  0.00     0.053 A 
HETATM    6  C10 UNL     1      22.655   0.111  53.325  1.00  0.00     0.080 A 
HETATM    7 CL1  UNL     1      22.353  -0.839  54.771  1.00  0.00    -0.081 Cl
HETATM    8  C11 UNL     1      20.590  -0.182  52.969  1.00  0.00     0.291 A 
HETATM    9  C12 UNL     1      19.360   0.051  52.044  1.00  0.00     0.437 A 
HETATM   10  C13 UNL     1      19.228   0.626  51.161  1.00  0.00     0.220 A 
HETATM   11  N1  UNL     1      19.353  -0.157  52.339  1.00  0.00     0.030 N 
HETATM   12  C14 UNL     1      18.555  -0.947  53.130  1.00  0.00     0.354 A 
HETATM   13  N2  UNL     1      19.880  -0.930  53.695  1.00  0.00    -0.248 NA
HETATM   14  N3  UNL     1      20.567   1.189  50.766  1.00  0.00    -0.359 N 
HETATM   15  H11 UNL     1      20.525   1.747  49.919  1.00  0.00     0.161 HD
ENDROOT
BRANCH   1  16
HETATM   16  O1  UNL     1      24.979   0.393  53.815  1.00  0.00    -0.349 OA
BRANCH  16  17
HETATM   17  C4  UNL     1      25.867  -0.610  53.996  1.00  0.00     0.182 C 
BRANCH  17  18
HETATM   18  C3  UNL     1      27.141  -0.432  53.241  1.00  0.00     0.092 C 
BRANCH  18  19
HETATM   19  C2  UNL     1      28.075   0.490  53.906  1.00  0.00     0.074 C 
HETATM   20  C1  UNL     1      28.534   1.773  53.758  1.00  0.00     0.072 C 
HETATM   21  F1  UNL     1      28.856   0.298  54.972  1.00  0.00    -0.215 F 
ENDBRANCH  18  19
ENDBRANCH  17  18
ENDBRANCH  16  17
ENDBRANCH   1  16
TORSDOF 4
ENDMDL
