MODEL 1
REMARK VINA RESULT:      -9.6      0.000      0.000
REMARK  0 active torsions:
REMARK  status: ('A' for Active; 'I' for Inactive)
ROOT
HETATM    1  N1  UNL     1      26.920   0.394  55.053  1.00  0.00    -0.196 NA
HETATM    2  C1  UNL     1      26.149   0.173  54.219  1.00  0.00     0.075 C 
HETATM    3  C2  UNL     1      25.162  -0.084  53.169  1.00  0.00     0.183 C 
HETATM    4  C3  UNL     1      23.971  -0.830  53.708  1.00  0.00     0.117 C 
HETATM    5  N2  UNL     1      22.693  -0.588  53.823  1.00  0.00    -0.245 NA
HETATM    6  C4  UNL     1      22.298   0.700  53.292  1.00  0.00     0.129 C 
HETATM    7  C5  UNL     1      21.042   1.078  53.301  1.00  0.00     0.052 C 
HETATM    8  C6  UNL     1      20.685   2.324  52.581  1.00  0.00     0.030 C 
HETATM    9  C7  UNL     1      21.606   3.023  51.968  1.00  0.00     0.031 C 
HETATM   10  C8  UNL     1      22.978   2.797  52.494  1.00  0.00     0.187 C 
HETATM   11  N3  UNL     1      23.339   1.426  52.710  1.00  0.00    -0.328 N 
HETATM   12  C9  UNL     1      24.696   1.145  52.490  1.00  0.00     0.033 C 
HETATM   13  C10 UNL     1      25.622   1.689  51.810  1.00  0.00     0.010 C 
HETATM   14  C11 UNL     1      26.350   2.582  50.949  1.00  0.00     0.045 C 
HETATM   15  C12 UNL     1      26.658   3.560  50.142  1.00  0.00     0.002 C 
HETATM   16  C13 UNL     1      26.211   4.757  49.375  1.00  0.00     0.006 C 
HETATM   17 BR1  UNL     1      27.785   5.408  48.522  1.00  0.00    -0.052 Br
HETATM   18  C14 UNL     1      25.218   5.593  49.003  1.00  0.00     0.018 C 
HETATM   19  C15 UNL     1      25.303   6.765  48.130  1.00  0.00     0.197 C 
HETATM   20  O1  UNL     1      24.924   7.940  48.681  1.00  0.00    -0.376 OA
HETATM   21  C16 UNL     1      23.553   8.101  48.945  1.00  0.00     0.262 C 
HETATM   22  C17 UNL     1      23.100   7.088  49.783  1.00  0.00    -0.070 C 
HETATM   23  C18 UNL     1      22.754   6.267  50.448  1.00  0.00    -0.003 C 
HETATM   24  C19 UNL     1      22.350   5.243  51.266  1.00  0.00     0.300 C 
HETATM   25  O2  UNL     1      22.289   5.045  52.472  1.00  0.00    -0.258 OA
HETATM   26  N4  UNL     1      21.849   3.969  50.936  1.00  0.00    -0.318 N 
HETATM   27  H15 UNL     1      21.509   3.276  50.278  1.00  0.00     0.169 HD
ENDROOT
TORSDOF 0
ENDMDL
MODEL 2
REMARK VINA RESULT:      -9.5      2.191      4.179
REMARK  0 active torsions:
REMARK  status: ('A' for Active; 'I' for Inactive)
ROOT
HETATM    1  N1  UNL     1      20.193  -0.145  51.915  1.00  0.00    -0.196 NA
HETATM    2  C1  UNL     1      21.063   0.231  52.579  1.00  0.00     0.075 C 
HETATM    3  C2  UNL     1      22.179   0.707  53.397  1.00  0.00     0.183 C 
HETATM    4  C3  UNL     1      22.997  -0.440  53.929  1.00  0.00     0.117 C 
HETATM    5  N2  UNL     1      24.232  -0.844  53.798  1.00  0.00    -0.245 NA
HETATM    6  C4  UNL     1      25.036   0.015  52.954  1.00  0.00     0.129 C 
HETATM    7  C5  UNL     1      26.307  -0.235  52.751  1.00  0.00     0.052 C 
HETATM    8  C6  UNL     1      27.110   0.780  52.027  1.00  0.00     0.030 C 
HETATM    9  C7  UNL     1      26.553   1.885  51.600  1.00  0.00     0.031 C 
HETATM   10  C8  UNL     1      25.082   1.778  51.409  1.00  0.00     0.187 C 
HETATM   11  N3  UNL     1      24.365   1.142  52.476  1.00  0.00    -0.328 N 
HETATM   12  C9  UNL     1      23.071   1.647  52.681  1.00  0.00     0.033 C 
HETATM   13  C10 UNL     1      22.488   2.745  52.421  1.00  0.00     0.010 C 
HETATM   14  C11 UNL     1      22.218   4.080  51.959  1.00  0.00     0.045 C 
HETATM   15  C12 UNL     1      22.352   5.270  51.440  1.00  0.00     0.002 C 
HETATM   16  C13 UNL     1      23.238   6.277  50.792  1.00  0.00     0.006 C 
HETATM   17 BR1  UNL     1      22.112   7.775  50.449  1.00  0.00    -0.052 Br
HETATM   18  C14 UNL     1      24.461   6.625  50.335  1.00  0.00     0.018 C 
HETATM   19  C15 UNL     1      24.865   7.880  49.701  1.00  0.00     0.197 C 
HETATM   20  O1  UNL     1      25.373   7.774  48.452  1.00  0.00    -0.376 OA
HETATM   21  C16 UNL     1      26.640   7.179  48.334  1.00  0.00     0.262 C 
HETATM   22  C17 UNL     1      26.629   5.902  48.883  1.00  0.00    -0.070 C 
HETATM   23  C18 UNL     1      26.601   4.885  49.333  1.00  0.00    -0.003 C 
HETATM   24  C19 UNL     1      26.545   3.636  49.896  1.00  0.00     0.300 C 
HETATM   25  O2  UNL     1      26.272   2.506  49.516  1.00  0.00    -0.258 OA
HETATM   26  N4  UNL     1      26.793   3.233  51.222  1.00  0.00    -0.318 N 
HETATM   27  H15 UNL     1      27.103   3.401  52.172  1.00  0.00     0.169 HD
ENDROOT
TORSDOF 0
ENDMDL
MODEL 3
REMARK VINA RESULT:      -9.3      1.846      2.588
REMARK  0 active torsions:
REMARK  status: ('A' for Active; 'I' for Inactive)
ROOT
HETATM    1  N1  UNL     1      28.871   2.482  54.208  1.00  0.00    -0.196 NA
HETATM    2  C1  UNL     1      28.293   1.784  53.487  1.00  0.00     0.075 C 
HETATM    3  C2  UNL     1      27.539   0.912  52.586  1.00  0.00     0.183 C 
HETATM    4  C3  UNL     1      27.202  -0.398  53.247  1.00  0.00     0.117 C 
HETATM    5  N2  UNL     1      26.102  -1.022  53.573  1.00  0.00    -0.245 NA
HETATM    6  C4  UNL     1      24.899  -0.306  53.203  1.00  0.00     0.129 C 
HETATM    7  C5  UNL     1      23.713  -0.816  53.431  1.00  0.00     0.052 C 
HETATM    8  C6  UNL     1      22.533  -0.116  52.867  1.00  0.00     0.030 C 
HETATM    9  C7  UNL     1      22.685   0.982  52.170  1.00  0.00     0.031 C 
HETATM   10  C8  UNL     1      23.950   1.705  52.463  1.00  0.00     0.187 C 
HETATM   11  N3  UNL     1      25.129   0.891  52.522  1.00  0.00    -0.328 N 
HETATM   12  C9  UNL     1      26.295   1.531  52.076  1.00  0.00     0.033 C 
HETATM   13  C10 UNL     1      26.538   2.510  51.304  1.00  0.00     0.010 C 
HETATM   14  C11 UNL     1      26.379   3.624  50.407  1.00  0.00     0.045 C 
HETATM   15  C12 UNL     1      25.857   4.538  49.635  1.00  0.00     0.002 C 
HETATM   16  C13 UNL     1      24.635   5.140  49.034  1.00  0.00     0.006 C 
HETATM   17 BR1  UNL     1      25.269   6.607  47.998  1.00  0.00    -0.052 Br
HETATM   18  C14 UNL     1      23.293   5.134  48.879  1.00  0.00     0.018 C 
HETATM   19  C15 UNL     1      22.470   6.051  48.089  1.00  0.00     0.197 C 
HETATM   20  O1  UNL     1      21.528   6.737  48.776  1.00  0.00    -0.376 OA
HETATM   21  C16 UNL     1      20.434   5.998  49.258  1.00  0.00     0.262 C 
HETATM   22  C17 UNL     1      20.873   4.966  50.080  1.00  0.00    -0.070 C 
HETATM   23  C18 UNL     1      21.243   4.143  50.730  1.00  0.00    -0.003 C 
HETATM   24  C19 UNL     1      21.722   3.133  51.524  1.00  0.00     0.300 C 
HETATM   25  O2  UNL     1      21.998   2.995  52.707  1.00  0.00    -0.258 OA
HETATM   26  N4  UNL     1      22.098   1.820  51.185  1.00  0.00    -0.318 N 
HETATM   27  H15 UNL     1      22.174   1.042  50.539  1.00  0.00     0.169 HD
ENDROOT
TORSDOF 0
ENDMDL
MODEL 4
REMARK VINA RESULT:      -9.1      3.664      6.974
REMARK  0 active torsions:
REMARK  status: ('A' for Active; 'I' for Inactive)
ROOT
HETATM    1  N1  UNL     1      24.601   5.898  50.729  1.00  0.00    -0.196 NA
HETATM    2  C1  UNL     1      24.768   4.788  50.446  1.00  0.00     0.075 C 
HETATM    3  C2  UNL     1      24.968   3.377  50.113  1.00  0.00     0.183 C 
HETATM    4  C3  UNL     1      26.318   2.892  50.574  1.00  0.00     0.117 C 
HETATM    5  N2  UNL     1      26.747   1.990  51.414  1.00  0.00    -0.245 NA
HETATM    6  C4  UNL     1      25.684   1.250  52.061  1.00  0.00     0.129 C 
HETATM    7  C5  UNL     1      25.952   0.285  52.908  1.00  0.00     0.052 C 
HETATM    8  C6  UNL     1      24.826  -0.549  53.393  1.00  0.00     0.030 C 
HETATM    9  C7  UNL     1      23.604  -0.312  52.988  1.00  0.00     0.031 C 
HETATM   10  C8  UNL     1      23.390   1.080  52.513  1.00  0.00     0.187 C 
HETATM   11  N3  UNL     1      24.401   1.595  51.635  1.00  0.00    -0.328 N 
HETATM   12  C9  UNL     1      23.921   2.490  50.666  1.00  0.00     0.033 C 
HETATM   13  C10 UNL     1      22.792   2.698  50.123  1.00  0.00     0.010 C 
HETATM   14  C11 UNL     1      21.398   2.613  49.776  1.00  0.00     0.045 C 
HETATM   15  C12 UNL     1      20.148   2.241  49.720  1.00  0.00     0.002 C 
HETATM   16  C13 UNL     1      19.081   1.313  50.189  1.00  0.00     0.006 C 
HETATM   17 BR1  UNL     1      17.503   1.885  49.288  1.00  0.00    -0.052 Br
HETATM   18  C14 UNL     1      18.709   0.261  50.950  1.00  0.00     0.018 C 
HETATM   19  C15 UNL     1      17.379  -0.335  51.078  1.00  0.00     0.197 C 
HETATM   20  O1  UNL     1      16.855  -0.346  52.325  1.00  0.00    -0.376 OA
HETATM   21  C16 UNL     1      17.453  -1.213  53.255  1.00  0.00     0.262 C 
HETATM   22  C17 UNL     1      18.808  -0.928  53.379  1.00  0.00    -0.070 C 
HETATM   23  C18 UNL     1      19.891  -0.689  53.462  1.00  0.00    -0.003 C 
HETATM   24  C19 UNL     1      21.224  -0.380  53.544  1.00  0.00     0.300 C 
HETATM   25  O2  UNL     1      21.917   0.381  54.207  1.00  0.00    -0.258 OA
HETATM   26  N4  UNL     1      22.314  -0.878  52.804  1.00  0.00    -0.318 N 
HETATM   27  H15 UNL     1      22.734  -1.513  52.134  1.00  0.00     0.169 HD
ENDROOT
TORSDOF 0
ENDMDL
MODEL 5
REMARK VINA RESULT:      -9.0      3.643      6.094
REMARK  0 active torsions:
REMARK  status: ('A' for Active; 'I' for Inactive)
ROOT
HETATM    1  N1  UNL     1      27.063  -1.987  52.723  1.00  0.00    -0.196 NA
HETATM    2  C1  UNL     1      26.733  -0.904  52.967  1.00  0.00     0.075 C 
HETATM    3  C2  UNL     1      26.304   0.466  53.250  1.00  0.00     0.183 C 
HETATM    4  C3  UNL     1      27.348   1.465  52.828  1.00  0.00     0.117 C 
HETATM    5  N2  UNL     1      27.404   2.448  51.970  1.00  0.00    -0.245 NA
HETATM    6  C4  UNL     1      26.166   2.659  51.249  1.00  0.00     0.129 C 
HETATM    7  C5  UNL     1      26.051   3.630  50.376  1.00  0.00     0.052 C 
HETATM    8  C6  UNL     1      24.707   3.902  49.810  1.00  0.00     0.030 C 
HETATM    9  C7  UNL     1      23.677   3.180  50.173  1.00  0.00     0.031 C 
HETATM   10  C8  UNL     1      24.042   1.837  50.695  1.00  0.00     0.187 C 
HETATM   11  N3  UNL     1      25.125   1.813  51.635  1.00  0.00    -0.328 N 
HETATM   12  C9  UNL     1      25.013   0.818  52.619  1.00  0.00     0.033 C 
HETATM   13  C10 UNL     1      24.047   0.164  53.121  1.00  0.00     0.010 C 
HETATM   14  C11 UNL     1      22.730  -0.340  53.405  1.00  0.00     0.045 C 
HETATM   15  C12 UNL     1      21.439  -0.528  53.394  1.00  0.00     0.002 C 
HETATM   16  C13 UNL     1      20.108  -0.146  52.844  1.00  0.00     0.006 C 
HETATM   17 BR1  UNL     1      18.869  -1.313  53.699  1.00  0.00    -0.052 Br
HETATM   18  C14 UNL     1      19.371   0.637  52.025  1.00  0.00     0.018 C 
HETATM   19  C15 UNL     1      17.923   0.614  51.817  1.00  0.00     0.197 C 
HETATM   20  O1  UNL     1      17.513   0.379  50.550  1.00  0.00    -0.376 OA
HETATM   21  C16 UNL     1      17.742   1.400  49.612  1.00  0.00     0.262 C 
HETATM   22  C17 UNL     1      19.096   1.710  49.556  1.00  0.00    -0.070 C 
HETATM   23  C18 UNL     1      20.182   1.948  49.529  1.00  0.00    -0.003 C 
HETATM   24  C19 UNL     1      21.524   2.228  49.515  1.00  0.00     0.300 C 
HETATM   25  O2  UNL     1      22.507   1.817  48.914  1.00  0.00    -0.258 OA
HETATM   26  N4  UNL     1      22.260   3.152  50.280  1.00  0.00    -0.318 N 
HETATM   27  H15 UNL     1      22.337   3.918  50.940  1.00  0.00     0.169 HD
ENDROOT
TORSDOF 0
ENDMDL
MODEL 6
REMARK VINA RESULT:      -8.9      4.075      6.141
REMARK  0 active torsions:
REMARK  status: ('A' for Active; 'I' for Inactive)
ROOT
HETATM    1  N1  UNL     1      27.023   2.336  51.547  1.00  0.00    -0.196 NA
HETATM    2  C1  UNL     1      26.454   2.889  50.704  1.00  0.00     0.075 C 
HETATM    3  C2  UNL     1      25.739   3.611  49.652  1.00  0.00     0.183 C 
HETATM    4  C3  UNL     1      24.271   3.726  49.966  1.00  0.00     0.117 C 
HETATM    5  N2  UNL     1      23.438   4.708  50.181  1.00  0.00    -0.245 NA
HETATM    6  C4  UNL     1      24.048   6.017  50.081  1.00  0.00     0.129 C 
HETATM    7  C5  UNL     1      23.336   7.107  50.236  1.00  0.00     0.052 C 
HETATM    8  C6  UNL     1      23.982   8.409  49.942  1.00  0.00     0.030 C 
HETATM    9  C7  UNL     1      25.230   8.456  49.549  1.00  0.00     0.031 C 
HETATM   10  C8  UNL     1      26.027   7.266  49.946  1.00  0.00     0.187 C 
HETATM   11  N3  UNL     1      25.397   5.997  49.723  1.00  0.00    -0.328 N 
HETATM   12  C9  UNL     1      26.286   4.962  49.393  1.00  0.00     0.033 C 
HETATM   13  C10 UNL     1      27.451   4.911  48.890  1.00  0.00     0.010 C 
HETATM   14  C11 UNL     1      28.720   5.284  48.326  1.00  0.00     0.045 C 
HETATM   15  C12 UNL     1      29.716   5.981  47.850  1.00  0.00     0.002 C 
HETATM   16  C13 UNL     1      30.272   7.317  47.498  1.00  0.00     0.006 C 
HETATM   17 BR1  UNL     1      32.027   6.963  46.845  1.00  0.00    -0.052 Br
HETATM   18  C14 UNL     1      30.117   8.658  47.424  1.00  0.00     0.018 C 
HETATM   19  C15 UNL     1      31.079   9.654  46.950  1.00  0.00     0.197 C 
HETATM   20  O1  UNL     1      31.432  10.605  47.844  1.00  0.00    -0.376 OA
HETATM   21  C16 UNL     1      30.449  11.553  48.179  1.00  0.00     0.262 C 
HETATM   22  C17 UNL     1      29.316  10.919  48.677  1.00  0.00    -0.070 C 
HETATM   23  C18 UNL     1      28.417  10.395  49.068  1.00  0.00    -0.003 C 
HETATM   24  C19 UNL     1      27.318   9.727  49.542  1.00  0.00     0.300 C 
HETATM   25  O2  UNL     1      26.927   9.328  50.631  1.00  0.00    -0.258 OA
HETATM   26  N4  UNL     1      26.197   9.227  48.851  1.00  0.00    -0.318 N 
HETATM   27  H15 UNL     1      25.625   9.118  48.021  1.00  0.00     0.169 HD
ENDROOT
TORSDOF 0
ENDMDL
MODEL 7
REMARK VINA RESULT:      -8.8      2.699      3.595
REMARK  0 active torsions:
REMARK  status: ('A' for Active; 'I' for Inactive)
ROOT
HETATM    1  N1  UNL     1      27.589   2.492  53.932  1.00  0.00    -0.196 NA
HETATM    2  C1  UNL     1      26.962   1.649  53.446  1.00  0.00     0.075 C 
HETATM    3  C2  UNL     1      26.147   0.595  52.842  1.00  0.00     0.183 C 
HETATM    4  C3  UNL     1      26.014  -0.589  53.763  1.00  0.00     0.117 C 
HETATM    5  N2  UNL     1      25.027  -1.195  54.367  1.00  0.00    -0.245 NA
HETATM    6  C4  UNL     1      23.732  -0.614  54.082  1.00  0.00     0.129 C 
HETATM    7  C5  UNL     1      22.636  -1.130  54.585  1.00  0.00     0.052 C 
HETATM    8  C6  UNL     1      21.335  -0.600  54.109  1.00  0.00     0.030 C 
HETATM    9  C7  UNL     1      21.295   0.360  53.221  1.00  0.00     0.031 C 
HETATM   10  C8  UNL     1      22.532   1.183  53.174  1.00  0.00     0.187 C 
HETATM   11  N3  UNL     1      23.764   0.449  53.178  1.00  0.00    -0.328 N 
HETATM   12  C9  UNL     1      24.797   1.052  52.444  1.00  0.00     0.033 C 
HETATM   13  C10 UNL     1      24.845   1.886  51.487  1.00  0.00     0.010 C 
HETATM   14  C11 UNL     1      24.468   2.811  50.452  1.00  0.00     0.045 C 
HETATM   15  C12 UNL     1      23.767   3.545  49.631  1.00  0.00     0.002 C 
HETATM   16  C13 UNL     1      22.426   3.970  49.144  1.00  0.00     0.006 C 
HETATM   17 BR1  UNL     1      22.782   5.255  47.783  1.00  0.00    -0.052 Br
HETATM   18  C14 UNL     1      21.080   3.873  49.214  1.00  0.00     0.018 C 
HETATM   19  C15 UNL     1      20.080   4.594  48.425  1.00  0.00     0.197 C 
HETATM   20  O1  UNL     1      19.204   5.347  49.129  1.00  0.00    -0.376 OA
HETATM   21  C16 UNL     1      18.256   4.657  49.902  1.00  0.00     0.262 C 
HETATM   22  C17 UNL     1      18.891   3.812  50.805  1.00  0.00    -0.070 C 
HETATM   23  C18 UNL     1      19.417   3.138  51.517  1.00  0.00    -0.003 C 
HETATM   24  C19 UNL     1      20.086   2.312  52.383  1.00  0.00     0.300 C 
HETATM   25  O2  UNL     1      20.550   2.403  53.511  1.00  0.00    -0.258 OA
HETATM   26  N4  UNL     1      20.503   0.978  52.216  1.00  0.00    -0.318 N 
HETATM   27  H15 UNL     1      20.538   0.101  51.708  1.00  0.00     0.169 HD
ENDROOT
TORSDOF 0
ENDMDL
MODEL 8
REMARK VINA RESULT:      -8.5      3.278      7.639
REMARK  0 active torsions:
REMARK  status: ('A' for Active; 'I' for Inactive)
ROOT
HETATM    1  N1  UNL     1      21.045   7.155  50.505  1.00  0.00    -0.196 NA
HETATM    2  C1  UNL     1      21.598   6.317  49.928  1.00  0.00     0.075 C 
HETATM    3  C2  UNL     1      22.309   5.253  49.220  1.00  0.00     0.183 C 
HETATM    4  C3  UNL     1      23.559   5.774  48.562  1.00  0.00     0.117 C 
HETATM    5  N2  UNL     1      24.839   5.541  48.675  1.00  0.00    -0.245 NA
HETATM    6  C4  UNL     1      25.157   4.524  49.655  1.00  0.00     0.129 C 
HETATM    7  C5  UNL     1      26.397   4.151  49.862  1.00  0.00     0.052 C 
HETATM    8  C6  UNL     1      26.635   2.983  50.745  1.00  0.00     0.030 C 
HETATM    9  C7  UNL     1      25.629   2.357  51.302  1.00  0.00     0.031 C 
HETATM   10  C8  UNL     1      24.404   3.189  51.429  1.00  0.00     0.187 C 
HETATM   11  N3  UNL     1      24.043   3.941  50.262  1.00  0.00    -0.328 N 
HETATM   12  C9  UNL     1      22.661   4.106  50.087  1.00  0.00     0.033 C 
HETATM   13  C10 UNL     1      21.629   3.476  50.477  1.00  0.00     0.010 C 
HETATM   14  C11 UNL     1      20.764   2.518  51.110  1.00  0.00     0.045 C 
HETATM   15  C12 UNL     1      20.323   1.495  51.792  1.00  0.00     0.002 C 
HETATM   16  C13 UNL     1      20.635   0.284  52.601  1.00  0.00     0.006 C 
HETATM   17 BR1  UNL     1      18.938  -0.416  53.111  1.00  0.00    -0.052 Br
HETATM   18  C14 UNL     1      21.553  -0.548  53.141  1.00  0.00     0.018 C 
HETATM   19  C15 UNL     1      21.321  -1.742  53.955  1.00  0.00     0.197 C 
HETATM   20  O1  UNL     1      21.865  -1.727  55.193  1.00  0.00    -0.376 OA
HETATM   21  C16 UNL     1      23.266  -1.812  55.269  1.00  0.00     0.262 C 
HETATM   22  C17 UNL     1      23.853  -0.779  54.548  1.00  0.00    -0.070 C 
HETATM   23  C18 UNL     1      24.305   0.051  53.963  1.00  0.00    -0.003 C 
HETATM   24  C19 UNL     1      24.840   1.080  53.231  1.00  0.00     0.300 C 
HETATM   25  O2  UNL     1      25.164   2.241  53.442  1.00  0.00    -0.258 OA
HETATM   26  N4  UNL     1      25.200   1.128  51.871  1.00  0.00    -0.318 N 
HETATM   27  H15 UNL     1      25.352   0.703  50.963  1.00  0.00     0.169 HD
ENDROOT
TORSDOF 0
ENDMDL
MODEL 9
REMARK VINA RESULT:      -8.4      3.386      7.062
REMARK  0 active torsions:
REMARK  status: ('A' for Active; 'I' for Inactive)
ROOT
HETATM    1  N1  UNL     1      17.467   3.892  51.957  1.00  0.00    -0.196 NA
HETATM    2  C1  UNL     1      18.126   3.382  51.154  1.00  0.00     0.075 C 
HETATM    3  C2  UNL     1      18.981   2.750  50.149  1.00  0.00     0.183 C 
HETATM    4  C3  UNL     1      19.050   3.575  48.892  1.00  0.00     0.117 C 
HETATM    5  N2  UNL     1      19.993   4.192  48.232  1.00  0.00    -0.245 NA
HETATM    6  C4  UNL     1      21.305   4.048  48.827  1.00  0.00     0.129 C 
HETATM    7  C5  UNL     1      22.363   4.580  48.265  1.00  0.00     0.052 C 
HETATM    8  C6  UNL     1      23.694   4.242  48.825  1.00  0.00     0.030 C 
HETATM    9  C7  UNL     1      23.795   3.442  49.856  1.00  0.00     0.031 C 
HETATM   10  C8  UNL     1      22.564   3.379  50.687  1.00  0.00     0.187 C 
HETATM   11  N3  UNL     1      21.335   3.236  49.962  1.00  0.00    -0.328 N 
HETATM   12  C9  UNL     1      20.355   2.486  50.631  1.00  0.00     0.033 C 
HETATM   13  C10 UNL     1      20.374   1.601  51.542  1.00  0.00     0.010 C 
HETATM   14  C11 UNL     1      20.822   0.676  52.548  1.00  0.00     0.045 C 
HETATM   15  C12 UNL     1      21.578  -0.030  53.344  1.00  0.00     0.002 C 
HETATM   16  C13 UNL     1      22.950  -0.386  53.801  1.00  0.00     0.006 C 
HETATM   17 BR1  UNL     1      22.689  -1.656  55.197  1.00  0.00    -0.052 Br
HETATM   18  C14 UNL     1      24.288  -0.231  53.691  1.00  0.00     0.018 C 
HETATM   19  C15 UNL     1      25.340  -0.886  54.470  1.00  0.00     0.197 C 
HETATM   20  O1  UNL     1      26.165  -0.062  55.156  1.00  0.00    -0.376 OA
HETATM   21  C16 UNL     1      27.057   0.714  54.398  1.00  0.00     0.262 C 
HETATM   22  C17 UNL     1      26.361   1.497  53.484  1.00  0.00    -0.070 C 
HETATM   23  C18 UNL     1      25.787   2.112  52.756  1.00  0.00    -0.003 C 
HETATM   24  C19 UNL     1      25.059   2.857  51.865  1.00  0.00     0.300 C 
HETATM   25  O2  UNL     1      24.519   3.954  51.863  1.00  0.00    -0.258 OA
HETATM   26  N4  UNL     1      24.655   2.550  50.551  1.00  0.00    -0.318 N 
HETATM   27  H15 UNL     1      24.655   1.970  49.720  1.00  0.00     0.169 HD
ENDROOT
TORSDOF 0
ENDMDL
