MODEL 1
REMARK VINA RESULT:      -7.3      0.000      0.000
REMARK  5 active torsions:
REMARK  status: ('A' for Active; 'I' for Inactive)
REMARK    1  A    between atoms: C2_2  and  C3_3 
REMARK    2  A    between atoms: C3_3  and  C4_4 
REMARK    3  A    between atoms: C7_9  and  C8_10 
REMARK    4  A    between atoms: C8_10  and  C9_11 
REMARK    5  A    between atoms: C14_16  and  N3_17 
ROOT
HETATM    1  C4  UNL     1      23.854   3.646  49.559  1.00  0.00     0.208 C 
HETATM    2  N1  UNL     1      23.516   4.041  50.891  1.00  0.00    -0.278 NA
HETATM    3  C5  UNL     1      23.386   3.149  51.796  1.00  0.00     0.107 C 
HETATM    4  C6  UNL     1      23.491   1.672  51.901  1.00  0.00     0.195 C 
HETATM    5  N2  UNL     1      24.410   1.251  52.884  1.00  0.00    -0.291 NA
HETATM    6  C7  UNL     1      25.664   1.482  52.936  1.00  0.00     0.031 C 
HETATM    7  C15 UNL     1      26.680   2.207  52.118  1.00  0.00     0.204 C 
HETATM    8  N4  UNL     1      25.984   2.873  51.056  1.00  0.00    -0.279 NA
HETATM    9  C16 UNL     1      26.425   3.450  50.027  1.00  0.00     0.198 C 
HETATM   10  N5  UNL     1      25.252   3.928  49.338  1.00  0.00    -0.362 N 
HETATM   11  H21 UNL     1      25.494   4.582  48.560  1.00  0.00     0.162 HD
ENDROOT
BRANCH   6  12
HETATM   12  C8  UNL     1      26.369   0.900  54.106  1.00  0.00     0.097 C 
BRANCH  12  13
HETATM   13  C9  UNL     1      27.321  -0.183  53.740  1.00  0.00    -0.027 A 
HETATM   14  C10 UNL     1      27.058  -1.360  53.042  1.00  0.00     0.010 A 
HETATM   15  C11 UNL     1      28.089  -2.244  52.802  1.00  0.00     0.001 A 
HETATM   16  C12 UNL     1      29.371  -2.043  53.207  1.00  0.00     0.002 A 
HETATM   17  C13 UNL     1      29.662  -0.898  53.895  1.00  0.00     0.029 A 
HETATM   18  C14 UNL     1      28.646   0.007  54.150  1.00  0.00     0.032 A 
BRANCH  18  19
HETATM   19  N3  UNL     1      29.020   1.182  54.873  1.00  0.00    -0.399 N 
HETATM   20  H16 UNL     1      29.259   0.794  55.806  1.00  0.00     0.156 HD
HETATM   21  H17 UNL     1      29.030   2.154  54.502  1.00  0.00     0.156 HD
ENDBRANCH  18  19
ENDBRANCH  12  13
ENDBRANCH   6  12
BRANCH   1  22
HETATM   22  C3  UNL     1      23.007   4.389  48.538  1.00  0.00     0.074 C 
BRANCH  22  23
HETATM   23  C2  UNL     1      22.303   3.437  47.648  1.00  0.00    -0.033 C 
HETATM   24  C1  UNL     1      22.319   2.108  47.605  1.00  0.00     0.007 C 
ENDBRANCH  22  23
ENDBRANCH   1  22
TORSDOF 5
ENDMDL
MODEL 2
REMARK VINA RESULT:      -7.3      2.799      3.687
REMARK  5 active torsions:
REMARK  status: ('A' for Active; 'I' for Inactive)
REMARK    1  A    between atoms: C2_2  and  C3_3 
REMARK    2  A    between atoms: C3_3  and  C4_4 
REMARK    3  A    between atoms: C7_9  and  C8_10 
REMARK    4  A    between atoms: C8_10  and  C9_11 
REMARK    5  A    between atoms: C14_16  and  N3_17 
ROOT
HETATM    1  C4  UNL     1      20.627   0.367  51.588  1.00  0.00     0.208 C 
HETATM    2  N1  UNL     1      20.824   0.959  52.874  1.00  0.00    -0.278 NA
HETATM    3  C5  UNL     1      21.701   0.471  53.664  1.00  0.00     0.107 C 
HETATM    4  C6  UNL     1      22.685  -0.642  53.654  1.00  0.00     0.195 C 
HETATM    5  N2  UNL     1      24.006  -0.213  53.902  1.00  0.00    -0.291 NA
HETATM    6  C7  UNL     1      24.709   0.599  53.215  1.00  0.00     0.031 C 
HETATM    7  C15 UNL     1      24.547   1.412  51.973  1.00  0.00     0.204 C 
HETATM    8  N4  UNL     1      23.190   1.265  51.536  1.00  0.00    -0.279 NA
HETATM    9  C16 UNL     1      22.639   1.609  50.458  1.00  0.00     0.198 C 
HETATM   10  N5  UNL     1      21.263   1.201  50.597  1.00  0.00    -0.362 N 
HETATM   11  H21 UNL     1      20.659   1.593  49.840  1.00  0.00     0.162 HD
ENDROOT
BRANCH   6  12
HETATM   12  C8  UNL     1      26.076   0.853  53.737  1.00  0.00     0.097 C 
BRANCH  12  13
HETATM   13  C9  UNL     1      27.024  -0.263  53.473  1.00  0.00    -0.027 A 
HETATM   14  C10 UNL     1      26.779  -1.456  52.796  1.00  0.00     0.010 A 
HETATM   15  C11 UNL     1      27.802  -2.371  52.656  1.00  0.00     0.001 A 
HETATM   16  C12 UNL     1      29.058  -2.185  53.141  1.00  0.00     0.002 A 
HETATM   17  C13 UNL     1      29.331  -1.025  53.810  1.00  0.00     0.029 A 
HETATM   18  C14 UNL     1      28.322  -0.089  53.965  1.00  0.00     0.032 A 
BRANCH  18  19
HETATM   19  N3  UNL     1      28.675   1.101  54.674  1.00  0.00    -0.399 N 
HETATM   20  H16 UNL     1      28.361   1.844  54.020  1.00  0.00     0.156 HD
HETATM   21  H17 UNL     1      29.131   1.147  55.609  1.00  0.00     0.156 HD
ENDBRANCH  18  19
ENDBRANCH  12  13
ENDBRANCH   6  12
BRANCH   1  22
HETATM   22  C3  UNL     1      19.147   0.223  51.274  1.00  0.00     0.074 C 
BRANCH  22  23
HETATM   23  C2  UNL     1      18.482  -0.652  52.268  1.00  0.00    -0.033 C 
HETATM   24  C1  UNL     1      17.204  -0.757  52.620  1.00  0.00     0.007 C 
ENDBRANCH  22  23
ENDBRANCH   1  22
TORSDOF 5
ENDMDL
MODEL 3
REMARK VINA RESULT:      -7.2      1.354      7.071
REMARK  5 active torsions:
REMARK  status: ('A' for Active; 'I' for Inactive)
REMARK    1  A    between atoms: C2_2  and  C3_3 
REMARK    2  A    between atoms: C3_3  and  C4_4 
REMARK    3  A    between atoms: C7_9  and  C8_10 
REMARK    4  A    between atoms: C8_10  and  C9_11 
REMARK    5  A    between atoms: C14_16  and  N3_17 
ROOT
HETATM    1  C4  UNL     1      27.659   0.209  53.997  1.00  0.00     0.208 C 
HETATM    2  N1  UNL     1      27.364   1.578  54.285  1.00  0.00    -0.278 NA
HETATM    3  C5  UNL     1      26.858   2.317  53.374  1.00  0.00     0.107 C 
HETATM    4  C6  UNL     1      26.436   2.175  51.958  1.00  0.00     0.195 C 
HETATM    5  N2  UNL     1      25.091   2.538  51.742  1.00  0.00    -0.291 NA
HETATM    6  C7  UNL     1      24.045   2.013  52.250  1.00  0.00     0.031 C 
HETATM    7  C15 UNL     1      23.724   0.906  53.199  1.00  0.00     0.204 C 
HETATM    8  N4  UNL     1      24.965   0.398  53.705  1.00  0.00    -0.279 NA
HETATM    9  C16 UNL     1      25.208  -0.636  54.382  1.00  0.00     0.198 C 
HETATM   10  N5  UNL     1      26.635  -0.615  54.591  1.00  0.00    -0.362 N 
HETATM   11  H21 UNL     1      26.938  -1.327  55.294  1.00  0.00     0.162 HD
ENDROOT
BRANCH   6  12
HETATM   12  C8  UNL     1      22.759   2.622  51.826  1.00  0.00     0.097 C 
BRANCH  12  13
HETATM   13  C9  UNL     1      22.463   2.426  50.381  1.00  0.00    -0.027 A 
HETATM   14  C10 UNL     1      21.926   1.301  49.758  1.00  0.00     0.010 A 
HETATM   15  C11 UNL     1      21.727   1.320  48.394  1.00  0.00     0.001 A 
HETATM   16  C12 UNL     1      22.023   2.381  47.598  1.00  0.00     0.002 A 
HETATM   17  C13 UNL     1      22.552   3.500  48.178  1.00  0.00     0.029 A 
HETATM   18  C14 UNL     1      22.762   3.509  49.546  1.00  0.00     0.032 A 
BRANCH  18  19
HETATM   19  N3  UNL     1      23.317   4.710  50.087  1.00  0.00    -0.399 N 
HETATM   20  H16 UNL     1      22.538   5.385  49.958  1.00  0.00     0.156 HD
HETATM   21  H17 UNL     1      24.269   4.818  50.494  1.00  0.00     0.156 HD
ENDBRANCH  18  19
ENDBRANCH  12  13
ENDBRANCH   6  12
BRANCH   1  22
HETATM   22  C3  UNL     1      29.023  -0.182  54.543  1.00  0.00     0.074 C 
BRANCH  22  23
HETATM   23  C2  UNL     1      29.690  -1.152  53.644  1.00  0.00    -0.033 C 
HETATM   24  C1  UNL     1      29.289  -2.334  53.185  1.00  0.00     0.007 C 
ENDBRANCH  22  23
ENDBRANCH   1  22
TORSDOF 5
ENDMDL
MODEL 4
REMARK VINA RESULT:      -7.0      2.062      3.116
REMARK  5 active torsions:
REMARK  status: ('A' for Active; 'I' for Inactive)
REMARK    1  A    between atoms: C2_2  and  C3_3 
REMARK    2  A    between atoms: C3_3  and  C4_4 
REMARK    3  A    between atoms: C7_9  and  C8_10 
REMARK    4  A    between atoms: C8_10  and  C9_11 
REMARK    5  A    between atoms: C14_16  and  N3_17 
ROOT
HETATM    1  C4  UNL     1      24.510   5.741  50.821  1.00  0.00     0.208 C 
HETATM    2  N1  UNL     1      24.200   4.634  49.969  1.00  0.00    -0.278 NA
HETATM    3  C5  UNL     1      25.028   3.667  49.869  1.00  0.00     0.107 C 
HETATM    4  C6  UNL     1      26.355   3.300  50.426  1.00  0.00     0.195 C 
HETATM    5  N2  UNL     1      26.354   2.048  51.075  1.00  0.00    -0.291 NA
HETATM    6  C7  UNL     1      25.674   1.693  52.094  1.00  0.00     0.031 C 
HETATM    7  C15 UNL     1      24.669   2.308  53.010  1.00  0.00     0.204 C 
HETATM    8  N4  UNL     1      24.363   3.613  52.501  1.00  0.00    -0.279 NA
HETATM    9  C16 UNL     1      23.718   4.560  53.022  1.00  0.00     0.198 C 
HETATM   10  N5  UNL     1      23.744   5.613  52.036  1.00  0.00    -0.362 N 
HETATM   11  H21 UNL     1      23.088   6.390  52.276  1.00  0.00     0.162 HD
ENDROOT
BRANCH   6  12
HETATM   12  C8  UNL     1      25.894   0.296  52.548  1.00  0.00     0.097 C 
BRANCH  12  13
HETATM   13  C9  UNL     1      27.292   0.031  52.982  1.00  0.00    -0.027 A 
HETATM   14  C10 UNL     1      28.223   0.938  53.485  1.00  0.00     0.010 A 
HETATM   15  C11 UNL     1      29.479   0.488  53.834  1.00  0.00     0.001 A 
HETATM   16  C12 UNL     1      29.880  -0.806  53.720  1.00  0.00     0.002 A 
HETATM   17  C13 UNL     1      28.991  -1.721  53.230  1.00  0.00     0.029 A 
HETATM   18  C14 UNL     1      27.723  -1.296  52.873  1.00  0.00     0.032 A 
BRANCH  18  19
HETATM   19  N3  UNL     1      26.844  -2.304  52.368  1.00  0.00    -0.399 N 
HETATM   20  H16 UNL     1      25.913  -1.940  52.652  1.00  0.00     0.156 HD
HETATM   21  H17 UNL     1      27.125  -3.164  51.854  1.00  0.00     0.156 HD
ENDBRANCH  18  19
ENDBRANCH  12  13
ENDBRANCH   6  12
BRANCH   1  22
HETATM   22  C3  UNL     1      24.187   7.061  50.139  1.00  0.00     0.074 C 
BRANCH  22  23
HETATM   23  C2  UNL     1      22.898   7.603  50.629  1.00  0.00    -0.033 C 
HETATM   24  C1  UNL     1      21.728   7.758  50.017  1.00  0.00     0.007 C 
ENDBRANCH  22  23
ENDBRANCH   1  22
TORSDOF 5
ENDMDL
MODEL 5
REMARK VINA RESULT:      -6.8      2.683      4.226
REMARK  5 active torsions:
REMARK  status: ('A' for Active; 'I' for Inactive)
REMARK    1  A    between atoms: C2_2  and  C3_3 
REMARK    2  A    between atoms: C3_3  and  C4_4 
REMARK    3  A    between atoms: C7_9  and  C8_10 
REMARK    4  A    between atoms: C8_10  and  C9_11 
REMARK    5  A    between atoms: C14_16  and  N3_17 
ROOT
HETATM    1  C4  UNL     1      21.025   0.237  52.822  1.00  0.00     0.208 C 
HETATM    2  N1  UNL     1      21.866   0.272  51.666  1.00  0.00    -0.278 NA
HETATM    3  C5  UNL     1      22.745   1.192  51.557  1.00  0.00     0.107 C 
HETATM    4  C6  UNL     1      23.212   2.360  52.346  1.00  0.00     0.195 C 
HETATM    5  N2  UNL     1      24.593   2.318  52.629  1.00  0.00    -0.291 NA
HETATM    6  C7  UNL     1      25.232   1.438  53.295  1.00  0.00     0.031 C 
HETATM    7  C15 UNL     1      24.919   0.172  54.022  1.00  0.00     0.204 C 
HETATM    8  N4  UNL     1      23.534  -0.123  53.797  1.00  0.00    -0.279 NA
HETATM    9  C16 UNL     1      22.782  -0.974  54.342  1.00  0.00     0.198 C 
HETATM   10  N5  UNL     1      21.501  -0.801  53.704  1.00  0.00    -0.362 N 
HETATM   11  H21 UNL     1      20.837  -1.572  53.942  1.00  0.00     0.162 HD
ENDROOT
BRANCH   6  12
HETATM   12  C8  UNL     1      26.692   1.673  53.422  1.00  0.00     0.097 C 
BRANCH  12  13
HETATM   13  C9  UNL     1      27.501   0.429  53.321  1.00  0.00    -0.027 A 
HETATM   14  C10 UNL     1      27.135  -0.790  52.750  1.00  0.00     0.010 A 
HETATM   15  C11 UNL     1      28.039  -1.832  52.757  1.00  0.00     0.001 A 
HETATM   16  C12 UNL     1      29.286  -1.753  53.292  1.00  0.00     0.002 A 
HETATM   17  C13 UNL     1      29.674  -0.571  53.860  1.00  0.00     0.029 A 
HETATM   18  C14 UNL     1      28.788   0.492  53.866  1.00  0.00     0.032 A 
BRANCH  18  19
HETATM   19  N3  UNL     1      29.259   1.696  54.475  1.00  0.00    -0.399 N 
HETATM   20  H16 UNL     1      30.287   1.610  54.356  1.00  0.00     0.156 HD
HETATM   21  H17 UNL     1      28.670   2.435  54.910  1.00  0.00     0.156 HD
ENDBRANCH  18  19
ENDBRANCH  12  13
ENDBRANCH   6  12
BRANCH   1  22
HETATM   22  C3  UNL     1      19.579  -0.032  52.437  1.00  0.00     0.074 C 
BRANCH  22  23
HETATM   23  C2  UNL     1      18.991  -1.081  53.302  1.00  0.00    -0.033 C 
HETATM   24  C1  UNL     1      17.784  -1.638  53.299  1.00  0.00     0.007 C 
ENDBRANCH  22  23
ENDBRANCH   1  22
TORSDOF 5
ENDMDL
MODEL 6
REMARK VINA RESULT:      -6.6      2.122      7.389
REMARK  5 active torsions:
REMARK  status: ('A' for Active; 'I' for Inactive)
REMARK    1  A    between atoms: C2_2  and  C3_3 
REMARK    2  A    between atoms: C3_3  and  C4_4 
REMARK    3  A    between atoms: C7_9  and  C8_10 
REMARK    4  A    between atoms: C8_10  and  C9_11 
REMARK    5  A    between atoms: C14_16  and  N3_17 
ROOT
HETATM    1  C4  UNL     1      27.214   0.511  54.129  1.00  0.00     0.208 C 
HETATM    2  N1  UNL     1      26.517   1.760  54.123  1.00  0.00    -0.278 NA
HETATM    3  C5  UNL     1      25.792   2.071  53.118  1.00  0.00     0.107 C 
HETATM    4  C6  UNL     1      25.410   1.469  51.816  1.00  0.00     0.195 C 
HETATM    5  N2  UNL     1      24.015   1.356  51.647  1.00  0.00    -0.291 NA
HETATM    6  C7  UNL     1      23.191   0.688  52.355  1.00  0.00     0.031 C 
HETATM    7  C15 UNL     1      23.242  -0.197  53.556  1.00  0.00     0.204 C 
HETATM    8  N4  UNL     1      24.588  -0.177  54.049  1.00  0.00    -0.279 NA
HETATM    9  C16 UNL     1      25.148  -0.895  54.918  1.00  0.00     0.198 C 
HETATM   10  N5  UNL     1      26.503  -0.406  54.986  1.00  0.00    -0.362 N 
HETATM   11  H21 UNL     1      27.022  -0.802  55.802  1.00  0.00     0.162 HD
ENDROOT
BRANCH   6  12
HETATM   12  C8  UNL     1      21.772   0.768  51.922  1.00  0.00     0.097 C 
BRANCH  12  13
HETATM   13  C9  UNL     1      21.383   2.114  51.422  1.00  0.00    -0.027 A 
HETATM   14  C10 UNL     1      21.066   3.248  52.167  1.00  0.00     0.010 A 
HETATM   15  C11 UNL     1      20.728   4.412  51.507  1.00  0.00     0.001 A 
HETATM   16  C12 UNL     1      20.682   4.531  50.154  1.00  0.00     0.002 A 
HETATM   17  C13 UNL     1      20.988   3.437  49.395  1.00  0.00     0.029 A 
HETATM   18  C14 UNL     1      21.331   2.256  50.031  1.00  0.00     0.032 A 
BRANCH  18  19
HETATM   19  N3  UNL     1      21.639   1.152  49.178  1.00  0.00    -0.399 N 
HETATM   20  H16 UNL     1      21.367   0.341  49.767  1.00  0.00     0.156 HD
HETATM   21  H17 UNL     1      22.034   1.208  48.217  1.00  0.00     0.156 HD
ENDBRANCH  18  19
ENDBRANCH  12  13
ENDBRANCH   6  12
BRANCH   1  22
HETATM   22  C3  UNL     1      28.641   0.685  54.623  1.00  0.00     0.074 C 
BRANCH  22  23
HETATM   23  C2  UNL     1      29.459  -0.506  54.295  1.00  0.00    -0.033 C 
HETATM   24  C1  UNL     1      29.448  -1.305  53.233  1.00  0.00     0.007 C 
ENDBRANCH  22  23
ENDBRANCH   1  22
TORSDOF 5
ENDMDL
MODEL 7
REMARK VINA RESULT:      -6.5      2.542      3.888
REMARK  5 active torsions:
REMARK  status: ('A' for Active; 'I' for Inactive)
REMARK    1  A    between atoms: C2_2  and  C3_3 
REMARK    2  A    between atoms: C3_3  and  C4_4 
REMARK    3  A    between atoms: C7_9  and  C8_10 
REMARK    4  A    between atoms: C8_10  and  C9_11 
REMARK    5  A    between atoms: C14_16  and  N3_17 
ROOT
HETATM    1  C4  UNL     1      20.866   1.747  52.436  1.00  0.00     0.208 C 
HETATM    2  N1  UNL     1      21.311   1.136  51.222  1.00  0.00    -0.278 NA
HETATM    3  C5  UNL     1      22.473   1.410  50.769  1.00  0.00     0.107 C 
HETATM    4  C6  UNL     1      23.628   2.259  51.159  1.00  0.00     0.195 C 
HETATM    5  N2  UNL     1      24.831   1.534  51.279  1.00  0.00    -0.291 NA
HETATM    6  C7  UNL     1      25.092   0.573  52.076  1.00  0.00     0.031 C 
HETATM    7  C15 UNL     1      24.381  -0.189  53.146  1.00  0.00     0.204 C 
HETATM    8  N4  UNL     1      23.023   0.270  53.172  1.00  0.00    -0.279 NA
HETATM    9  C16 UNL     1      22.106   0.056  54.007  1.00  0.00     0.198 C 
HETATM   10  N5  UNL     1      20.965   0.778  53.500  1.00  0.00    -0.362 N 
HETATM   11  H21 UNL     1      20.087   0.534  54.011  1.00  0.00     0.162 HD
ENDROOT
BRANCH   6  12
HETATM   12  C8  UNL     1      26.461   0.009  51.964  1.00  0.00     0.097 C 
BRANCH  12  13
HETATM   13  C9  UNL     1      27.460   0.713  52.812  1.00  0.00    -0.027 A 
HETATM   14  C10 UNL     1      27.726   2.080  52.871  1.00  0.00     0.010 A 
HETATM   15  C11 UNL     1      28.701   2.538  53.732  1.00  0.00     0.001 A 
HETATM   16  C12 UNL     1      29.436   1.732  54.544  1.00  0.00     0.002 A 
HETATM   17  C13 UNL     1      29.199   0.387  54.510  1.00  0.00     0.029 A 
HETATM   18  C14 UNL     1      28.225  -0.100  53.656  1.00  0.00     0.032 A 
BRANCH  18  19
HETATM   19  N3  UNL     1      28.029  -1.516  53.671  1.00  0.00    -0.399 N 
HETATM   20  H16 UNL     1      27.519  -1.673  52.779  1.00  0.00     0.156 HD
HETATM   21  H17 UNL     1      28.342  -2.172  54.415  1.00  0.00     0.156 HD
ENDBRANCH  18  19
ENDBRANCH  12  13
ENDBRANCH   6  12
BRANCH   1  22
HETATM   22  C3  UNL     1      19.431   2.234  52.308  1.00  0.00     0.074 C 
BRANCH  22  23
HETATM   23  C2  UNL     1      19.376   3.517  51.569  1.00  0.00    -0.033 C 
HETATM   24  C1  UNL     1      18.974   3.795  50.333  1.00  0.00     0.007 C 
ENDBRANCH  22  23
ENDBRANCH   1  22
TORSDOF 5
ENDMDL
MODEL 8
REMARK VINA RESULT:      -6.5      2.776      4.308
REMARK  5 active torsions:
REMARK  status: ('A' for Active; 'I' for Inactive)
REMARK    1  A    between atoms: C2_2  and  C3_3 
REMARK    2  A    between atoms: C3_3  and  C4_4 
REMARK    3  A    between atoms: C7_9  and  C8_10 
REMARK    4  A    between atoms: C8_10  and  C9_11 
REMARK    5  A    between atoms: C14_16  and  N3_17 
ROOT
HETATM    1  C4  UNL     1      24.589   5.827  50.932  1.00  0.00     0.208 C 
HETATM    2  N1  UNL     1      24.167   4.756  50.083  1.00  0.00    -0.278 NA
HETATM    3  C5  UNL     1      24.871   3.693  50.016  1.00  0.00     0.107 C 
HETATM    4  C6  UNL     1      26.127   3.171  50.613  1.00  0.00     0.195 C 
HETATM    5  N2  UNL     1      25.954   1.937  51.274  1.00  0.00    -0.291 NA
HETATM    6  C7  UNL     1      25.208   1.683  52.277  1.00  0.00     0.031 C 
HETATM    7  C15 UNL     1      24.263   2.429  53.159  1.00  0.00     0.204 C 
HETATM    8  N4  UNL     1      24.135   3.755  52.629  1.00  0.00    -0.279 NA
HETATM    9  C16 UNL     1      23.599   4.782  53.122  1.00  0.00     0.198 C 
HETATM   10  N5  UNL     1      23.781   5.810  52.127  1.00  0.00    -0.362 N 
HETATM   11  H21 UNL     1      23.221   6.666  52.341  1.00  0.00     0.162 HD
ENDROOT
BRANCH   6  12
HETATM   12  C8  UNL     1      25.241   0.276  52.751  1.00  0.00     0.097 C 
BRANCH  12  13
HETATM   13  C9  UNL     1      23.933  -0.198  53.279  1.00  0.00    -0.027 A 
HETATM   14  C10 UNL     1      22.677  -0.092  52.686  1.00  0.00     0.010 A 
HETATM   15  C11 UNL     1      21.577  -0.601  53.345  1.00  0.00     0.001 A 
HETATM   16  C12 UNL     1      21.635  -1.211  54.558  1.00  0.00     0.002 A 
HETATM   17  C13 UNL     1      22.853  -1.331  55.167  1.00  0.00     0.029 A 
HETATM   18  C14 UNL     1      23.973  -0.829  54.528  1.00  0.00     0.032 A 
BRANCH  18  19
HETATM   19  N3  UNL     1      25.214  -0.988  55.220  1.00  0.00    -0.399 N 
HETATM   20  H16 UNL     1      25.893  -1.046  54.436  1.00  0.00     0.156 HD
HETATM   21  H17 UNL     1      25.341  -1.028  56.252  1.00  0.00     0.156 HD
ENDBRANCH  18  19
ENDBRANCH  12  13
ENDBRANCH   6  12
BRANCH   1  22
HETATM   22  C3  UNL     1      24.451   7.168  50.229  1.00  0.00     0.074 C 
BRANCH  22  23
HETATM   23  C2  UNL     1      23.135   7.782  50.524  1.00  0.00    -0.033 C 
HETATM   24  C1  UNL     1      22.000   7.786  49.832  1.00  0.00     0.007 C 
ENDBRANCH  22  23
ENDBRANCH   1  22
TORSDOF 5
ENDMDL
MODEL 9
REMARK VINA RESULT:      -6.3      2.523      7.159
REMARK  5 active torsions:
REMARK  status: ('A' for Active; 'I' for Inactive)
REMARK    1  A    between atoms: C2_2  and  C3_3 
REMARK    2  A    between atoms: C3_3  and  C4_4 
REMARK    3  A    between atoms: C7_9  and  C8_10 
REMARK    4  A    between atoms: C8_10  and  C9_11 
REMARK    5  A    between atoms: C14_16  and  N3_17 
ROOT
HETATM    1  C4  UNL     1      25.933   0.427  52.332  1.00  0.00     0.208 C 
HETATM    2  N1  UNL     1      26.649   1.649  52.531  1.00  0.00    -0.278 NA
HETATM    3  C5  UNL     1      26.799   2.456  51.552  1.00  0.00     0.107 C 
HETATM    4  C6  UNL     1      26.416   2.521  50.119  1.00  0.00     0.195 C 
HETATM    5  N2  UNL     1      25.686   3.684  49.794  1.00  0.00    -0.291 NA
HETATM    6  C7  UNL     1      24.557   4.054  50.256  1.00  0.00     0.031 C 
HETATM    7  C15 UNL     1      23.550   3.545  51.234  1.00  0.00     0.204 C 
HETATM    8  N4  UNL     1      24.101   2.373  51.848  1.00  0.00    -0.279 NA
HETATM    9  C16 UNL     1      23.561   1.511  52.590  1.00  0.00     0.198 C 
HETATM   10  N5  UNL     1      24.613   0.573  52.895  1.00  0.00    -0.362 N 
HETATM   11  H21 UNL     1      24.337  -0.094  53.652  1.00  0.00     0.162 HD
ENDROOT
BRANCH   6  12
HETATM   12  C8  UNL     1      24.040   5.337  49.714  1.00  0.00     0.097 C 
BRANCH  12  13
HETATM   13  C9  UNL     1      25.108   6.339  49.452  1.00  0.00    -0.027 A 
HETATM   14  C10 UNL     1      25.880   6.490  48.301  1.00  0.00     0.010 A 
HETATM   15  C11 UNL     1      26.828   7.491  48.256  1.00  0.00     0.001 A 
HETATM   16  C12 UNL     1      27.067   8.358  49.275  1.00  0.00     0.002 A 
HETATM   17  C13 UNL     1      26.326   8.236  50.418  1.00  0.00     0.029 A 
HETATM   18  C14 UNL     1      25.368   7.240  50.491  1.00  0.00     0.032 A 
BRANCH  18  19
HETATM   19  N3  UNL     1      24.630   7.169  51.713  1.00  0.00    -0.399 N 
HETATM   20  H16 UNL     1      25.261   7.662  52.375  1.00  0.00     0.156 HD
HETATM   21  H17 UNL     1      23.699   6.722  51.844  1.00  0.00     0.156 HD
ENDBRANCH  18  19
ENDBRANCH  12  13
ENDBRANCH   6  12
BRANCH   1  22
HETATM   22  C3  UNL     1      26.653  -0.740  52.989  1.00  0.00     0.074 C 
BRANCH  22  23
HETATM   23  C2  UNL     1      28.023  -0.350  53.396  1.00  0.00    -0.033 C 
HETATM   24  C1  UNL     1      29.168  -1.024  53.361  1.00  0.00     0.007 C 
ENDBRANCH  22  23
ENDBRANCH   1  22
TORSDOF 5
ENDMDL
