MODEL 1
REMARK VINA RESULT:      -8.4      0.000      0.000
REMARK  5 active torsions:
REMARK  status: ('A' for Active; 'I' for Inactive)
REMARK    1  A    between atoms: C2_2  and  C3_4 
REMARK    2  A    between atoms: C3_4  and  P1_5 
REMARK    3  A    between atoms: P1_5  and  C4_6 
REMARK    4  A    between atoms: C7_9  and  N1_10 
REMARK    5  A    between atoms: N1_10  and  C8_11 
ROOT
HETATM    1  C4  UNL     1      20.336   0.007  52.305  1.00  0.00    -0.027 A 
HETATM    2  C5  UNL     1      21.713   0.247  52.339  1.00  0.00     0.028 A 
HETATM    3  C6  UNL     1      22.450  -0.310  53.369  1.00  0.00     0.022 A 
HETATM    4  C7  UNL     1      23.819  -0.033  53.346  1.00  0.00     0.067 A 
HETATM    5  C14 UNL     1      24.583  -0.587  54.379  1.00  0.00     0.089 A 
HETATM    6  C15 UNL     1      26.010  -0.360  54.446  1.00  0.00     0.103 C 
HETATM    7  N2  UNL     1      27.150  -0.161  54.497  1.00  0.00    -0.191 NA
HETATM    8  C16 UNL     1      23.966  -1.361  55.349  1.00  0.00     0.142 A 
HETATM    9  N3  UNL     1      22.630  -1.613  55.346  1.00  0.00    -0.259 NA
HETATM   10  C17 UNL     1      21.886  -1.092  54.368  1.00  0.00     0.069 A 
HETATM   11  C18 UNL     1      20.517  -1.309  54.301  1.00  0.00     0.040 A 
HETATM   12  C19 UNL     1      19.734  -0.765  53.277  1.00  0.00    -0.049 A 
HETATM   13  C20 UNL     1      18.285  -1.042  53.277  1.00  0.00     0.049 C 
ENDROOT
BRANCH   4  14
HETATM   14  N1  UNL     1      24.479   0.744  52.382  1.00  0.00    -0.354 N 
HETATM   15  H8  UNL     1      25.237   0.246  51.866  1.00  0.00     0.166 HD
BRANCH  14  16
HETATM   16  C8  UNL     1      24.160   2.104  52.109  1.00  0.00     0.033 A 
HETATM   17  C9  UNL     1      24.067   2.988  53.165  1.00  0.00     0.029 A 
HETATM   18  C10 UNL     1      23.758   4.317  52.928  1.00  0.00     0.004 A 
HETATM   19  C11 UNL     1      23.553   4.703  51.607  1.00  0.00     0.019 A 
HETATM   20  C12 UNL     1      23.647   3.816  50.557  1.00  0.00     0.013 A 
HETATM   21 BR1  UNL     1      23.365   4.346  48.747  1.00  0.00    -0.051 Br
HETATM   22  C13 UNL     1      23.957   2.483  50.796  1.00  0.00     0.048 A 
ENDBRANCH  14  16
ENDBRANCH   4  14
BRANCH   1  23
HETATM   23  P1  UNL     1      19.282   0.701  50.983  1.00  0.00    -0.087 P 
HETATM   24  H6  UNL     1      18.166  -0.171  50.669  1.00  0.00     0.063 HD
BRANCH  23  25
HETATM   25  C3  UNL     1      18.588   2.332  51.490  1.00  0.00     0.114 C 
BRANCH  25  26
HETATM   26  C2  UNL     1      19.658   3.353  51.645  1.00  0.00     0.127 C 
HETATM   27  C1  UNL     1      19.924   4.166  50.420  1.00  0.00     0.091 C 
HETATM   28  O1  UNL     1      20.158   3.362  52.777  1.00  0.00    -0.298 OA
ENDBRANCH  25  26
ENDBRANCH  23  25
ENDBRANCH   1  23
TORSDOF 5
ENDMDL
MODEL 2
REMARK VINA RESULT:      -8.3      3.578      5.890
REMARK  5 active torsions:
REMARK  status: ('A' for Active; 'I' for Inactive)
REMARK    1  A    between atoms: C2_2  and  C3_4 
REMARK    2  A    between atoms: C3_4  and  P1_5 
REMARK    3  A    between atoms: P1_5  and  C4_6 
REMARK    4  A    between atoms: C7_9  and  N1_10 
REMARK    5  A    between atoms: N1_10  and  C8_11 
ROOT
HETATM    1  C4  UNL     1      23.898   3.387  50.217  1.00  0.00    -0.027 A 
HETATM    2  C5  UNL     1      23.996   2.601  51.369  1.00  0.00     0.028 A 
HETATM    3  C6  UNL     1      23.053   1.609  51.569  1.00  0.00     0.022 A 
HETATM    4  C7  UNL     1      23.206   0.861  52.738  1.00  0.00     0.067 A 
HETATM    5  C14 UNL     1      22.263  -0.149  52.958  1.00  0.00     0.089 A 
HETATM    6  C15 UNL     1      22.333  -0.981  54.139  1.00  0.00     0.103 C 
HETATM    7  N2  UNL     1      22.391  -1.632  55.095  1.00  0.00    -0.191 NA
HETATM    8  C16 UNL     1      21.248  -0.354  52.036  1.00  0.00     0.142 A 
HETATM    9  N3  UNL     1      21.124   0.393  50.906  1.00  0.00    -0.259 NA
HETATM   10  C17 UNL     1      22.016   1.360  50.679  1.00  0.00     0.069 A 
HETATM   11  C18 UNL     1      21.950   2.159  49.547  1.00  0.00     0.040 A 
HETATM   12  C19 UNL     1      22.884   3.174  49.306  1.00  0.00    -0.049 A 
HETATM   13  C20 UNL     1      22.745   3.980  48.079  1.00  0.00     0.049 C 
ENDROOT
BRANCH   4  14
HETATM   14  N1  UNL     1      24.218   1.037  53.693  1.00  0.00    -0.354 N 
HETATM   15  H8  UNL     1      23.923   1.560  54.547  1.00  0.00     0.166 HD
BRANCH  14  16
HETATM   16  C8  UNL     1      25.546   0.552  53.538  1.00  0.00     0.033 A 
HETATM   17  C9  UNL     1      25.732  -0.711  53.013  1.00  0.00     0.029 A 
HETATM   18  C10 UNL     1      27.015  -1.209  52.851  1.00  0.00     0.004 A 
HETATM   19  C11 UNL     1      28.074  -0.392  53.234  1.00  0.00     0.019 A 
HETATM   20  C12 UNL     1      27.881   0.868  53.758  1.00  0.00     0.013 A 
HETATM   21 BR1  UNL     1      29.334   1.987  54.282  1.00  0.00    -0.051 Br
HETATM   22  C13 UNL     1      26.595   1.366  53.920  1.00  0.00     0.048 A 
ENDBRANCH  14  16
ENDBRANCH   4  14
BRANCH   1  23
HETATM   23  P1  UNL     1      25.098   4.720  49.869  1.00  0.00    -0.087 P 
HETATM   24  H6  UNL     1      25.357   5.533  51.044  1.00  0.00     0.063 HD
BRANCH  23  25
HETATM   25  C3  UNL     1      26.711   4.020  49.312  1.00  0.00     0.114 C 
BRANCH  25  26
HETATM   26  C2  UNL     1      27.554   5.053  48.655  1.00  0.00     0.127 C 
HETATM   27  C1  UNL     1      26.867   6.359  48.421  1.00  0.00     0.091 C 
HETATM   28  O1  UNL     1      28.700   4.656  48.407  1.00  0.00    -0.298 OA
ENDBRANCH  25  26
ENDBRANCH  23  25
ENDBRANCH   1  23
TORSDOF 5
ENDMDL
MODEL 3
REMARK VINA RESULT:      -8.1      3.891      6.430
REMARK  5 active torsions:
REMARK  status: ('A' for Active; 'I' for Inactive)
REMARK    1  A    between atoms: C2_2  and  C3_4 
REMARK    2  A    between atoms: C3_4  and  P1_5 
REMARK    3  A    between atoms: P1_5  and  C4_6 
REMARK    4  A    between atoms: C7_9  and  N1_10 
REMARK    5  A    between atoms: N1_10  and  C8_11 
ROOT
HETATM    1  C4  UNL     1      24.449   1.587  53.158  1.00  0.00    -0.027 A 
HETATM    2  C5  UNL     1      24.337   2.917  52.744  1.00  0.00     0.028 A 
HETATM    3  C6  UNL     1      23.113   3.357  52.274  1.00  0.00     0.022 A 
HETATM    4  C7  UNL     1      23.068   4.695  51.876  1.00  0.00     0.067 A 
HETATM    5  C14 UNL     1      21.838   5.161  51.398  1.00  0.00     0.089 A 
HETATM    6  C15 UNL     1      21.685   6.531  50.962  1.00  0.00     0.103 C 
HETATM    7  N2  UNL     1      21.579   7.627  50.602  1.00  0.00    -0.191 NA
HETATM    8  C16 UNL     1      20.754   4.299  51.341  1.00  0.00     0.142 A 
HETATM    9  N3  UNL     1      20.829   2.999  51.734  1.00  0.00    -0.259 NA
HETATM   10  C17 UNL     1      21.994   2.539  52.194  1.00  0.00     0.069 A 
HETATM   11  C18 UNL     1      22.142   1.225  52.613  1.00  0.00     0.040 A 
HETATM   12  C19 UNL     1      23.363   0.739  53.095  1.00  0.00    -0.049 A 
HETATM   13  C20 UNL     1      23.439  -0.672  53.522  1.00  0.00     0.049 C 
ENDROOT
BRANCH   4  14
HETATM   14  N1  UNL     1      24.142   5.597  51.920  1.00  0.00    -0.354 N 
HETATM   15  H8  UNL     1      24.297   6.044  52.850  1.00  0.00     0.166 HD
BRANCH  14  16
HETATM   16  C8  UNL     1      24.970   5.895  50.803  1.00  0.00     0.033 A 
HETATM   17  C9  UNL     1      25.426   4.854  50.020  1.00  0.00     0.029 A 
HETATM   18  C10 UNL     1      26.235   5.115  48.926  1.00  0.00     0.004 A 
HETATM   19  C11 UNL     1      26.553   6.444  48.666  1.00  0.00     0.019 A 
HETATM   20  C12 UNL     1      26.095   7.480  49.451  1.00  0.00     0.013 A 
HETATM   21 BR1  UNL     1      26.532   9.301  49.094  1.00  0.00    -0.051 Br
HETATM   22  C13 UNL     1      25.285   7.216  50.548  1.00  0.00     0.048 A 
ENDBRANCH  14  16
ENDBRANCH   4  14
BRANCH   1  23
HETATM   23  P1  UNL     1      26.027   0.917  53.793  1.00  0.00    -0.087 P 
HETATM   24  H6  UNL     1      26.073  -0.531  53.705  1.00  0.00     0.063 HD
BRANCH  23  25
HETATM   25  C3  UNL     1      27.453   1.578  52.829  1.00  0.00     0.114 C 
BRANCH  25  26
HETATM   26  C2  UNL     1      28.707   1.552  53.627  1.00  0.00     0.127 C 
HETATM   27  C1  UNL     1      29.451   0.258  53.574  1.00  0.00     0.091 C 
HETATM   28  O1  UNL     1      28.931   2.620  54.212  1.00  0.00    -0.298 OA
ENDBRANCH  25  26
ENDBRANCH  23  25
ENDBRANCH   1  23
TORSDOF 5
ENDMDL
MODEL 4
REMARK VINA RESULT:      -8.0      2.914      5.419
REMARK  5 active torsions:
REMARK  status: ('A' for Active; 'I' for Inactive)
REMARK    1  A    between atoms: C2_2  and  C3_4 
REMARK    2  A    between atoms: C3_4  and  P1_5 
REMARK    3  A    between atoms: P1_5  and  C4_6 
REMARK    4  A    between atoms: C7_9  and  N1_10 
REMARK    5  A    between atoms: N1_10  and  C8_11 
ROOT
HETATM    1  C4  UNL     1      24.451   3.467  50.764  1.00  0.00    -0.027 A 
HETATM    2  C5  UNL     1      23.630   2.729  51.621  1.00  0.00     0.028 A 
HETATM    3  C6  UNL     1      24.150   1.589  52.208  1.00  0.00     0.022 A 
HETATM    4  C7  UNL     1      23.279   0.897  53.053  1.00  0.00     0.067 A 
HETATM    5  C14 UNL     1      23.786  -0.258  53.657  1.00  0.00     0.089 A 
HETATM    6  C15 UNL     1      22.965  -1.046  54.549  1.00  0.00     0.103 C 
HETATM    7  N2  UNL     1      22.294  -1.677  55.252  1.00  0.00    -0.191 NA
HETATM    8  C16 UNL     1      25.089  -0.654  53.397  1.00  0.00     0.142 A 
HETATM    9  N3  UNL     1      25.914   0.041  52.567  1.00  0.00    -0.259 NA
HETATM   10  C17 UNL     1      25.447   1.146  51.983  1.00  0.00     0.069 A 
HETATM   11  C18 UNL     1      26.233   1.903  51.127  1.00  0.00     0.040 A 
HETATM   12  C19 UNL     1      25.746   3.063  50.512  1.00  0.00    -0.049 A 
HETATM   13  C20 UNL     1      26.645   3.813  49.615  1.00  0.00     0.049 C 
ENDROOT
BRANCH   4  14
HETATM   14  N1  UNL     1      21.957   1.266  53.341  1.00  0.00    -0.354 N 
HETATM   15  H8  UNL     1      21.851   1.898  54.164  1.00  0.00     0.166 HD
BRANCH  14  16
HETATM   16  C8  UNL     1      20.832   0.829  52.587  1.00  0.00     0.033 A 
HETATM   17  C9  UNL     1      20.698   1.265  51.284  1.00  0.00     0.029 A 
HETATM   18  C10 UNL     1      19.612   0.855  50.527  1.00  0.00     0.004 A 
HETATM   19  C11 UNL     1      18.691   0.007  51.133  1.00  0.00     0.019 A 
HETATM   20  C12 UNL     1      18.830  -0.425  52.434  1.00  0.00     0.013 A 
HETATM   21 BR1  UNL     1      17.566  -1.589  53.262  1.00  0.00    -0.051 Br
HETATM   22  C13 UNL     1      19.919  -0.014  53.192  1.00  0.00     0.048 A 
ENDBRANCH  14  16
ENDBRANCH   4  14
BRANCH   1  23
HETATM   23  P1  UNL     1      23.850   4.986  49.944  1.00  0.00    -0.087 P 
HETATM   24  H6  UNL     1      24.920   5.942  49.728  1.00  0.00     0.063 HD
BRANCH  23  25
HETATM   25  C3  UNL     1      23.116   4.593  48.299  1.00  0.00     0.114 C 
BRANCH  25  26
HETATM   26  C2  UNL     1      22.086   3.526  48.404  1.00  0.00     0.127 C 
HETATM   27  C1  UNL     1      22.499   2.205  47.842  1.00  0.00     0.091 C 
HETATM   28  O1  UNL     1      21.043   3.912  48.948  1.00  0.00    -0.298 OA
ENDBRANCH  25  26
ENDBRANCH  23  25
ENDBRANCH   1  23
TORSDOF 5
ENDMDL
MODEL 5
REMARK VINA RESULT:      -8.0      3.124      5.201
REMARK  5 active torsions:
REMARK  status: ('A' for Active; 'I' for Inactive)
REMARK    1  A    between atoms: C2_2  and  C3_4 
REMARK    2  A    between atoms: C3_4  and  P1_5 
REMARK    3  A    between atoms: P1_5  and  C4_6 
REMARK    4  A    between atoms: C7_9  and  N1_10 
REMARK    5  A    between atoms: N1_10  and  C8_11 
ROOT
HETATM    1  C4  UNL     1      23.903  -0.159  53.395  1.00  0.00    -0.027 A 
HETATM    2  C5  UNL     1      23.447   0.500  52.250  1.00  0.00     0.028 A 
HETATM    3  C6  UNL     1      22.082   0.587  52.043  1.00  0.00     0.022 A 
HETATM    4  C7  UNL     1      21.692   1.258  50.881  1.00  0.00     0.067 A 
HETATM    5  C14 UNL     1      20.315   1.358  50.654  1.00  0.00     0.089 A 
HETATM    6  C15 UNL     1      19.808   2.033  49.480  1.00  0.00     0.103 C 
HETATM    7  N2  UNL     1      19.413   2.564  48.529  1.00  0.00    -0.191 NA
HETATM    8  C16 UNL     1      19.427   0.803  51.562  1.00  0.00     0.142 A 
HETATM    9  N3  UNL     1      19.838   0.154  52.685  1.00  0.00    -0.259 NA
HETATM   10  C17 UNL     1      21.148   0.050  52.919  1.00  0.00     0.069 A 
HETATM   11  C18 UNL     1      21.636  -0.597  54.044  1.00  0.00     0.040 A 
HETATM   12  C19 UNL     1      23.009  -0.708  54.292  1.00  0.00    -0.049 A 
HETATM   13  C20 UNL     1      23.449  -1.411  55.512  1.00  0.00     0.049 C 
ENDROOT
BRANCH   4  14
HETATM   14  N1  UNL     1      22.559   1.832  49.940  1.00  0.00    -0.354 N 
HETATM   15  H8  UNL     1      22.650   1.296  49.048  1.00  0.00     0.166 HD
BRANCH  14  16
HETATM   16  C8  UNL     1      23.270   3.046  50.156  1.00  0.00     0.033 A 
HETATM   17  C9  UNL     1      22.672   4.038  50.905  1.00  0.00     0.029 A 
HETATM   18  C10 UNL     1      23.340   5.231  51.131  1.00  0.00     0.004 A 
HETATM   19  C11 UNL     1      24.609   5.369  50.578  1.00  0.00     0.019 A 
HETATM   20  C12 UNL     1      25.201   4.375  49.830  1.00  0.00     0.013 A 
HETATM   21 BR1  UNL     1      26.941   4.566  49.073  1.00  0.00    -0.051 Br
HETATM   22  C13 UNL     1      24.530   3.180  49.605  1.00  0.00     0.048 A 
ENDBRANCH  14  16
ENDBRANCH   4  14
BRANCH   1  23
HETATM   23  P1  UNL     1      25.688  -0.324  53.751  1.00  0.00    -0.087 P 
HETATM   24  H6  UNL     1      26.455  -0.595  52.550  1.00  0.00     0.063 HD
BRANCH  23  25
HETATM   25  C3  UNL     1      26.351   1.227  54.497  1.00  0.00     0.114 C 
BRANCH  25  26
HETATM   26  C2  UNL     1      27.242   1.947  53.549  1.00  0.00     0.127 C 
HETATM   27  C1  UNL     1      26.948   1.695  52.106  1.00  0.00     0.091 C 
HETATM   28  O1  UNL     1      28.091   2.646  54.118  1.00  0.00    -0.298 OA
ENDBRANCH  25  26
ENDBRANCH  23  25
ENDBRANCH   1  23
TORSDOF 5
ENDMDL
MODEL 6
REMARK VINA RESULT:      -7.6      2.375      3.983
REMARK  5 active torsions:
REMARK  status: ('A' for Active; 'I' for Inactive)
REMARK    1  A    between atoms: C2_2  and  C3_4 
REMARK    2  A    between atoms: C3_4  and  P1_5 
REMARK    3  A    between atoms: P1_5  and  C4_6 
REMARK    4  A    between atoms: C7_9  and  N1_10 
REMARK    5  A    between atoms: N1_10  and  C8_11 
ROOT
HETATM    1  C4  UNL     1      22.255   0.605  53.352  1.00  0.00    -0.027 A 
HETATM    2  C5  UNL     1      22.766   1.567  52.477  1.00  0.00     0.028 A 
HETATM    3  C6  UNL     1      24.112   1.522  52.165  1.00  0.00     0.022 A 
HETATM    4  C7  UNL     1      24.559   2.510  51.285  1.00  0.00     0.067 A 
HETATM    5  C14 UNL     1      25.919   2.481  50.956  1.00  0.00     0.089 A 
HETATM    6  C15 UNL     1      26.482   3.461  50.053  1.00  0.00     0.103 C 
HETATM    7  N2  UNL     1      26.924   4.259  49.339  1.00  0.00    -0.191 NA
HETATM    8  C16 UNL     1      26.737   1.504  51.502  1.00  0.00     0.142 A 
HETATM    9  N3  UNL     1      26.272   0.554  52.358  1.00  0.00    -0.259 NA
HETATM   10  C17 UNL     1      24.978   0.566  52.682  1.00  0.00     0.069 A 
HETATM   11  C18 UNL     1      24.436  -0.373  53.548  1.00  0.00     0.040 A 
HETATM   12  C19 UNL     1      23.079  -0.363  53.890  1.00  0.00    -0.049 A 
HETATM   13  C20 UNL     1      22.580  -1.396  54.817  1.00  0.00     0.049 C 
ENDROOT
BRANCH   4  14
HETATM   14  N1  UNL     1      23.764   3.513  50.712  1.00  0.00    -0.354 N 
HETATM   15  H8  UNL     1      23.636   4.361  51.308  1.00  0.00     0.166 HD
BRANCH  14  16
HETATM   16  C8  UNL     1      23.168   3.412  49.424  1.00  0.00     0.033 A 
HETATM   17  C9  UNL     1      22.796   2.165  48.963  1.00  0.00     0.029 A 
HETATM   18  C10 UNL     1      22.214   2.036  47.713  1.00  0.00     0.004 A 
HETATM   19  C11 UNL     1      22.029   3.197  46.969  1.00  0.00     0.019 A 
HETATM   20  C12 UNL     1      22.403   4.439  47.434  1.00  0.00     0.013 A 
HETATM   21 BR1  UNL     1      22.149   6.030  46.412  1.00  0.00    -0.051 Br
HETATM   22  C13 UNL     1      22.986   4.567  48.688  1.00  0.00     0.048 A 
ENDBRANCH  14  16
ENDBRANCH   4  14
BRANCH   1  23
HETATM   23  P1  UNL     1      20.489   0.586  53.822  1.00  0.00    -0.087 P 
HETATM   24  H6  UNL     1      20.091   1.821  54.473  1.00  0.00     0.063 HD
BRANCH  23  25
HETATM   25  C3  UNL     1      19.420   0.372  52.334  1.00  0.00     0.114 C 
BRANCH  25  26
HETATM   26  C2  UNL     1      19.303   1.637  51.563  1.00  0.00     0.127 C 
HETATM   27  C1  UNL     1      19.308   1.464  50.079  1.00  0.00     0.091 C 
HETATM   28  O1  UNL     1      19.220   2.640  52.285  1.00  0.00    -0.298 OA
ENDBRANCH  25  26
ENDBRANCH  23  25
ENDBRANCH   1  23
TORSDOF 5
ENDMDL
MODEL 7
REMARK VINA RESULT:      -7.4      3.416      5.715
REMARK  5 active torsions:
REMARK  status: ('A' for Active; 'I' for Inactive)
REMARK    1  A    between atoms: C2_2  and  C3_4 
REMARK    2  A    between atoms: C3_4  and  P1_5 
REMARK    3  A    between atoms: P1_5  and  C4_6 
REMARK    4  A    between atoms: C7_9  and  N1_10 
REMARK    5  A    between atoms: N1_10  and  C8_11 
ROOT
HETATM    1  C4  UNL     1      23.626   0.049  53.118  1.00  0.00    -0.027 A 
HETATM    2  C5  UNL     1      23.376   0.703  51.908  1.00  0.00     0.028 A 
HETATM    3  C6  UNL     1      22.067   0.802  51.473  1.00  0.00     0.022 A 
HETATM    4  C7  UNL     1      21.885   1.466  50.258  1.00  0.00     0.067 A 
HETATM    5  C14 UNL     1      20.568   1.577  49.801  1.00  0.00     0.089 A 
HETATM    6  C15 UNL     1      20.272   2.247  48.554  1.00  0.00     0.103 C 
HETATM    7  N2  UNL     1      20.049   2.774  47.547  1.00  0.00    -0.191 NA
HETATM    8  C16 UNL     1      19.534   1.038  50.550  1.00  0.00     0.142 A 
HETATM    9  N3  UNL     1      19.742   0.394  51.730  1.00  0.00    -0.259 NA
HETATM   10  C17 UNL     1      20.993   0.280  52.182  1.00  0.00     0.069 A 
HETATM   11  C18 UNL     1      21.278  -0.363  53.378  1.00  0.00     0.040 A 
HETATM   12  C19 UNL     1      22.588  -0.484  53.854  1.00  0.00    -0.049 A 
HETATM   13  C20 UNL     1      22.809  -1.182  55.136  1.00  0.00     0.049 C 
ENDROOT
BRANCH   4  14
HETATM   14  N1  UNL     1      22.905   2.025  49.473  1.00  0.00    -0.354 N 
HETATM   15  H8  UNL     1      23.169   1.459  48.637  1.00  0.00     0.166 HD
BRANCH  14  16
HETATM   16  C8  UNL     1      23.543   3.262  49.769  1.00  0.00     0.033 A 
HETATM   17  C9  UNL     1      24.923   3.312  49.762  1.00  0.00     0.029 A 
HETATM   18  C10 UNL     1      25.571   4.503  50.047  1.00  0.00     0.004 A 
HETATM   19  C11 UNL     1      24.781   5.612  50.330  1.00  0.00     0.019 A 
HETATM   20  C12 UNL     1      23.404   5.555  50.336  1.00  0.00     0.013 A 
HETATM   21 BR1  UNL     1      22.322   7.077  50.724  1.00  0.00    -0.051 Br
HETATM   22  C13 UNL     1      22.755   4.361  50.050  1.00  0.00     0.048 A 
ENDBRANCH  14  16
ENDBRANCH   4  14
BRANCH   1  23
HETATM   23  P1  UNL     1      25.324  -0.129  53.771  1.00  0.00    -0.087 P 
HETATM   24  H6  UNL     1      25.372  -1.028  54.910  1.00  0.00     0.063 HD
BRANCH  23  25
HETATM   25  C3  UNL     1      26.453  -0.806  52.480  1.00  0.00     0.114 C 
BRANCH  25  26
HETATM   26  C2  UNL     1      27.715  -1.316  53.076  1.00  0.00     0.127 C 
HETATM   27  C1  UNL     1      28.609  -0.260  53.640  1.00  0.00     0.091 C 
HETATM   28  O1  UNL     1      27.820  -2.548  53.007  1.00  0.00    -0.298 OA
ENDBRANCH  25  26
ENDBRANCH  23  25
ENDBRANCH   1  23
TORSDOF 5
ENDMDL
MODEL 8
REMARK VINA RESULT:      -7.2      4.493      7.066
REMARK  5 active torsions:
REMARK  status: ('A' for Active; 'I' for Inactive)
REMARK    1  A    between atoms: C2_2  and  C3_4 
REMARK    2  A    between atoms: C3_4  and  P1_5 
REMARK    3  A    between atoms: P1_5  and  C4_6 
REMARK    4  A    between atoms: C7_9  and  N1_10 
REMARK    5  A    between atoms: N1_10  and  C8_11 
ROOT
HETATM    1  C4  UNL     1      25.197   5.486  49.909  1.00  0.00    -0.027 A 
HETATM    2  C5  UNL     1      25.398   4.183  50.373  1.00  0.00     0.028 A 
HETATM    3  C6  UNL     1      24.428   3.617  51.181  1.00  0.00     0.022 A 
HETATM    4  C7  UNL     1      24.689   2.315  51.612  1.00  0.00     0.067 A 
HETATM    5  C14 UNL     1      23.719   1.724  52.430  1.00  0.00     0.089 A 
HETATM    6  C15 UNL     1      23.894   0.378  52.929  1.00  0.00     0.103 C 
HETATM    7  N2  UNL     1      24.051  -0.696  53.333  1.00  0.00    -0.191 NA
HETATM    8  C16 UNL     1      22.580   2.437  52.767  1.00  0.00     0.142 A 
HETATM    9  N3  UNL     1      22.354   3.706  52.333  1.00  0.00    -0.259 NA
HETATM   10  C17 UNL     1      23.268   4.285  51.552  1.00  0.00     0.069 A 
HETATM   11  C18 UNL     1      23.102   5.576  51.072  1.00  0.00     0.040 A 
HETATM   12  C19 UNL     1      24.059   6.185  50.252  1.00  0.00    -0.049 A 
HETATM   13  C20 UNL     1      23.808   7.562  49.783  1.00  0.00     0.049 C 
ENDROOT
BRANCH   4  14
HETATM   14  N1  UNL     1      25.828   1.562  51.292  1.00  0.00    -0.354 N 
HETATM   15  H8  UNL     1      25.811   1.128  50.342  1.00  0.00     0.166 HD
BRANCH  14  16
HETATM   16  C8  UNL     1      26.934   1.387  52.170  1.00  0.00     0.033 A 
HETATM   17  C9  UNL     1      27.435   2.491  52.831  1.00  0.00     0.029 A 
HETATM   18  C10 UNL     1      28.511   2.351  53.692  1.00  0.00     0.004 A 
HETATM   19  C11 UNL     1      29.044   1.075  53.851  1.00  0.00     0.019 A 
HETATM   20  C12 UNL     1      28.540  -0.022  53.188  1.00  0.00     0.013 A 
HETATM   21 BR1  UNL     1      29.271  -1.770  53.408  1.00  0.00    -0.051 Br
HETATM   22  C13 UNL     1      27.461   0.120  52.325  1.00  0.00     0.048 A 
ENDBRANCH  14  16
ENDBRANCH   4  14
BRANCH   1  23
HETATM   23  P1  UNL     1      26.424   6.314  48.837  1.00  0.00    -0.087 P 
HETATM   24  H6  UNL     1      26.903   7.552  49.422  1.00  0.00     0.063 HD
BRANCH  23  25
HETATM   25  C3  UNL     1      27.888   5.227  48.559  1.00  0.00     0.114 C 
BRANCH  25  26
HETATM   26  C2  UNL     1      29.007   5.975  47.928  1.00  0.00     0.127 C 
HETATM   27  C1  UNL     1      30.343   5.315  48.050  1.00  0.00     0.091 C 
HETATM   28  O1  UNL     1      28.645   7.034  47.400  1.00  0.00    -0.298 OA
ENDBRANCH  25  26
ENDBRANCH  23  25
ENDBRANCH   1  23
TORSDOF 5
ENDMDL
MODEL 9
REMARK VINA RESULT:      -7.1      2.888      5.502
REMARK  5 active torsions:
REMARK  status: ('A' for Active; 'I' for Inactive)
REMARK    1  A    between atoms: C2_2  and  C3_4 
REMARK    2  A    between atoms: C3_4  and  P1_5 
REMARK    3  A    between atoms: P1_5  and  C4_6 
REMARK    4  A    between atoms: C7_9  and  N1_10 
REMARK    5  A    between atoms: N1_10  and  C8_11 
ROOT
HETATM    1  C4  UNL     1      24.887   4.320  50.103  1.00  0.00    -0.027 A 
HETATM    2  C5  UNL     1      24.107   3.534  50.956  1.00  0.00     0.028 A 
HETATM    3  C6  UNL     1      24.674   2.398  51.503  1.00  0.00     0.022 A 
HETATM    4  C7  UNL     1      23.843   1.657  52.347  1.00  0.00     0.067 A 
HETATM    5  C14 UNL     1      24.398   0.504  52.911  1.00  0.00     0.089 A 
HETATM    6  C15 UNL     1      23.621  -0.333  53.799  1.00  0.00     0.103 C 
HETATM    7  N2  UNL     1      22.984  -1.002  54.497  1.00  0.00    -0.191 NA
HETATM    8  C16 UNL     1      25.708   0.158  52.617  1.00  0.00     0.142 A 
HETATM    9  N3  UNL     1      26.493   0.899  51.790  1.00  0.00    -0.259 NA
HETATM   10  C17 UNL     1      25.980   2.003  51.243  1.00  0.00     0.069 A 
HETATM   11  C18 UNL     1      26.725   2.806  50.392  1.00  0.00     0.040 A 
HETATM   12  C19 UNL     1      26.189   3.964  49.817  1.00  0.00    -0.049 A 
HETATM   13  C20 UNL     1      27.046   4.766  48.922  1.00  0.00     0.049 C 
ENDROOT
BRANCH   4  14
HETATM   14  N1  UNL     1      22.515   1.975  52.669  1.00  0.00    -0.354 N 
HETATM   15  H8  UNL     1      22.378   2.343  53.636  1.00  0.00     0.166 HD
BRANCH  14  16
HETATM   16  C8  UNL     1      21.423   1.819  51.769  1.00  0.00     0.033 A 
HETATM   17  C9  UNL     1      21.566   0.960  50.699  1.00  0.00     0.029 A 
HETATM   18  C10 UNL     1      20.519   0.789  49.807  1.00  0.00     0.004 A 
HETATM   19  C11 UNL     1      19.352   1.508  50.042  1.00  0.00     0.019 A 
HETATM   20  C12 UNL     1      19.216   2.365  51.112  1.00  0.00     0.013 A 
HETATM   21 BR1  UNL     1      17.615   3.350  51.433  1.00  0.00    -0.051 Br
HETATM   22  C13 UNL     1      20.266   2.535  52.006  1.00  0.00     0.048 A 
ENDBRANCH  14  16
ENDBRANCH   4  14
BRANCH   1  23
HETATM   23  P1  UNL     1      24.222   5.838  49.333  1.00  0.00    -0.087 P 
HETATM   24  H6  UNL     1      25.279   6.697  48.832  1.00  0.00     0.063 HD
BRANCH  23  25
HETATM   25  C3  UNL     1      23.121   5.423  47.913  1.00  0.00     0.114 C 
BRANCH  25  26
HETATM   26  C2  UNL     1      22.103   4.409  48.293  1.00  0.00     0.127 C 
HETATM   27  C1  UNL     1      21.020   4.920  49.187  1.00  0.00     0.091 C 
HETATM   28  O1  UNL     1      22.322   3.294  47.802  1.00  0.00    -0.298 OA
ENDBRANCH  25  26
ENDBRANCH  23  25
ENDBRANCH   1  23
TORSDOF 5
ENDMDL
