MODEL 1
REMARK VINA RESULT:      -8.1      0.000      0.000
REMARK  9 active torsions:
REMARK  status: ('A' for Active; 'I' for Inactive)
REMARK    1  A    between atoms: N1_1  and  C1_2 
REMARK    2  A    between atoms: C1_2  and  C2_3 
REMARK    3  A    between atoms: C2_3  and  C3_4 
REMARK    4  A    between atoms: C3_4  and  C4_5 
REMARK    5  A    between atoms: C4_5  and  O1_6 
REMARK    6  A    between atoms: O1_6  and  C5_7 
REMARK    7  A    between atoms: C8_10  and  C9_11 
REMARK    8  A    between atoms: C9_11  and  N2_12 
REMARK    9  A    between atoms: N2_12  and  C10_13 
ROOT
HETATM    1  C5  UNL     1      25.972   1.067  53.836  1.00  0.00     0.164 A 
HETATM    2  C6  UNL     1      25.208   2.145  53.408  1.00  0.00     0.072 A 
HETATM    3  C7  UNL     1      23.918   1.992  52.951  1.00  0.00     0.007 A 
HETATM    4  C8  UNL     1      23.190   3.083  52.534  1.00  0.00    -0.009 A 
HETATM    5  C16 UNL     1      21.893   2.810  52.087  1.00  0.00     0.037 A 
HETATM    6 BR1  UNL     1      20.759   4.220  51.424  1.00  0.00    -0.049 Br
HETATM    7  C17 UNL     1      21.340   1.552  52.052  1.00  0.00     0.137 A 
HETATM    8  N3  UNL     1      22.111   0.534  52.476  1.00  0.00    -0.257 NA
HETATM    9  C18 UNL     1      23.366   0.711  52.918  1.00  0.00     0.085 A 
HETATM   10  C19 UNL     1      24.175  -0.317  53.356  1.00  0.00     0.151 A 
HETATM   11  N4  UNL     1      25.434  -0.161  53.801  1.00  0.00    -0.235 NA
ENDROOT
BRANCH   4  12
HETATM   12  C9  UNL     1      23.748   4.470  52.527  1.00  0.00     0.160 C 
BRANCH  12  13
HETATM   13  N2  UNL     1      24.174   4.941  51.253  1.00  0.00    -0.386 N 
HETATM   14  H14 UNL     1      23.405   5.523  50.785  1.00  0.00     0.160 HD
BRANCH  13  15
HETATM   15  C10 UNL     1      25.274   4.923  50.363  1.00  0.00     0.028 A 
HETATM   16  C11 UNL     1      26.044   3.801  50.028  1.00  0.00     0.029 A 
HETATM   17  C12 UNL     1      27.088   3.948  49.153  1.00  0.00     0.002 A 
HETATM   18  C13 UNL     1      27.416   5.156  48.584  1.00  0.00     0.000 A 
HETATM   19  C14 UNL     1      26.672   6.269  48.900  1.00  0.00     0.002 A 
HETATM   20  C15 UNL     1      25.622   6.123  49.781  1.00  0.00     0.029 A 
ENDBRANCH  13  15
ENDBRANCH  12  13
ENDBRANCH   4  12
BRANCH   1  21
HETATM   21  O1  UNL     1      27.239   1.362  54.265  1.00  0.00    -0.334 OA
BRANCH  21  22
HETATM   22  C4  UNL     1      28.172   0.422  54.761  1.00  0.00     0.177 C 
BRANCH  22  23
HETATM   23  C3  UNL     1      29.381   0.414  53.874  1.00  0.00     0.028 C 
BRANCH  23  24
HETATM   24  C2  UNL     1      29.824  -1.012  53.522  1.00  0.00     0.032 C 
BRANCH  24  25
HETATM   25  C1  UNL     1      28.567  -1.746  53.111  1.00  0.00     0.267 C 
BRANCH  25  26
HETATM   26  N1  UNL     1      28.713  -3.184  53.220  1.00  0.00     0.078 N 
HETATM   27  H1  UNL     1      27.842  -3.603  52.827  1.00  0.00     0.312 HD
HETATM   28  H2  UNL     1      29.576  -3.532  52.791  1.00  0.00     0.312 HD
ENDBRANCH  25  26
ENDBRANCH  24  25
ENDBRANCH  23  24
ENDBRANCH  22  23
ENDBRANCH  21  22
ENDBRANCH   1  21
TORSDOF 9
ENDMDL
MODEL 2
REMARK VINA RESULT:      -7.7      2.090      3.004
REMARK  9 active torsions:
REMARK  status: ('A' for Active; 'I' for Inactive)
REMARK    1  A    between atoms: N1_1  and  C1_2 
REMARK    2  A    between atoms: C1_2  and  C2_3 
REMARK    3  A    between atoms: C2_3  and  C3_4 
REMARK    4  A    between atoms: C3_4  and  C4_5 
REMARK    5  A    between atoms: C4_5  and  O1_6 
REMARK    6  A    between atoms: O1_6  and  C5_7 
REMARK    7  A    between atoms: C8_10  and  C9_11 
REMARK    8  A    between atoms: C9_11  and  N2_12 
REMARK    9  A    between atoms: N2_12  and  C10_13 
ROOT
HETATM    1  C5  UNL     1      25.436  -0.463  53.879  1.00  0.00     0.164 A 
HETATM    2  C6  UNL     1      24.387  -0.073  53.057  1.00  0.00     0.072 A 
HETATM    3  C7  UNL     1      23.070  -0.308  53.386  1.00  0.00     0.007 A 
HETATM    4  C8  UNL     1      22.057   0.092  52.547  1.00  0.00    -0.009 A 
HETATM    5  C16 UNL     1      20.760  -0.201  52.982  1.00  0.00     0.037 A 
HETATM    6 BR1  UNL     1      19.230   0.248  51.899  1.00  0.00    -0.049 Br
HETATM    7  C17 UNL     1      20.470  -0.842  54.163  1.00  0.00     0.137 A 
HETATM    8  N3  UNL     1      21.513  -1.203  54.932  1.00  0.00    -0.257 NA
HETATM    9  C18 UNL     1      22.787  -0.961  54.587  1.00  0.00     0.085 A 
HETATM   10  C19 UNL     1      23.872  -1.322  55.360  1.00  0.00     0.151 A 
HETATM   11  N4  UNL     1      25.155  -1.089  55.031  1.00  0.00    -0.235 NA
ENDROOT
BRANCH   4  12
HETATM   12  C9  UNL     1      22.313   0.771  51.239  1.00  0.00     0.160 C 
BRANCH  12  13
HETATM   13  N2  UNL     1      22.994   2.017  51.330  1.00  0.00    -0.386 N 
HETATM   14  H14 UNL     1      22.618   2.598  52.150  1.00  0.00     0.160 HD
BRANCH  13  15
HETATM   15  C10 UNL     1      24.014   2.783  50.718  1.00  0.00     0.028 A 
HETATM   16  C11 UNL     1      23.825   3.799  49.771  1.00  0.00     0.029 A 
HETATM   17  C12 UNL     1      24.921   4.445  49.262  1.00  0.00     0.002 A 
HETATM   18  C13 UNL     1      26.206   4.141  49.642  1.00  0.00     0.000 A 
HETATM   19  C14 UNL     1      26.412   3.147  50.572  1.00  0.00     0.002 A 
HETATM   20  C15 UNL     1      25.311   2.495  51.084  1.00  0.00     0.029 A 
ENDBRANCH  13  15
ENDBRANCH  12  13
ENDBRANCH   4  12
BRANCH   1  21
HETATM   21  O1  UNL     1      26.694  -0.166  53.428  1.00  0.00    -0.334 OA
BRANCH  21  22
HETATM   22  C4  UNL     1      27.702  -1.115  53.139  1.00  0.00     0.177 C 
BRANCH  22  23
HETATM   23  C3  UNL     1      29.029  -0.577  53.587  1.00  0.00     0.028 C 
BRANCH  23  24
HETATM   24  C2  UNL     1      28.876   0.473  54.695  1.00  0.00     0.032 C 
BRANCH  24  25
HETATM   25  C1  UNL     1      29.134   1.810  54.035  1.00  0.00     0.267 C 
BRANCH  25  26
HETATM   26  N1  UNL     1      27.931   2.613  53.940  1.00  0.00     0.078 N 
HETATM   27  H1  UNL     1      27.232   2.042  53.416  1.00  0.00     0.312 HD
HETATM   28  H2  UNL     1      27.601   2.949  54.850  1.00  0.00     0.312 HD
ENDBRANCH  25  26
ENDBRANCH  24  25
ENDBRANCH  23  24
ENDBRANCH  22  23
ENDBRANCH  21  22
ENDBRANCH   1  21
TORSDOF 9
ENDMDL
MODEL 3
REMARK VINA RESULT:      -7.6      1.467      1.820
REMARK  9 active torsions:
REMARK  status: ('A' for Active; 'I' for Inactive)
REMARK    1  A    between atoms: N1_1  and  C1_2 
REMARK    2  A    between atoms: C1_2  and  C2_3 
REMARK    3  A    between atoms: C2_3  and  C3_4 
REMARK    4  A    between atoms: C3_4  and  C4_5 
REMARK    5  A    between atoms: C4_5  and  O1_6 
REMARK    6  A    between atoms: O1_6  and  C5_7 
REMARK    7  A    between atoms: C8_10  and  C9_11 
REMARK    8  A    between atoms: C9_11  and  N2_12 
REMARK    9  A    between atoms: N2_12  and  C10_13 
ROOT
HETATM    1  C5  UNL     1      24.889   0.015  53.598  1.00  0.00     0.164 A 
HETATM    2  C6  UNL     1      24.586   1.275  53.100  1.00  0.00     0.072 A 
HETATM    3  C7  UNL     1      23.299   1.647  52.777  1.00  0.00     0.007 A 
HETATM    4  C8  UNL     1      23.037   2.904  52.286  1.00  0.00    -0.009 A 
HETATM    5  C16 UNL     1      21.695   3.171  51.991  1.00  0.00     0.037 A 
HETATM    6 BR1  UNL     1      21.165   4.869  51.249  1.00  0.00    -0.049 Br
HETATM    7  C17 UNL     1      20.675   2.267  52.166  1.00  0.00     0.137 A 
HETATM    8  N3  UNL     1      21.007   1.057  52.651  1.00  0.00    -0.257 NA
HETATM    9  C18 UNL     1      22.270   0.721  52.958  1.00  0.00     0.085 A 
HETATM   10  C19 UNL     1      22.635  -0.513  53.456  1.00  0.00     0.151 A 
HETATM   11  N4  UNL     1      23.894  -0.869  53.768  1.00  0.00    -0.235 NA
ENDROOT
BRANCH   4  12
HETATM   12  C9  UNL     1      24.109   3.919  52.052  1.00  0.00     0.160 C 
BRANCH  12  13
HETATM   13  N2  UNL     1      24.625   3.956  50.726  1.00  0.00    -0.386 N 
HETATM   14  H14 UNL     1      24.079   3.291  50.086  1.00  0.00     0.160 HD
BRANCH  13  15
HETATM   15  C10 UNL     1      25.619   4.570  49.927  1.00  0.00     0.028 A 
HETATM   16  C11 UNL     1      26.770   3.950  49.423  1.00  0.00     0.029 A 
HETATM   17  C12 UNL     1      27.646   4.685  48.669  1.00  0.00     0.002 A 
HETATM   18  C13 UNL     1      27.444   6.014  48.382  1.00  0.00     0.000 A 
HETATM   19  C14 UNL     1      26.319   6.641  48.866  1.00  0.00     0.002 A 
HETATM   20  C15 UNL     1      25.437   5.903  49.626  1.00  0.00     0.029 A 
ENDBRANCH  13  15
ENDBRANCH  12  13
ENDBRANCH   4  12
BRANCH   1  21
HETATM   21  O1  UNL     1      26.209  -0.220  53.875  1.00  0.00    -0.334 OA
BRANCH  21  22
HETATM   22  C4  UNL     1      27.094  -0.965  53.061  1.00  0.00     0.177 C 
BRANCH  22  23
HETATM   23  C3  UNL     1      28.496  -0.485  53.293  1.00  0.00     0.028 C 
BRANCH  23  24
HETATM   24  C2  UNL     1      28.630   0.277  54.617  1.00  0.00     0.032 C 
BRANCH  24  25
HETATM   25  C1  UNL     1      29.056   1.680  54.246  1.00  0.00     0.267 C 
BRANCH  25  26
HETATM   26  N1  UNL     1      27.923   2.537  53.958  1.00  0.00     0.078 N 
HETATM   27  H1  UNL     1      27.119   2.163  54.509  1.00  0.00     0.312 HD
HETATM   28  H2  UNL     1      28.120   3.529  54.124  1.00  0.00     0.312 HD
ENDBRANCH  25  26
ENDBRANCH  24  25
ENDBRANCH  23  24
ENDBRANCH  22  23
ENDBRANCH  21  22
ENDBRANCH   1  21
TORSDOF 9
ENDMDL
MODEL 4
REMARK VINA RESULT:      -7.6      2.368      6.253
REMARK  9 active torsions:
REMARK  status: ('A' for Active; 'I' for Inactive)
REMARK    1  A    between atoms: N1_1  and  C1_2 
REMARK    2  A    between atoms: C1_2  and  C2_3 
REMARK    3  A    between atoms: C2_3  and  C3_4 
REMARK    4  A    between atoms: C3_4  and  C4_5 
REMARK    5  A    between atoms: C4_5  and  O1_6 
REMARK    6  A    between atoms: O1_6  and  C5_7 
REMARK    7  A    between atoms: C8_10  and  C9_11 
REMARK    8  A    between atoms: C9_11  and  N2_12 
REMARK    9  A    between atoms: N2_12  and  C10_13 
ROOT
HETATM    1  C5  UNL     1      24.495   3.526  49.699  1.00  0.00     0.164 A 
HETATM    2  C6  UNL     1      24.552   2.758  50.855  1.00  0.00     0.072 A 
HETATM    3  C7  UNL     1      23.576   1.838  51.173  1.00  0.00     0.007 A 
HETATM    4  C8  UNL     1      23.665   1.095  52.327  1.00  0.00    -0.009 A 
HETATM    5  C16 UNL     1      22.617   0.195  52.549  1.00  0.00     0.037 A 
HETATM    6 BR1  UNL     1      22.565  -0.887  54.143  1.00  0.00    -0.049 Br
HETATM    7  C17 UNL     1      21.552   0.028  51.696  1.00  0.00     0.137 A 
HETATM    8  N3  UNL     1      21.534   0.789  50.587  1.00  0.00    -0.257 NA
HETATM    9  C18 UNL     1      22.498   1.678  50.301  1.00  0.00     0.085 A 
HETATM   10  C19 UNL     1      22.500   2.469  49.171  1.00  0.00     0.151 A 
HETATM   11  N4  UNL     1      23.456   3.365  48.867  1.00  0.00    -0.235 NA
ENDROOT
BRANCH   4  12
HETATM   12  C9  UNL     1      24.787   1.252  53.303  1.00  0.00     0.160 C 
BRANCH  12  13
HETATM   13  N2  UNL     1      25.819   0.278  53.195  1.00  0.00    -0.386 N 
HETATM   14  H14 UNL     1      25.419  -0.669  52.890  1.00  0.00     0.160 HD
BRANCH  13  15
HETATM   15  C10 UNL     1      27.215   0.105  53.346  1.00  0.00     0.028 A 
HETATM   16  C11 UNL     1      28.138   1.105  53.678  1.00  0.00     0.029 A 
HETATM   17  C12 UNL     1      29.465   0.780  53.778  1.00  0.00     0.002 A 
HETATM   18  C13 UNL     1      29.936  -0.495  53.566  1.00  0.00     0.000 A 
HETATM   19  C14 UNL     1      29.045  -1.491  53.240  1.00  0.00     0.002 A 
HETATM   20  C15 UNL     1      27.710  -1.165  53.138  1.00  0.00     0.029 A 
ENDBRANCH  13  15
ENDBRANCH  12  13
ENDBRANCH   4  12
BRANCH   1  21
HETATM   21  O1  UNL     1      25.530   4.401  49.509  1.00  0.00    -0.334 OA
BRANCH  21  22
HETATM   22  C4  UNL     1      26.842   4.041  49.123  1.00  0.00     0.177 C 
BRANCH  22  23
HETATM   23  C3  UNL     1      27.580   5.270  48.679  1.00  0.00     0.028 C 
BRANCH  23  24
HETATM   24  C2  UNL     1      26.624   6.417  48.330  1.00  0.00     0.032 C 
BRANCH  24  25
HETATM   25  C1  UNL     1      26.914   7.515  49.329  1.00  0.00     0.267 C 
BRANCH  25  26
HETATM   26  N1  UNL     1      26.187   7.332  50.570  1.00  0.00     0.078 N 
HETATM   27  H1  UNL     1      25.577   8.172  50.684  1.00  0.00     0.312 HD
HETATM   28  H2  UNL     1      25.684   6.440  50.611  1.00  0.00     0.312 HD
ENDBRANCH  25  26
ENDBRANCH  24  25
ENDBRANCH  23  24
ENDBRANCH  22  23
ENDBRANCH  21  22
ENDBRANCH   1  21
TORSDOF 9
ENDMDL
MODEL 5
REMARK VINA RESULT:      -7.6      2.276      3.056
REMARK  9 active torsions:
REMARK  status: ('A' for Active; 'I' for Inactive)
REMARK    1  A    between atoms: N1_1  and  C1_2 
REMARK    2  A    between atoms: C1_2  and  C2_3 
REMARK    3  A    between atoms: C2_3  and  C3_4 
REMARK    4  A    between atoms: C3_4  and  C4_5 
REMARK    5  A    between atoms: C4_5  and  O1_6 
REMARK    6  A    between atoms: O1_6  and  C5_7 
REMARK    7  A    between atoms: C8_10  and  C9_11 
REMARK    8  A    between atoms: C9_11  and  N2_12 
REMARK    9  A    between atoms: N2_12  and  C10_13 
ROOT
HETATM    1  C5  UNL     1      25.363  -0.717  54.375  1.00  0.00     0.164 A 
HETATM    2  C6  UNL     1      24.481  -0.115  53.486  1.00  0.00     0.072 A 
HETATM    3  C7  UNL     1      23.115  -0.213  53.630  1.00  0.00     0.007 A 
HETATM    4  C8  UNL     1      22.271   0.396  52.730  1.00  0.00    -0.009 A 
HETATM    5  C16 UNL     1      20.904   0.228  52.972  1.00  0.00     0.037 A 
HETATM    6 BR1  UNL     1      19.589   0.976  51.778  1.00  0.00    -0.049 Br
HETATM    7  C17 UNL     1      20.392  -0.488  54.028  1.00  0.00     0.137 A 
HETATM    8  N3  UNL     1      21.277  -1.055  54.868  1.00  0.00    -0.257 NA
HETATM    9  C18 UNL     1      22.605  -0.943  54.705  1.00  0.00     0.085 A 
HETATM   10  C19 UNL     1      23.531  -1.516  55.551  1.00  0.00     0.151 A 
HETATM   11  N4  UNL     1      24.865  -1.416  55.405  1.00  0.00    -0.235 NA
ENDROOT
BRANCH   4  12
HETATM   12  C9  UNL     1      22.771   1.166  51.549  1.00  0.00     0.160 C 
BRANCH  12  13
HETATM   13  N2  UNL     1      23.115   2.521  51.816  1.00  0.00    -0.386 N 
HETATM   14  H14 UNL     1      23.938   2.578  52.502  1.00  0.00     0.160 HD
BRANCH  13  15
HETATM   15  C10 UNL     1      22.759   3.852  51.491  1.00  0.00     0.028 A 
HETATM   16  C11 UNL     1      21.466   4.312  51.205  1.00  0.00     0.029 A 
HETATM   17  C12 UNL     1      21.283   5.634  50.899  1.00  0.00     0.002 A 
HETATM   18  C13 UNL     1      22.319   6.538  50.859  1.00  0.00     0.000 A 
HETATM   19  C14 UNL     1      23.595   6.106  51.138  1.00  0.00     0.002 A 
HETATM   20  C15 UNL     1      23.781   4.775  51.446  1.00  0.00     0.029 A 
ENDBRANCH  13  15
ENDBRANCH  12  13
ENDBRANCH   4  12
BRANCH   1  21
HETATM   21  O1  UNL     1      26.694  -0.539  54.112  1.00  0.00    -0.334 OA
BRANCH  21  22
HETATM   22  C4  UNL     1      27.585   0.228  54.898  1.00  0.00     0.177 C 
BRANCH  22  23
HETATM   23  C3  UNL     1      28.993  -0.208  54.614  1.00  0.00     0.028 C 
BRANCH  23  24
HETATM   24  C2  UNL     1      29.144  -0.766  53.193  1.00  0.00     0.032 C 
BRANCH  24  25
HETATM   25  C1  UNL     1      29.538  -2.217  53.358  1.00  0.00     0.267 C 
BRANCH  25  26
HETATM   26  N1  UNL     1      28.411  -3.112  53.181  1.00  0.00     0.078 N 
HETATM   27  H1  UNL     1      27.942  -2.828  52.293  1.00  0.00     0.312 HD
HETATM   28  H2  UNL     1      28.677  -4.101  53.217  1.00  0.00     0.312 HD
ENDBRANCH  25  26
ENDBRANCH  24  25
ENDBRANCH  23  24
ENDBRANCH  22  23
ENDBRANCH  21  22
ENDBRANCH   1  21
TORSDOF 9
ENDMDL
MODEL 6
REMARK VINA RESULT:      -7.5      2.275      5.350
REMARK  9 active torsions:
REMARK  status: ('A' for Active; 'I' for Inactive)
REMARK    1  A    between atoms: N1_1  and  C1_2 
REMARK    2  A    between atoms: C1_2  and  C2_3 
REMARK    3  A    between atoms: C2_3  and  C3_4 
REMARK    4  A    between atoms: C3_4  and  C4_5 
REMARK    5  A    between atoms: C4_5  and  O1_6 
REMARK    6  A    between atoms: O1_6  and  C5_7 
REMARK    7  A    between atoms: C8_10  and  C9_11 
REMARK    8  A    between atoms: C9_11  and  N2_12 
REMARK    9  A    between atoms: N2_12  and  C10_13 
ROOT
HETATM    1  C5  UNL     1      26.856   1.841  52.156  1.00  0.00     0.164 A 
HETATM    2  C6  UNL     1      25.526   1.448  52.229  1.00  0.00     0.072 A 
HETATM    3  C7  UNL     1      25.072   0.575  53.192  1.00  0.00     0.007 A 
HETATM    4  C8  UNL     1      23.747   0.206  53.234  1.00  0.00    -0.009 A 
HETATM    5  C16 UNL     1      23.399  -0.687  54.252  1.00  0.00     0.037 A 
HETATM    6 BR1  UNL     1      21.593  -1.340  54.419  1.00  0.00    -0.049 Br
HETATM    7  C17 UNL     1      24.287  -1.188  55.173  1.00  0.00     0.137 A 
HETATM    8  N3  UNL     1      25.566  -0.783  55.070  1.00  0.00    -0.257 NA
HETATM    9  C18 UNL     1      25.982   0.071  54.122  1.00  0.00     0.085 A 
HETATM   10  C19 UNL     1      27.288   0.499  53.997  1.00  0.00     0.151 A 
HETATM   11  N4  UNL     1      27.724   1.353  53.053  1.00  0.00    -0.235 NA
ENDROOT
BRANCH   4  12
HETATM   12  C9  UNL     1      22.741   0.700  52.243  1.00  0.00     0.160 C 
BRANCH  12  13
HETATM   13  N2  UNL     1      22.171   1.969  52.544  1.00  0.00    -0.386 N 
HETATM   14  H14 UNL     1      21.587   1.921  53.442  1.00  0.00     0.160 HD
BRANCH  13  15
HETATM   15  C10 UNL     1      22.098   3.303  52.077  1.00  0.00     0.028 A 
HETATM   16  C11 UNL     1      20.983   3.907  51.481  1.00  0.00     0.029 A 
HETATM   17  C12 UNL     1      21.073   5.211  51.071  1.00  0.00     0.002 A 
HETATM   18  C13 UNL     1      22.216   5.960  51.221  1.00  0.00     0.000 A 
HETATM   19  C14 UNL     1      23.322   5.385  51.805  1.00  0.00     0.002 A 
HETATM   20  C15 UNL     1      23.233   4.073  52.216  1.00  0.00     0.029 A 
ENDBRANCH  13  15
ENDBRANCH  12  13
ENDBRANCH   4  12
BRANCH   1  21
HETATM   21  O1  UNL     1      27.169   2.714  51.148  1.00  0.00    -0.334 OA
BRANCH  21  22
HETATM   22  C4  UNL     1      26.359   2.984  50.021  1.00  0.00     0.177 C 
BRANCH  22  23
HETATM   23  C3  UNL     1      26.931   4.152  49.273  1.00  0.00     0.028 C 
BRANCH  23  24
HETATM   24  C2  UNL     1      25.995   5.367  49.305  1.00  0.00     0.032 C 
BRANCH  24  25
HETATM   25  C1  UNL     1      26.710   6.460  48.541  1.00  0.00     0.267 C 
BRANCH  25  26
HETATM   26  N1  UNL     1      27.396   7.384  49.422  1.00  0.00     0.078 N 
HETATM   27  H1  UNL     1      27.050   8.338  49.181  1.00  0.00     0.312 HD
HETATM   28  H2  UNL     1      27.298   7.139  50.413  1.00  0.00     0.312 HD
ENDBRANCH  25  26
ENDBRANCH  24  25
ENDBRANCH  23  24
ENDBRANCH  22  23
ENDBRANCH  21  22
ENDBRANCH   1  21
TORSDOF 9
ENDMDL
MODEL 7
REMARK VINA RESULT:      -7.4      2.864      5.852
REMARK  9 active torsions:
REMARK  status: ('A' for Active; 'I' for Inactive)
REMARK    1  A    between atoms: N1_1  and  C1_2 
REMARK    2  A    between atoms: C1_2  and  C2_3 
REMARK    3  A    between atoms: C2_3  and  C3_4 
REMARK    4  A    between atoms: C3_4  and  C4_5 
REMARK    5  A    between atoms: C4_5  and  O1_6 
REMARK    6  A    between atoms: O1_6  and  C5_7 
REMARK    7  A    between atoms: C8_10  and  C9_11 
REMARK    8  A    between atoms: C9_11  and  N2_12 
REMARK    9  A    between atoms: N2_12  and  C10_13 
ROOT
HETATM    1  C5  UNL     1      22.402   3.191  52.069  1.00  0.00     0.164 A 
HETATM    2  C6  UNL     1      23.610   3.350  51.404  1.00  0.00     0.072 A 
HETATM    3  C7  UNL     1      23.972   4.542  50.816  1.00  0.00     0.007 A 
HETATM    4  C8  UNL     1      25.177   4.663  50.165  1.00  0.00    -0.009 A 
HETATM    5  C16 UNL     1      25.438   5.918  49.604  1.00  0.00     0.037 A 
HETATM    6 BR1  UNL     1      27.061   6.240  48.615  1.00  0.00    -0.049 Br
HETATM    7  C17 UNL     1      24.578   6.988  49.676  1.00  0.00     0.137 A 
HETATM    8  N3  UNL     1      23.418   6.794  50.330  1.00  0.00    -0.257 NA
HETATM    9  C18 UNL     1      23.091   5.621  50.895  1.00  0.00     0.085 A 
HETATM   10  C19 UNL     1      21.907   5.400  51.569  1.00  0.00     0.151 A 
HETATM   11  N4  UNL     1      21.561   4.233  52.140  1.00  0.00    -0.235 NA
ENDROOT
BRANCH   4  12
HETATM   12  C9  UNL     1      26.141   3.528  50.033  1.00  0.00     0.160 C 
BRANCH  12  13
HETATM   13  N2  UNL     1      26.843   3.192  51.225  1.00  0.00    -0.386 N 
HETATM   14  H14 UNL     1      27.313   4.058  51.647  1.00  0.00     0.160 HD
BRANCH  13  15
HETATM   15  C10 UNL     1      27.148   2.103  52.076  1.00  0.00     0.028 A 
HETATM   16  C11 UNL     1      27.998   2.141  53.189  1.00  0.00     0.029 A 
HETATM   17  C12 UNL     1      28.201   0.995  53.911  1.00  0.00     0.002 A 
HETATM   18  C13 UNL     1      27.604  -0.201  53.589  1.00  0.00     0.000 A 
HETATM   19  C14 UNL     1      26.765  -0.259  52.500  1.00  0.00     0.002 A 
HETATM   20  C15 UNL     1      26.561   0.894  51.772  1.00  0.00     0.029 A 
ENDBRANCH  13  15
ENDBRANCH  12  13
ENDBRANCH   4  12
BRANCH   1  21
HETATM   21  O1  UNL     1      22.171   1.952  52.606  1.00  0.00    -0.334 OA
BRANCH  21  22
HETATM   22  C4  UNL     1      22.563   0.725  52.024  1.00  0.00     0.177 C 
BRANCH  22  23
HETATM   23  C3  UNL     1      23.131  -0.166  53.089  1.00  0.00     0.028 C 
BRANCH  23  24
HETATM   24  C2  UNL     1      22.119  -1.220  53.556  1.00  0.00     0.032 C 
BRANCH  24  25
HETATM   25  C1  UNL     1      21.664  -0.777  54.929  1.00  0.00     0.267 C 
BRANCH  25  26
HETATM   26  N1  UNL     1      20.634   0.240  54.862  1.00  0.00     0.078 N 
HETATM   27  H1  UNL     1      21.084   1.095  54.466  1.00  0.00     0.312 HD
HETATM   28  H2  UNL     1      19.799  -0.068  54.354  1.00  0.00     0.312 HD
ENDBRANCH  25  26
ENDBRANCH  24  25
ENDBRANCH  23  24
ENDBRANCH  22  23
ENDBRANCH  21  22
ENDBRANCH   1  21
TORSDOF 9
ENDMDL
MODEL 8
REMARK VINA RESULT:      -7.4      2.337      5.751
REMARK  9 active torsions:
REMARK  status: ('A' for Active; 'I' for Inactive)
REMARK    1  A    between atoms: N1_1  and  C1_2 
REMARK    2  A    between atoms: C1_2  and  C2_3 
REMARK    3  A    between atoms: C2_3  and  C3_4 
REMARK    4  A    between atoms: C3_4  and  C4_5 
REMARK    5  A    between atoms: C4_5  and  O1_6 
REMARK    6  A    between atoms: O1_6  and  C5_7 
REMARK    7  A    between atoms: C8_10  and  C9_11 
REMARK    8  A    between atoms: C9_11  and  N2_12 
REMARK    9  A    between atoms: N2_12  and  C10_13 
ROOT
HETATM    1  C5  UNL     1      23.959   4.161  50.952  1.00  0.00     0.164 A 
HETATM    2  C6  UNL     1      23.953   2.909  51.554  1.00  0.00     0.072 A 
HETATM    3  C7  UNL     1      22.828   2.391  52.157  1.00  0.00     0.007 A 
HETATM    4  C8  UNL     1      22.858   1.147  52.744  1.00  0.00    -0.009 A 
HETATM    5  C16 UNL     1      21.659   0.724  53.327  1.00  0.00     0.037 A 
HETATM    6 BR1  UNL     1      21.548  -0.974  54.234  1.00  0.00    -0.049 Br
HETATM    7  C17 UNL     1      20.503   1.466  53.335  1.00  0.00     0.137 A 
HETATM    8  N3  UNL     1      20.548   2.673  52.741  1.00  0.00    -0.257 NA
HETATM    9  C18 UNL     1      21.659   3.153  52.160  1.00  0.00     0.085 A 
HETATM   10  C19 UNL     1      21.729   4.387  51.546  1.00  0.00     0.151 A 
HETATM   11  N4  UNL     1      22.831   4.887  50.960  1.00  0.00    -0.235 NA
ENDROOT
BRANCH   4  12
HETATM   12  C9  UNL     1      24.094   0.306  52.787  1.00  0.00     0.160 C 
BRANCH  12  13
HETATM   13  N2  UNL     1      25.048   0.687  53.772  1.00  0.00    -0.386 N 
HETATM   14  H14 UNL     1      24.566   0.900  54.707  1.00  0.00     0.160 HD
BRANCH  13  15
HETATM   15  C10 UNL     1      26.435   0.886  53.971  1.00  0.00     0.028 A 
HETATM   16  C11 UNL     1      27.288   0.059  54.712  1.00  0.00     0.029 A 
HETATM   17  C12 UNL     1      28.612   0.394  54.819  1.00  0.00     0.002 A 
HETATM   18  C13 UNL     1      29.145   1.514  54.227  1.00  0.00     0.000 A 
HETATM   19  C14 UNL     1      28.323   2.339  53.494  1.00  0.00     0.002 A 
HETATM   20  C15 UNL     1      26.991   2.004  53.386  1.00  0.00     0.029 A 
ENDBRANCH  13  15
ENDBRANCH  12  13
ENDBRANCH   4  12
BRANCH   1  21
HETATM   21  O1  UNL     1      25.145   4.552  50.392  1.00  0.00    -0.334 OA
BRANCH  21  22
HETATM   22  C4  UNL     1      26.222   3.691  50.079  1.00  0.00     0.177 C 
BRANCH  22  23
HETATM   23  C3  UNL     1      27.126   4.371  49.093  1.00  0.00     0.028 C 
BRANCH  23  24
HETATM   24  C2  UNL     1      26.586   5.744  48.674  1.00  0.00     0.032 C 
BRANCH  24  25
HETATM   25  C1  UNL     1      27.803   6.618  48.458  1.00  0.00     0.267 C 
BRANCH  25  26
HETATM   26  N1  UNL     1      29.035   5.930  48.788  1.00  0.00     0.078 N 
HETATM   27  H1  UNL     1      28.765   5.072  49.318  1.00  0.00     0.312 HD
HETATM   28  H2  UNL     1      29.624   5.749  47.969  1.00  0.00     0.312 HD
ENDBRANCH  25  26
ENDBRANCH  24  25
ENDBRANCH  23  24
ENDBRANCH  22  23
ENDBRANCH  21  22
ENDBRANCH   1  21
TORSDOF 9
ENDMDL
MODEL 9
REMARK VINA RESULT:      -7.1      1.858      2.535
REMARK  9 active torsions:
REMARK  status: ('A' for Active; 'I' for Inactive)
REMARK    1  A    between atoms: N1_1  and  C1_2 
REMARK    2  A    between atoms: C1_2  and  C2_3 
REMARK    3  A    between atoms: C2_3  and  C3_4 
REMARK    4  A    between atoms: C3_4  and  C4_5 
REMARK    5  A    between atoms: C4_5  and  O1_6 
REMARK    6  A    between atoms: O1_6  and  C5_7 
REMARK    7  A    between atoms: C8_10  and  C9_11 
REMARK    8  A    between atoms: C9_11  and  N2_12 
REMARK    9  A    between atoms: N2_12  and  C10_13 
ROOT
HETATM    1  C5  UNL     1      23.627  -0.189  53.460  1.00  0.00     0.164 A 
HETATM    2  C6  UNL     1      23.258   0.454  52.286  1.00  0.00     0.072 A 
HETATM    3  C7  UNL     1      21.950   0.791  52.015  1.00  0.00     0.007 A 
HETATM    4  C8  UNL     1      21.620   1.428  50.840  1.00  0.00    -0.009 A 
HETATM    5  C16 UNL     1      20.263   1.719  50.671  1.00  0.00     0.037 A 
HETATM    6 BR1  UNL     1      19.628   2.565  49.059  1.00  0.00    -0.049 Br
HETATM    7  C17 UNL     1      19.288   1.411  51.590  1.00  0.00     0.137 A 
HETATM    8  N3  UNL     1      19.686   0.790  52.715  1.00  0.00    -0.257 NA
HETATM    9  C18 UNL     1      20.968   0.473  52.954  1.00  0.00     0.085 A 
HETATM   10  C19 UNL     1      21.398  -0.164  54.100  1.00  0.00     0.151 A 
HETATM   11  N4  UNL     1      22.677  -0.491  54.358  1.00  0.00    -0.235 NA
ENDROOT
BRANCH   4  12
HETATM   12  C9  UNL     1      22.634   1.764  49.794  1.00  0.00     0.160 C 
BRANCH  12  13
HETATM   13  N2  UNL     1      23.155   3.087  49.863  1.00  0.00    -0.386 N 
HETATM   14  H14 UNL     1      22.446   3.753  50.314  1.00  0.00     0.160 HD
BRANCH  13  15
HETATM   15  C10 UNL     1      24.299   3.858  49.547  1.00  0.00     0.028 A 
HETATM   16  C11 UNL     1      24.298   5.182  49.089  1.00  0.00     0.029 A 
HETATM   17  C12 UNL     1      25.494   5.793  48.817  1.00  0.00     0.002 A 
HETATM   18  C13 UNL     1      26.704   5.159  48.974  1.00  0.00     0.000 A 
HETATM   19  C14 UNL     1      26.725   3.859  49.424  1.00  0.00     0.002 A 
HETATM   20  C15 UNL     1      25.523   3.244  49.698  1.00  0.00     0.029 A 
ENDBRANCH  13  15
ENDBRANCH  12  13
ENDBRANCH   4  12
BRANCH   1  21
HETATM   21  O1  UNL     1      24.961  -0.465  53.599  1.00  0.00    -0.334 OA
BRANCH  21  22
HETATM   22  C4  UNL     1      25.971  -0.094  52.682  1.00  0.00     0.177 C 
BRANCH  22  23
HETATM   23  C3  UNL     1      27.013  -1.172  52.633  1.00  0.00     0.028 C 
BRANCH  23  24
HETATM   24  C2  UNL     1      28.270  -0.790  53.424  1.00  0.00     0.032 C 
BRANCH  24  25
HETATM   25  C1  UNL     1      29.238  -1.939  53.242  1.00  0.00     0.267 C 
BRANCH  25  26
HETATM   26  N1  UNL     1      28.563  -3.221  53.196  1.00  0.00     0.078 N 
HETATM   27  H1  UNL     1      27.568  -3.044  53.458  1.00  0.00     0.312 HD
HETATM   28  H2  UNL     1      28.681  -3.703  52.299  1.00  0.00     0.312 HD
ENDBRANCH  25  26
ENDBRANCH  24  25
ENDBRANCH  23  24
ENDBRANCH  22  23
ENDBRANCH  21  22
ENDBRANCH   1  21
TORSDOF 9
ENDMDL
