MODEL 1
REMARK VINA RESULT:      -7.7      0.000      0.000
REMARK  4 active torsions:
REMARK  status: ('A' for Active; 'I' for Inactive)
REMARK    1  A    between atoms: C2_2  and  C3_3 
REMARK    2  A    between atoms: C3_3  and  N1_4 
REMARK    3  A    between atoms: C3_3  and  N2_5 
REMARK    4  A    between atoms: N2_5  and  C4_6 
ROOT
HETATM    1  C4  UNL     1      25.364   0.276  53.166  1.00  0.00     0.259 C 
HETATM    2  C5  UNL     1      25.236   1.331  52.148  1.00  0.00     0.046 C 
HETATM    3  C6  UNL     1      24.771   2.673  52.665  1.00  0.00     0.001 C 
HETATM    4  C7  UNL     1      23.965   3.728  52.885  1.00  0.00     0.020 C 
HETATM    5  C8  UNL     1      22.585   4.201  52.581  1.00  0.00    -0.021 C 
HETATM    6  C9  UNL     1      21.340   4.052  52.068  1.00  0.00    -0.002 C 
HETATM    7  C10 UNL     1      20.904   2.818  51.444  1.00  0.00     0.024 C 
HETATM    8  C11 UNL     1      21.620   1.711  51.357  1.00  0.00     0.142 C 
HETATM    9  O1  UNL     1      22.541   0.672  51.384  1.00  0.00    -0.322 OA
HETATM   10  C12 UNL     1      22.878   0.073  52.644  1.00  0.00     0.083 A 
HETATM   11  C13 UNL     1      21.634  -0.410  53.088  1.00  0.00     0.038 A 
HETATM   12  C14 UNL     1      21.399  -1.087  54.284  1.00  0.00     0.003 A 
HETATM   13  C15 UNL     1      22.466  -1.318  55.128  1.00  0.00     0.001 A 
HETATM   14  C16 UNL     1      23.693  -0.854  54.713  1.00  0.00     0.012 A 
HETATM   15  C17 UNL     1      23.929  -0.192  53.545  1.00  0.00     0.009 A 
ENDROOT
BRANCH   1  16
HETATM   16  N2  UNL     1      25.938  -0.925  52.660  1.00  0.00     0.118 N 
HETATM   17  H7  UNL     1      25.208  -1.674  52.712  1.00  0.00     0.319 HD
BRANCH  16  18
HETATM   18  C3  UNL     1      27.118  -1.425  53.254  1.00  0.00     0.336 C 
BRANCH  18  19
HETATM   19  C2  UNL     1      28.263  -0.465  53.243  1.00  0.00     0.019 C 
HETATM   20  C1  UNL     1      29.515  -0.794  53.563  1.00  0.00     0.011 C 
ENDBRANCH  18  19
BRANCH  18  21
HETATM   21  N1  UNL     1      27.563  -2.721  52.868  1.00  0.00    -0.400 N 
HETATM   22  H5  UNL     1      27.328  -3.500  53.494  1.00  0.00     0.152 HD
HETATM   23  H6  UNL     1      27.581  -2.910  51.859  1.00  0.00     0.152 HD
ENDBRANCH  18  21
ENDBRANCH  16  18
ENDBRANCH   1  16
TORSDOF 4
ENDMDL
MODEL 2
REMARK VINA RESULT:      -7.6      2.179      4.133
REMARK  4 active torsions:
REMARK  status: ('A' for Active; 'I' for Inactive)
REMARK    1  A    between atoms: C2_2  and  C3_3 
REMARK    2  A    between atoms: C3_3  and  N1_4 
REMARK    3  A    between atoms: C3_3  and  N2_5 
REMARK    4  A    between atoms: N2_5  and  C4_6 
ROOT
HETATM    1  C4  UNL     1      26.517   1.149  53.154  1.00  0.00     0.259 C 
HETATM    2  C5  UNL     1      25.359   0.851  54.013  1.00  0.00     0.046 C 
HETATM    3  C6  UNL     1      24.375  -0.146  53.446  1.00  0.00     0.001 C 
HETATM    4  C7  UNL     1      23.241  -0.629  52.907  1.00  0.00     0.020 C 
HETATM    5  C8  UNL     1      21.911  -0.163  52.423  1.00  0.00    -0.021 C 
HETATM    6  C9  UNL     1      20.996   0.792  52.131  1.00  0.00    -0.002 C 
HETATM    7  C10 UNL     1      21.277   2.206  52.289  1.00  0.00     0.024 C 
HETATM    8  C11 UNL     1      22.437   2.717  52.664  1.00  0.00     0.142 C 
HETATM    9  O1  UNL     1      23.729   3.025  53.068  1.00  0.00    -0.322 OA
HETATM   10  C12 UNL     1      24.819   2.772  52.168  1.00  0.00     0.083 A 
HETATM   11  C13 UNL     1      24.484   3.572  51.060  1.00  0.00     0.038 A 
HETATM   12  C14 UNL     1      25.223   3.691  49.884  1.00  0.00     0.003 A 
HETATM   13  C15 UNL     1      26.395   2.971  49.769  1.00  0.00     0.001 A 
HETATM   14  C16 UNL     1      26.741   2.182  50.842  1.00  0.00     0.012 A 
HETATM   15  C17 UNL     1      26.023   2.061  51.994  1.00  0.00     0.009 A 
ENDROOT
BRANCH   1  16
HETATM   16  N2  UNL     1      27.486   1.980  53.786  1.00  0.00     0.118 N 
HETATM   17  H7  UNL     1      27.486   2.902  53.290  1.00  0.00     0.319 HD
BRANCH  16  18
HETATM   18  C3  UNL     1      28.822   1.532  53.874  1.00  0.00     0.336 C 
BRANCH  18  19
HETATM   19  C2  UNL     1      28.960   0.074  54.168  1.00  0.00     0.019 C 
HETATM   20  C1  UNL     1      29.797  -0.741  53.524  1.00  0.00     0.011 C 
ENDBRANCH  18  19
BRANCH  18  21
HETATM   21  N1  UNL     1      29.727   2.281  54.678  1.00  0.00    -0.400 N 
HETATM   22  H5  UNL     1      29.626   2.196  55.695  1.00  0.00     0.152 HD
HETATM   23  H6  UNL     1      30.676   2.395  54.301  1.00  0.00     0.152 HD
ENDBRANCH  18  21
ENDBRANCH  16  18
ENDBRANCH   1  16
TORSDOF 4
ENDMDL
MODEL 3
REMARK VINA RESULT:      -7.5      3.072      5.217
REMARK  4 active torsions:
REMARK  status: ('A' for Active; 'I' for Inactive)
REMARK    1  A    between atoms: C2_2  and  C3_3 
REMARK    2  A    between atoms: C3_3  and  N1_4 
REMARK    3  A    between atoms: C3_3  and  N2_5 
REMARK    4  A    between atoms: N2_5  and  C4_6 
ROOT
HETATM    1  C4  UNL     1      24.082   2.925  51.172  1.00  0.00     0.259 C 
HETATM    2  C5  UNL     1      24.013   2.671  52.621  1.00  0.00     0.046 C 
HETATM    3  C6  UNL     1      24.289   1.245  53.040  1.00  0.00     0.001 C 
HETATM    4  C7  UNL     1      24.063  -0.000  53.496  1.00  0.00     0.020 C 
HETATM    5  C8  UNL     1      22.944  -0.862  53.972  1.00  0.00    -0.021 C 
HETATM    6  C9  UNL     1      21.639  -1.120  54.227  1.00  0.00    -0.002 C 
HETATM    7  C10 UNL     1      20.589  -0.167  53.923  1.00  0.00     0.024 C 
HETATM    8  C11 UNL     1      20.765   0.999  53.326  1.00  0.00     0.142 C 
HETATM    9  O1  UNL     1      21.183   2.163  52.692  1.00  0.00    -0.322 OA
HETATM   10  C12 UNL     1      21.684   2.082  51.350  1.00  0.00     0.083 A 
HETATM   11  C13 UNL     1      20.585   1.551  50.650  1.00  0.00     0.038 A 
HETATM   12  C14 UNL     1      20.543   1.269  49.286  1.00  0.00     0.003 A 
HETATM   13  C15 UNL     1      21.667   1.524  48.528  1.00  0.00     0.001 A 
HETATM   14  C16 UNL     1      22.755   2.043  49.192  1.00  0.00     0.012 A 
HETATM   15  C17 UNL     1      22.802   2.322  50.525  1.00  0.00     0.009 A 
ENDROOT
BRANCH   1  16
HETATM   16  N2  UNL     1      23.957   4.303  50.838  1.00  0.00     0.118 N 
HETATM   17  H7  UNL     1      23.049   4.426  50.331  1.00  0.00     0.319 HD
BRANCH  16  18
HETATM   18  C3  UNL     1      24.971   4.919  50.072  1.00  0.00     0.336 C 
BRANCH  18  19
HETATM   19  C2  UNL     1      26.057   3.990  49.635  1.00  0.00     0.019 C 
HETATM   20  C1  UNL     1      27.164   4.382  49.002  1.00  0.00     0.011 C 
ENDBRANCH  18  19
BRANCH  18  21
HETATM   21  N1  UNL     1      25.532   6.133  50.558  1.00  0.00    -0.400 N 
HETATM   22  H5  UNL     1      25.259   6.997  50.077  1.00  0.00     0.152 HD
HETATM   23  H6  UNL     1      25.692   6.182  51.571  1.00  0.00     0.152 HD
ENDBRANCH  18  21
ENDBRANCH  16  18
ENDBRANCH   1  16
TORSDOF 4
ENDMDL
MODEL 4
REMARK VINA RESULT:      -7.4      3.138      6.027
REMARK  4 active torsions:
REMARK  status: ('A' for Active; 'I' for Inactive)
REMARK    1  A    between atoms: C2_2  and  C3_3 
REMARK    2  A    between atoms: C3_3  and  N1_4 
REMARK    3  A    between atoms: C3_3  and  N2_5 
REMARK    4  A    between atoms: N2_5  and  C4_6 
ROOT
HETATM    1  C4  UNL     1      24.615   3.785  50.097  1.00  0.00     0.259 C 
HETATM    2  C5  UNL     1      25.352   3.532  51.346  1.00  0.00     0.046 C 
HETATM    3  C6  UNL     1      26.270   2.331  51.321  1.00  0.00     0.001 C 
HETATM    4  C7  UNL     1      26.740   1.099  51.588  1.00  0.00     0.020 C 
HETATM    5  C8  UNL     1      26.372  -0.131  52.344  1.00  0.00    -0.021 C 
HETATM    6  C9  UNL     1      25.537  -0.880  53.105  1.00  0.00    -0.002 C 
HETATM    7  C10 UNL     1      24.218  -0.417  53.489  1.00  0.00     0.024 C 
HETATM    8  C11 UNL     1      23.667   0.721  53.107  1.00  0.00     0.142 C 
HETATM    9  O1  UNL     1      23.291   1.952  52.585  1.00  0.00    -0.322 OA
HETATM   10  C12 UNL     1      23.068   2.069  51.171  1.00  0.00     0.083 A 
HETATM   11  C13 UNL     1      22.029   1.146  50.954  1.00  0.00     0.038 A 
HETATM   12  C14 UNL     1      21.429   0.863  49.729  1.00  0.00     0.003 A 
HETATM   13  C15 UNL     1      21.874   1.536  48.609  1.00  0.00     0.001 A 
HETATM   14  C16 UNL     1      22.890   2.444  48.798  1.00  0.00     0.012 A 
HETATM   15  C17 UNL     1      23.481   2.725  49.994  1.00  0.00     0.009 A 
ENDROOT
BRANCH   1  16
HETATM   16  N2  UNL     1      23.876   5.002  50.120  1.00  0.00     0.118 N 
HETATM   17  H7  UNL     1      24.421   5.716  49.581  1.00  0.00     0.319 HD
BRANCH  16  18
HETATM   18  C3  UNL     1      23.524   5.570  51.364  1.00  0.00     0.336 C 
BRANCH  18  19
HETATM   19  C2  UNL     1      22.057   5.789  51.544  1.00  0.00     0.019 C 
HETATM   20  C1  UNL     1      21.121   5.252  50.760  1.00  0.00     0.011 C 
ENDBRANCH  18  19
BRANCH  18  21
HETATM   21  N1  UNL     1      24.247   6.714  51.805  1.00  0.00    -0.400 N 
HETATM   22  H5  UNL     1      25.258   6.723  51.630  1.00  0.00     0.152 HD
HETATM   23  H6  UNL     1      23.747   7.610  51.755  1.00  0.00     0.152 HD
ENDBRANCH  18  21
ENDBRANCH  16  18
ENDBRANCH   1  16
TORSDOF 4
ENDMDL
MODEL 5
REMARK VINA RESULT:      -7.2      2.577      4.754
REMARK  4 active torsions:
REMARK  status: ('A' for Active; 'I' for Inactive)
REMARK    1  A    between atoms: C2_2  and  C3_3 
REMARK    2  A    between atoms: C3_3  and  N1_4 
REMARK    3  A    between atoms: C3_3  and  N2_5 
REMARK    4  A    between atoms: N2_5  and  C4_6 
ROOT
HETATM    1  C4  UNL     1      22.030   0.320  52.498  1.00  0.00     0.259 C 
HETATM    2  C5  UNL     1      21.066   1.035  51.644  1.00  0.00     0.046 C 
HETATM    3  C6  UNL     1      21.191   0.763  50.163  1.00  0.00     0.001 C 
HETATM    4  C7  UNL     1      21.466   0.971  48.863  1.00  0.00     0.020 C 
HETATM    5  C8  UNL     1      22.020   2.021  47.961  1.00  0.00    -0.021 C 
HETATM    6  C9  UNL     1      22.589   3.225  47.711  1.00  0.00    -0.002 C 
HETATM    7  C10 UNL     1      22.961   4.139  48.773  1.00  0.00     0.024 C 
HETATM    8  C11 UNL     1      22.850   3.893  50.067  1.00  0.00     0.142 C 
HETATM    9  O1  UNL     1      22.646   3.422  51.357  1.00  0.00    -0.322 OA
HETATM   10  C12 UNL     1      23.448   2.330  51.834  1.00  0.00     0.083 A 
HETATM   11  C13 UNL     1      24.751   2.852  51.739  1.00  0.00     0.038 A 
HETATM   12  C14 UNL     1      25.926   2.186  52.082  1.00  0.00     0.003 A 
HETATM   13  C15 UNL     1      25.832   0.894  52.561  1.00  0.00     0.001 A 
HETATM   14  C16 UNL     1      24.566   0.364  52.662  1.00  0.00     0.012 A 
HETATM   15  C17 UNL     1      23.414   1.011  52.329  1.00  0.00     0.009 A 
ENDROOT
BRANCH   1  16
HETATM   16  N2  UNL     1      21.785   0.495  53.889  1.00  0.00     0.118 N 
HETATM   17  H7  UNL     1      22.671   0.839  54.328  1.00  0.00     0.319 HD
BRANCH  16  18
HETATM   18  C3  UNL     1      21.320  -0.601  54.648  1.00  0.00     0.336 C 
BRANCH  18  19
HETATM   19  C2  UNL     1      22.364  -1.629  54.941  1.00  0.00     0.019 C 
HETATM   20  C1  UNL     1      23.466  -1.391  55.655  1.00  0.00     0.011 C 
ENDBRANCH  18  19
BRANCH  18  21
HETATM   21  N1  UNL     1      20.113  -1.235  54.239  1.00  0.00    -0.400 N 
HETATM   22  H5  UNL     1      20.198  -2.025  53.591  1.00  0.00     0.152 HD
HETATM   23  H6  UNL     1      19.364  -1.273  54.941  1.00  0.00     0.152 HD
ENDBRANCH  18  21
ENDBRANCH  16  18
ENDBRANCH   1  16
TORSDOF 4
ENDMDL
MODEL 6
REMARK VINA RESULT:      -6.8      2.733      5.253
REMARK  4 active torsions:
REMARK  status: ('A' for Active; 'I' for Inactive)
REMARK    1  A    between atoms: C2_2  and  C3_3 
REMARK    2  A    between atoms: C3_3  and  N1_4 
REMARK    3  A    between atoms: C3_3  and  N2_5 
REMARK    4  A    between atoms: N2_5  and  C4_6 
ROOT
HETATM    1  C4  UNL     1      21.974   0.630  52.123  1.00  0.00     0.259 C 
HETATM    2  C5  UNL     1      21.435   1.748  51.332  1.00  0.00     0.046 C 
HETATM    3  C6  UNL     1      22.090   1.961  49.986  1.00  0.00     0.001 C 
HETATM    4  C7  UNL     1      22.840   2.532  49.027  1.00  0.00     0.020 C 
HETATM    5  C8  UNL     1      23.741   3.701  48.818  1.00  0.00    -0.021 C 
HETATM    6  C9  UNL     1      24.421   4.795  49.238  1.00  0.00    -0.002 C 
HETATM    7  C10 UNL     1      24.414   5.225  50.622  1.00  0.00     0.024 C 
HETATM    8  C11 UNL     1      23.816   4.592  51.616  1.00  0.00     0.142 C 
HETATM    9  O1  UNL     1      23.123   3.767  52.493  1.00  0.00    -0.322 OA
HETATM   10  C12 UNL     1      23.635   2.453  52.764  1.00  0.00     0.083 A 
HETATM   11  C13 UNL     1      24.903   2.731  53.306  1.00  0.00     0.038 A 
HETATM   12  C14 UNL     1      25.830   1.787  53.742  1.00  0.00     0.003 A 
HETATM   13  C15 UNL     1      25.502   0.450  53.645  1.00  0.00     0.001 A 
HETATM   14  C16 UNL     1      24.265   0.155  53.118  1.00  0.00     0.012 A 
HETATM   15  C17 UNL     1      23.354   1.074  52.690  1.00  0.00     0.009 A 
ENDROOT
BRANCH   1  16
HETATM   16  N2  UNL     1      21.237   0.378  53.314  1.00  0.00     0.118 N 
HETATM   17  H7  UNL     1      21.912   0.387  54.115  1.00  0.00     0.319 HD
BRANCH  16  18
HETATM   18  C3  UNL     1      20.465  -0.800  53.409  1.00  0.00     0.336 C 
BRANCH  18  19
HETATM   19  C2  UNL     1      19.015  -0.608  53.099  1.00  0.00     0.019 C 
HETATM   20  C1  UNL     1      18.075  -1.524  53.333  1.00  0.00     0.011 C 
ENDBRANCH  18  19
BRANCH  18  21
HETATM   21  N1  UNL     1      20.613  -1.606  54.572  1.00  0.00    -0.400 N 
HETATM   22  H5  UNL     1      19.844  -1.590  55.251  1.00  0.00     0.152 HD
HETATM   23  H6  UNL     1      21.117  -2.493  54.446  1.00  0.00     0.152 HD
ENDBRANCH  18  21
ENDBRANCH  16  18
ENDBRANCH   1  16
TORSDOF 4
ENDMDL
MODEL 7
REMARK VINA RESULT:      -6.8      2.363      3.891
REMARK  4 active torsions:
REMARK  status: ('A' for Active; 'I' for Inactive)
REMARK    1  A    between atoms: C2_2  and  C3_3 
REMARK    2  A    between atoms: C3_3  and  N1_4 
REMARK    3  A    between atoms: C3_3  and  N2_5 
REMARK    4  A    between atoms: N2_5  and  C4_6 
ROOT
HETATM    1  C4  UNL     1      23.548   1.326  52.872  1.00  0.00     0.259 C 
HETATM    2  C5  UNL     1      24.475   2.464  52.753  1.00  0.00     0.046 C 
HETATM    3  C6  UNL     1      23.848   3.828  52.935  1.00  0.00     0.001 C 
HETATM    4  C7  UNL     1      23.380   5.050  52.625  1.00  0.00     0.020 C 
HETATM    5  C8  UNL     1      23.195   5.944  51.447  1.00  0.00    -0.021 C 
HETATM    6  C9  UNL     1      23.244   6.226  50.122  1.00  0.00    -0.002 C 
HETATM    7  C10 UNL     1      23.661   5.247  49.138  1.00  0.00     0.024 C 
HETATM    8  C11 UNL     1      23.973   3.989  49.397  1.00  0.00     0.142 C 
HETATM    9  O1  UNL     1      24.251   2.723  49.896  1.00  0.00    -0.322 OA
HETATM   10  C12 UNL     1      23.176   1.933  50.425  1.00  0.00     0.083 A 
HETATM   11  C13 UNL     1      22.322   1.807  49.314  1.00  0.00     0.038 A 
HETATM   12  C14 UNL     1      21.109   1.121  49.289  1.00  0.00     0.003 A 
HETATM   13  C15 UNL     1      20.682   0.499  50.444  1.00  0.00     0.001 A 
HETATM   14  C16 UNL     1      21.503   0.610  51.544  1.00  0.00     0.012 A 
HETATM   15  C17 UNL     1      22.690   1.278  51.575  1.00  0.00     0.009 A 
ENDROOT
BRANCH   1  16
HETATM   16  N2  UNL     1      24.203   0.063  52.835  1.00  0.00     0.118 N 
HETATM   17  H7  UNL     1      23.869  -0.444  51.982  1.00  0.00     0.319 HD
BRANCH  16  18
HETATM   18  C3  UNL     1      24.075  -0.809  53.938  1.00  0.00     0.336 C 
BRANCH  18  19
HETATM   19  C2  UNL     1      22.775  -0.690  54.665  1.00  0.00     0.019 C 
HETATM   20  C1  UNL     1      21.770  -1.559  54.547  1.00  0.00     0.011 C 
ENDBRANCH  18  19
BRANCH  18  21
HETATM   21  N1  UNL     1      25.150  -0.875  54.868  1.00  0.00    -0.400 N 
HETATM   22  H5  UNL     1      25.566   0.015  55.163  1.00  0.00     0.152 HD
HETATM   23  H6  UNL     1      25.101  -1.630  55.563  1.00  0.00     0.152 HD
ENDBRANCH  18  21
ENDBRANCH  16  18
ENDBRANCH   1  16
TORSDOF 4
ENDMDL
MODEL 8
REMARK VINA RESULT:      -6.8      2.122      2.853
REMARK  4 active torsions:
REMARK  status: ('A' for Active; 'I' for Inactive)
REMARK    1  A    between atoms: C2_2  and  C3_3 
REMARK    2  A    between atoms: C3_3  and  N1_4 
REMARK    3  A    between atoms: C3_3  and  N2_5 
REMARK    4  A    between atoms: N2_5  and  C4_6 
ROOT
HETATM    1  C4  UNL     1      24.894   2.801  52.008  1.00  0.00     0.259 C 
HETATM    2  C5  UNL     1      24.651   3.865  51.021  1.00  0.00     0.046 C 
HETATM    3  C6  UNL     1      23.610   4.887  51.417  1.00  0.00     0.001 C 
HETATM    4  C7  UNL     1      22.447   5.562  51.425  1.00  0.00     0.020 C 
HETATM    5  C8  UNL     1      21.116   5.562  50.753  1.00  0.00    -0.021 C 
HETATM    6  C9  UNL     1      20.188   5.057  49.906  1.00  0.00    -0.002 C 
HETATM    7  C10 UNL     1      20.410   3.837  49.155  1.00  0.00     0.024 C 
HETATM    8  C11 UNL     1      21.480   3.066  49.248  1.00  0.00     0.142 C 
HETATM    9  O1  UNL     1      22.679   2.416  49.510  1.00  0.00    -0.322 OA
HETATM   10  C12 UNL     1      22.878   1.817  50.799  1.00  0.00     0.083 A 
HETATM   11  C13 UNL     1      21.829   0.882  50.861  1.00  0.00     0.038 A 
HETATM   12  C14 UNL     1      21.562   0.022  51.925  1.00  0.00     0.003 A 
HETATM   13  C15 UNL     1      22.386   0.070  53.031  1.00  0.00     0.001 A 
HETATM   14  C16 UNL     1      23.420   0.978  52.991  1.00  0.00     0.012 A 
HETATM   15  C17 UNL     1      23.686   1.821  51.954  1.00  0.00     0.009 A 
ENDROOT
BRANCH   1  16
HETATM   16  N2  UNL     1      25.978   1.947  51.658  1.00  0.00     0.118 N 
HETATM   17  H7  UNL     1      25.582   1.001  51.444  1.00  0.00     0.319 HD
BRANCH  16  18
HETATM   18  C3  UNL     1      27.042   1.777  52.570  1.00  0.00     0.336 C 
BRANCH  18  19
HETATM   19  C2  UNL     1      27.486   0.360  52.736  1.00  0.00     0.019 C 
HETATM   20  C1  UNL     1      26.676  -0.694  52.623  1.00  0.00     0.011 C 
ENDBRANCH  18  19
BRANCH  18  21
HETATM   21  N1  UNL     1      26.941   2.409  53.841  1.00  0.00    -0.400 N 
HETATM   22  H5  UNL     1      26.563   1.848  54.612  1.00  0.00     0.152 HD
HETATM   23  H6  UNL     1      27.677   3.091  54.066  1.00  0.00     0.152 HD
ENDBRANCH  18  21
ENDBRANCH  16  18
ENDBRANCH   1  16
TORSDOF 4
ENDMDL
MODEL 9
REMARK VINA RESULT:      -6.7      3.515      6.108
REMARK  4 active torsions:
REMARK  status: ('A' for Active; 'I' for Inactive)
REMARK    1  A    between atoms: C2_2  and  C3_3 
REMARK    2  A    between atoms: C3_3  and  N1_4 
REMARK    3  A    between atoms: C3_3  and  N2_5 
REMARK    4  A    between atoms: N2_5  and  C4_6 
ROOT
HETATM    1  C4  UNL     1      20.146  -0.014  51.660  1.00  0.00     0.259 C 
HETATM    2  C5  UNL     1      19.866   1.120  50.763  1.00  0.00     0.046 C 
HETATM    3  C6  UNL     1      20.635   1.118  49.461  1.00  0.00     0.001 C 
HETATM    4  C7  UNL     1      21.535   1.480  48.530  1.00  0.00     0.020 C 
HETATM    5  C8  UNL     1      22.641   2.457  48.321  1.00  0.00    -0.021 C 
HETATM    6  C9  UNL     1      23.475   3.446  48.725  1.00  0.00    -0.002 C 
HETATM    7  C10 UNL     1      23.454   3.970  50.077  1.00  0.00     0.024 C 
HETATM    8  C11 UNL     1      22.691   3.523  51.058  1.00  0.00     0.142 C 
HETATM    9  O1  UNL     1      21.807   2.897  51.927  1.00  0.00    -0.322 OA
HETATM   10  C12 UNL     1      22.058   1.537  52.315  1.00  0.00     0.083 A 
HETATM   11  C13 UNL     1      23.318   1.631  52.935  1.00  0.00     0.038 A 
HETATM   12  C14 UNL     1      24.033   0.575  53.497  1.00  0.00     0.003 A 
HETATM   13  C15 UNL     1      23.479  -0.688  53.456  1.00  0.00     0.001 A 
HETATM   14  C16 UNL     1      22.247  -0.802  52.854  1.00  0.00     0.012 A 
HETATM   15  C17 UNL     1      21.542   0.226  52.303  1.00  0.00     0.009 A 
ENDROOT
BRANCH   1  16
HETATM   16  N2  UNL     1      19.300  -0.047  52.804  1.00  0.00     0.118 N 
HETATM   17  H7  UNL     1      19.892  -0.292  53.632  1.00  0.00     0.319 HD
BRANCH  16  18
HETATM   18  C3  UNL     1      18.177  -0.903  52.803  1.00  0.00     0.336 C 
BRANCH  18  19
HETATM   19  C2  UNL     1      16.942  -0.292  52.227  1.00  0.00     0.019 C 
HETATM   20  C1  UNL     1      16.310  -0.760  51.149  1.00  0.00     0.011 C 
ENDBRANCH  18  19
BRANCH  18  21
HETATM   21  N1  UNL     1      17.863  -1.596  54.006  1.00  0.00    -0.400 N 
HETATM   22  H5  UNL     1      17.910  -2.621  53.979  1.00  0.00     0.152 HD
HETATM   23  H6  UNL     1      18.138  -1.131  54.880  1.00  0.00     0.152 HD
ENDBRANCH  18  21
ENDBRANCH  16  18
ENDBRANCH   1  16
TORSDOF 4
ENDMDL
