MODEL 1
REMARK VINA RESULT:      -7.5      0.000      0.000
REMARK  8 active torsions:
REMARK  status: ('A' for Active; 'I' for Inactive)
REMARK       I    between atoms: C1_2  and  N1_3 
REMARK    1  A    between atoms: C1_2  and  C5_9 
REMARK    2  A    between atoms: N1_3  and  C2_4 
REMARK    3  A    between atoms: C2_4  and  C3_5 
REMARK    4  A    between atoms: C3_5  and  O2_6 
REMARK    5  A    between atoms: C3_5  and  C4_7 
REMARK    6  A    between atoms: C4_7  and  O3_8 
REMARK    7  A    between atoms: C8_13  and  C9_14 
REMARK    8  A    between atoms: C10_15  and  C11_16 
ROOT
HETATM    1  C5  UNL     1      24.465   1.208  52.231  1.00  0.00     0.047 C 
HETATM    2  C6  UNL     1      23.210   0.996  51.909  1.00  0.00     0.015 C 
HETATM    3  C7  UNL     1      22.458   2.048  51.635  1.00  0.00     0.155 C 
HETATM    4  O4  UNL     1      23.028   3.109  50.907  1.00  0.00    -0.322 OA
HETATM    5  C8  UNL     1      24.430   3.180  50.870  1.00  0.00     0.075 C 
HETATM    6  C17 UNL     1      25.151   2.270  51.505  1.00  0.00     0.055 C 
ENDROOT
BRANCH   1   7
HETATM    7  C1  UNL     1      25.143   0.427  53.261  1.00  0.00     0.252 C 
HETATM    8  O1  UNL     1      24.746  -0.754  53.432  1.00  0.00    -0.268 OA
HETATM    9  N1  UNL     1      26.199   1.063  53.987  1.00  0.00    -0.354 N 
HETATM   10  H1  UNL     1      26.455   2.052  53.770  1.00  0.00     0.162 HD
BRANCH   9  11
HETATM   11  C2  UNL     1      26.894   0.321  55.017  1.00  0.00     0.156 C 
BRANCH  11  12
HETATM   12  C3  UNL     1      28.378   0.233  54.725  1.00  0.00     0.159 C 
BRANCH  12  13
HETATM   13  O2  UNL     1      28.641  -1.022  54.134  1.00  0.00    -0.392 OA
HETATM   14  H5  UNL     1      29.514  -1.055  53.709  1.00  0.00     0.210 HD
ENDBRANCH  12  13
BRANCH  12  15
HETATM   15  C4  UNL     1      28.796   1.270  53.718  1.00  0.00     0.197 C 
BRANCH  15  16
HETATM   16  O3  UNL     1      28.880   2.494  54.375  1.00  0.00    -0.398 OA
HETATM   17  H8  UNL     1      29.582   3.092  54.041  1.00  0.00     0.209 HD
ENDBRANCH  15  16
ENDBRANCH  12  15
ENDBRANCH  11  12
ENDBRANCH   9  11
ENDBRANCH   1   7
BRANCH   5  18
HETATM   18  C9  UNL     1      25.056   4.261  50.129  1.00  0.00     0.038 C 
HETATM   19  C10 UNL     1      26.282   4.171  49.647  1.00  0.00     0.014 C 
BRANCH  19  20
HETATM   20  C11 UNL     1      26.987   5.198  48.895  1.00  0.00    -0.036 A 
HETATM   21  C12 UNL     1      28.318   5.085  48.552  1.00  0.00     0.013 A 
HETATM   22  C13 UNL     1      28.961   6.076  47.839  1.00  0.00     0.024 A 
HETATM   23  C14 UNL     1      28.313   7.225  47.434  1.00  0.00     0.034 A 
HETATM   24 CL1  UNL     1      29.153   8.466  46.530  1.00  0.00    -0.084 Cl
HETATM   25  C15 UNL     1      26.983   7.361  47.765  1.00  0.00     0.024 A 
HETATM   26  C16 UNL     1      26.359   6.351  48.483  1.00  0.00     0.013 A 
ENDBRANCH  19  20
ENDBRANCH   5  18
TORSDOF 8
ENDMDL
MODEL 2
REMARK VINA RESULT:      -7.4      3.413      3.976
REMARK  8 active torsions:
REMARK  status: ('A' for Active; 'I' for Inactive)
REMARK       I    between atoms: C1_2  and  N1_3 
REMARK    1  A    between atoms: C1_2  and  C5_9 
REMARK    2  A    between atoms: N1_3  and  C2_4 
REMARK    3  A    between atoms: C2_4  and  C3_5 
REMARK    4  A    between atoms: C3_5  and  O2_6 
REMARK    5  A    between atoms: C3_5  and  C4_7 
REMARK    6  A    between atoms: C4_7  and  O3_8 
REMARK    7  A    between atoms: C8_13  and  C9_14 
REMARK    8  A    between atoms: C10_15  and  C11_16 
ROOT
HETATM    1  C5  UNL     1      24.466  -0.104  53.731  1.00  0.00     0.047 C 
HETATM    2  C6  UNL     1      23.392  -0.817  53.981  1.00  0.00     0.015 C 
HETATM    3  C7  UNL     1      22.221  -0.207  53.930  1.00  0.00     0.155 C 
HETATM    4  O4  UNL     1      22.006   0.750  52.922  1.00  0.00    -0.322 OA
HETATM    5  C8  UNL     1      23.144   1.293  52.302  1.00  0.00     0.075 C 
HETATM    6  C17 UNL     1      24.349   0.896  52.676  1.00  0.00     0.055 C 
ENDROOT
BRANCH   1   7
HETATM    7  C1  UNL     1      25.712  -0.295  54.465  1.00  0.00     0.252 C 
HETATM    8  O1  UNL     1      25.628  -0.846  55.594  1.00  0.00    -0.268 OA
HETATM    9  N1  UNL     1      26.921   0.155  53.848  1.00  0.00    -0.354 N 
HETATM   10  H1  UNL     1      26.886   0.602  52.904  1.00  0.00     0.162 HD
BRANCH   9  11
HETATM   11  C2  UNL     1      28.176  -0.017  54.546  1.00  0.00     0.156 C 
BRANCH  11  12
HETATM   12  C3  UNL     1      29.151   1.092  54.208  1.00  0.00     0.159 C 
BRANCH  12  13
HETATM   13  O2  UNL     1      30.191   0.547  53.425  1.00  0.00    -0.392 OA
HETATM   14  H5  UNL     1      30.649  -0.182  53.874  1.00  0.00     0.210 HD
ENDBRANCH  12  13
BRANCH  12  15
HETATM   15  C4  UNL     1      28.498   2.151  53.362  1.00  0.00     0.197 C 
BRANCH  15  16
HETATM   16  O3  UNL     1      27.668   2.906  54.186  1.00  0.00    -0.398 OA
HETATM   17  H8  UNL     1      27.180   3.623  53.730  1.00  0.00     0.209 HD
ENDBRANCH  15  16
ENDBRANCH  12  15
ENDBRANCH  11  12
ENDBRANCH   9  11
ENDBRANCH   1   7
BRANCH   5  18
HETATM   18  C9  UNL     1      22.962   2.285  51.257  1.00  0.00     0.038 C 
HETATM   19  C10 UNL     1      22.838   1.956  49.983  1.00  0.00     0.014 C 
BRANCH  19  20
HETATM   20  C11 UNL     1      22.653   2.876  48.873  1.00  0.00    -0.036 A 
HETATM   21  C12 UNL     1      23.030   4.201  48.935  1.00  0.00     0.013 A 
HETATM   22  C13 UNL     1      22.842   5.052  47.865  1.00  0.00     0.024 A 
HETATM   23  C14 UNL     1      22.270   4.628  46.684  1.00  0.00     0.034 A 
HETATM   24 CL1  UNL     1      22.043   5.728  45.342  1.00  0.00    -0.084 Cl
HETATM   25  C15 UNL     1      21.884   3.309  46.597  1.00  0.00     0.024 A 
HETATM   26  C16 UNL     1      22.084   2.472  47.686  1.00  0.00     0.013 A 
ENDBRANCH  19  20
ENDBRANCH   5  18
TORSDOF 8
ENDMDL
MODEL 3
REMARK VINA RESULT:      -7.3      5.311      8.545
REMARK  8 active torsions:
REMARK  status: ('A' for Active; 'I' for Inactive)
REMARK       I    between atoms: C1_2  and  N1_3 
REMARK    1  A    between atoms: C1_2  and  C5_9 
REMARK    2  A    between atoms: N1_3  and  C2_4 
REMARK    3  A    between atoms: C2_4  and  C3_5 
REMARK    4  A    between atoms: C3_5  and  O2_6 
REMARK    5  A    between atoms: C3_5  and  C4_7 
REMARK    6  A    between atoms: C4_7  and  O3_8 
REMARK    7  A    between atoms: C8_13  and  C9_14 
REMARK    8  A    between atoms: C10_15  and  C11_16 
ROOT
HETATM    1  C5  UNL     1      24.139   0.006  53.779  1.00  0.00     0.047 C 
HETATM    2  C6  UNL     1      24.582  -0.891  54.630  1.00  0.00     0.015 C 
HETATM    3  C7  UNL     1      23.770  -1.275  55.600  1.00  0.00     0.155 C 
HETATM    4  O4  UNL     1      22.405  -1.444  55.304  1.00  0.00    -0.322 OA
HETATM    5  C8  UNL     1      21.918  -0.818  54.144  1.00  0.00     0.075 C 
HETATM    6  C17 UNL     1      22.739  -0.108  53.388  1.00  0.00     0.055 C 
ENDROOT
BRANCH   1   7
HETATM    7  C1  UNL     1      24.995   1.062  53.251  1.00  0.00     0.252 C 
HETATM    8  O1  UNL     1      24.551   2.238  53.313  1.00  0.00    -0.268 OA
HETATM    9  N1  UNL     1      26.262   0.680  52.709  1.00  0.00    -0.354 N 
HETATM   10  H1  UNL     1      26.540  -0.327  52.703  1.00  0.00     0.162 HD
BRANCH   9  11
HETATM   11  C2  UNL     1      27.138   1.700  52.175  1.00  0.00     0.156 C 
BRANCH  11  12
HETATM   12  C3  UNL     1      28.202   2.093  53.180  1.00  0.00     0.159 C 
BRANCH  12  13
HETATM   13  O2  UNL     1      27.595   2.877  54.185  1.00  0.00    -0.392 OA
HETATM   14  H5  UNL     1      27.722   3.829  54.040  1.00  0.00     0.210 HD
ENDBRANCH  12  13
BRANCH  12  15
HETATM   15  C4  UNL     1      28.769   0.884  53.872  1.00  0.00     0.197 C 
BRANCH  15  16
HETATM   16  O3  UNL     1      28.056   0.692  55.052  1.00  0.00    -0.398 OA
HETATM   17  H8  UNL     1      28.317   1.282  55.790  1.00  0.00     0.209 HD
ENDBRANCH  15  16
ENDBRANCH  12  15
ENDBRANCH  11  12
ENDBRANCH   9  11
ENDBRANCH   1   7
BRANCH   5  18
HETATM   18  C9  UNL     1      20.514  -0.968  53.806  1.00  0.00     0.038 C 
HETATM   19  C10 UNL     1      19.994  -0.459  52.704  1.00  0.00     0.014 C 
BRANCH  19  20
HETATM   20  C11 UNL     1      18.605  -0.559  52.284  1.00  0.00    -0.036 A 
HETATM   21  C12 UNL     1      17.664  -1.277  52.992  1.00  0.00     0.013 A 
HETATM   22  C13 UNL     1      16.354  -1.355  52.569  1.00  0.00     0.024 A 
HETATM   23  C14 UNL     1      15.914  -0.725  51.424  1.00  0.00     0.034 A 
HETATM   24 CL1  UNL     1      14.246  -0.840  50.910  1.00  0.00    -0.084 Cl
HETATM   25  C15 UNL     1      16.835  -0.001  50.699  1.00  0.00     0.024 A 
HETATM   26  C16 UNL     1      18.148   0.063  51.144  1.00  0.00     0.013 A 
ENDBRANCH  19  20
ENDBRANCH   5  18
TORSDOF 8
ENDMDL
MODEL 4
REMARK VINA RESULT:      -7.3      0.965      1.582
REMARK  8 active torsions:
REMARK  status: ('A' for Active; 'I' for Inactive)
REMARK       I    between atoms: C1_2  and  N1_3 
REMARK    1  A    between atoms: C1_2  and  C5_9 
REMARK    2  A    between atoms: N1_3  and  C2_4 
REMARK    3  A    between atoms: C2_4  and  C3_5 
REMARK    4  A    between atoms: C3_5  and  O2_6 
REMARK    5  A    between atoms: C3_5  and  C4_7 
REMARK    6  A    between atoms: C4_7  and  O3_8 
REMARK    7  A    between atoms: C8_13  and  C9_14 
REMARK    8  A    between atoms: C10_15  and  C11_16 
ROOT
HETATM    1  C5  UNL     1      25.155   1.730  51.719  1.00  0.00     0.047 C 
HETATM    2  C6  UNL     1      23.928   1.837  51.266  1.00  0.00     0.015 C 
HETATM    3  C7  UNL     1      23.560   2.998  50.751  1.00  0.00     0.155 C 
HETATM    4  O4  UNL     1      24.486   3.707  49.965  1.00  0.00    -0.322 OA
HETATM    5  C8  UNL     1      25.841   3.363  50.106  1.00  0.00     0.075 C 
HETATM    6  C17 UNL     1      26.192   2.407  50.951  1.00  0.00     0.055 C 
ENDROOT
BRANCH   1   7
HETATM    7  C1  UNL     1      25.472   0.975  52.927  1.00  0.00     0.252 C 
HETATM    8  O1  UNL     1      24.610   0.149  53.324  1.00  0.00    -0.268 OA
HETATM    9  N1  UNL     1      26.729   1.234  53.560  1.00  0.00    -0.354 N 
HETATM   10  H1  UNL     1      27.378   1.943  53.151  1.00  0.00     0.162 HD
BRANCH   9  11
HETATM   11  C2  UNL     1      27.077   0.506  54.761  1.00  0.00     0.156 C 
BRANCH  11  12
HETATM   12  C3  UNL     1      28.506   0.005  54.706  1.00  0.00     0.159 C 
BRANCH  12  13
HETATM   13  O2  UNL     1      28.518  -1.231  54.025  1.00  0.00    -0.392 OA
HETATM   14  H5  UNL     1      27.759  -1.332  53.427  1.00  0.00     0.210 HD
ENDBRANCH  12  13
BRANCH  12  15
HETATM   15  C4  UNL     1      29.378   0.935  53.907  1.00  0.00     0.197 C 
BRANCH  15  16
HETATM   16  O3  UNL     1      29.448   2.147  54.588  1.00  0.00    -0.398 OA
HETATM   17  H8  UNL     1      28.598   2.455  54.967  1.00  0.00     0.209 HD
ENDBRANCH  15  16
ENDBRANCH  12  15
ENDBRANCH  11  12
ENDBRANCH   9  11
ENDBRANCH   1   7
BRANCH   5  18
HETATM   18  C9  UNL     1      26.828   4.074  49.312  1.00  0.00     0.038 C 
HETATM   19  C10 UNL     1      26.733   5.368  49.060  1.00  0.00     0.014 C 
BRANCH  19  20
HETATM   20  C11 UNL     1      27.669   6.161  48.279  1.00  0.00    -0.036 A 
HETATM   21  C12 UNL     1      27.286   7.285  47.578  1.00  0.00     0.013 A 
HETATM   22  C13 UNL     1      28.197   8.018  46.844  1.00  0.00     0.024 A 
HETATM   23  C14 UNL     1      29.530   7.669  46.773  1.00  0.00     0.034 A 
HETATM   24 CL1  UNL     1      30.663   8.617  45.835  1.00  0.00    -0.084 Cl
HETATM   25  C15 UNL     1      29.937   6.551  47.465  1.00  0.00     0.024 A 
HETATM   26  C16 UNL     1      29.003   5.829  48.195  1.00  0.00     0.013 A 
ENDBRANCH  19  20
ENDBRANCH   5  18
TORSDOF 8
ENDMDL
MODEL 5
REMARK VINA RESULT:      -7.3      4.740      7.918
REMARK  8 active torsions:
REMARK  status: ('A' for Active; 'I' for Inactive)
REMARK       I    between atoms: C1_2  and  N1_3 
REMARK    1  A    between atoms: C1_2  and  C5_9 
REMARK    2  A    between atoms: N1_3  and  C2_4 
REMARK    3  A    between atoms: C2_4  and  C3_5 
REMARK    4  A    between atoms: C3_5  and  O2_6 
REMARK    5  A    between atoms: C3_5  and  C4_7 
REMARK    6  A    between atoms: C4_7  and  O3_8 
REMARK    7  A    between atoms: C8_13  and  C9_14 
REMARK    8  A    between atoms: C10_15  and  C11_16 
ROOT
HETATM    1  C5  UNL     1      26.803   5.700  48.777  1.00  0.00     0.047 C 
HETATM    2  C6  UNL     1      26.055   6.749  48.527  1.00  0.00     0.015 C 
HETATM    3  C7  UNL     1      24.799   6.539  48.170  1.00  0.00     0.155 C 
HETATM    4  O4  UNL     1      24.084   5.509  48.807  1.00  0.00    -0.322 OA
HETATM    5  C8  UNL     1      24.834   4.521  49.466  1.00  0.00     0.075 C 
HETATM    6  C17 UNL     1      26.156   4.590  49.465  1.00  0.00     0.055 C 
ENDROOT
BRANCH   1   7
HETATM    7  C1  UNL     1      28.209   5.640  48.389  1.00  0.00     0.252 C 
HETATM    8  O1  UNL     1      28.743   4.502  48.362  1.00  0.00    -0.268 OA
HETATM    9  N1  UNL     1      28.862   6.873  48.073  1.00  0.00    -0.354 N 
HETATM   10  H1  UNL     1      28.329   7.770  48.127  1.00  0.00     0.162 HD
BRANCH   9  11
HETATM   11  C2  UNL     1      30.256   6.854  47.686  1.00  0.00     0.156 C 
BRANCH  11  12
HETATM   12  C3  UNL     1      31.124   7.545  48.718  1.00  0.00     0.159 C 
BRANCH  12  13
HETATM   13  O2  UNL     1      30.280   8.201  49.640  1.00  0.00    -0.392 OA
HETATM   14  H5  UNL     1      29.505   7.667  49.878  1.00  0.00     0.210 HD
ENDBRANCH  12  13
BRANCH  12  15
HETATM   15  C4  UNL     1      31.922   6.548  49.512  1.00  0.00     0.197 C 
BRANCH  15  16
HETATM   16  O3  UNL     1      31.030   5.651  50.094  1.00  0.00    -0.398 OA
HETATM   17  H8  UNL     1      31.084   4.736  49.746  1.00  0.00     0.209 HD
ENDBRANCH  15  16
ENDBRANCH  12  15
ENDBRANCH  11  12
ENDBRANCH   9  11
ENDBRANCH   1   7
BRANCH   5  18
HETATM   18  C9  UNL     1      24.131   3.440  50.134  1.00  0.00     0.038 C 
HETATM   19  C10 UNL     1      24.602   2.857  51.222  1.00  0.00     0.014 C 
BRANCH  19  20
HETATM   20  C11 UNL     1      23.970   1.772  51.957  1.00  0.00    -0.036 A 
HETATM   21  C12 UNL     1      22.601   1.639  52.053  1.00  0.00     0.013 A 
HETATM   22  C13 UNL     1      22.029   0.600  52.758  1.00  0.00     0.024 A 
HETATM   23  C14 UNL     1      22.790  -0.355  53.401  1.00  0.00     0.034 A 
HETATM   24 CL1  UNL     1      22.039  -1.663  54.288  1.00  0.00    -0.084 Cl
HETATM   25  C15 UNL     1      24.160  -0.244  53.319  1.00  0.00     0.024 A 
HETATM   26  C16 UNL     1      24.712   0.811  52.605  1.00  0.00     0.013 A 
ENDBRANCH  19  20
ENDBRANCH   5  18
TORSDOF 8
ENDMDL
MODEL 6
REMARK VINA RESULT:      -7.2      4.829      8.495
REMARK  8 active torsions:
REMARK  status: ('A' for Active; 'I' for Inactive)
REMARK       I    between atoms: C1_2  and  N1_3 
REMARK    1  A    between atoms: C1_2  and  C5_9 
REMARK    2  A    between atoms: N1_3  and  C2_4 
REMARK    3  A    between atoms: C2_4  and  C3_5 
REMARK    4  A    between atoms: C3_5  and  O2_6 
REMARK    5  A    between atoms: C3_5  and  C4_7 
REMARK    6  A    between atoms: C4_7  and  O3_8 
REMARK    7  A    between atoms: C8_13  and  C9_14 
REMARK    8  A    between atoms: C10_15  and  C11_16 
ROOT
HETATM    1  C5  UNL     1      25.881   2.375  51.274  1.00  0.00     0.047 C 
HETATM    2  C6  UNL     1      26.842   1.715  51.879  1.00  0.00     0.015 C 
HETATM    3  C7  UNL     1      26.598   1.245  53.091  1.00  0.00     0.155 C 
HETATM    4  O4  UNL     1      25.326   0.707  53.358  1.00  0.00    -0.322 OA
HETATM    5  C8  UNL     1      24.284   1.063  52.486  1.00  0.00     0.075 C 
HETATM    6  C17 UNL     1      24.527   1.871  51.467  1.00  0.00     0.055 C 
ENDROOT
BRANCH   1   7
HETATM    7  C1  UNL     1      26.148   3.550  50.451  1.00  0.00     0.252 C 
HETATM    8  O1  UNL     1      26.997   3.420  49.532  1.00  0.00    -0.268 OA
HETATM    9  N1  UNL     1      25.426   4.748  50.753  1.00  0.00    -0.354 N 
HETATM   10  H1  UNL     1      24.738   4.754  51.540  1.00  0.00     0.162 HD
BRANCH   9  11
HETATM   11  C2  UNL     1      25.664   5.934  49.959  1.00  0.00     0.156 C 
BRANCH  11  12
HETATM   12  C3  UNL     1      24.815   7.095  50.437  1.00  0.00     0.159 C 
BRANCH  12  13
HETATM   13  O2  UNL     1      24.655   6.983  51.834  1.00  0.00    -0.392 OA
HETATM   14  H5  UNL     1      23.811   7.353  52.141  1.00  0.00     0.210 HD
ENDBRANCH  12  13
BRANCH  12  15
HETATM   15  C4  UNL     1      25.506   8.409  50.195  1.00  0.00     0.197 C 
BRANCH  15  16
HETATM   16  O3  UNL     1      26.797   8.315  50.708  1.00  0.00    -0.398 OA
HETATM   17  H8  UNL     1      26.950   8.826  51.530  1.00  0.00     0.209 HD
ENDBRANCH  15  16
ENDBRANCH  12  15
ENDBRANCH  11  12
ENDBRANCH   9  11
ENDBRANCH   1   7
BRANCH   5  18
HETATM   18  C9  UNL     1      22.956   0.528  52.730  1.00  0.00     0.038 C 
HETATM   19  C10 UNL     1      21.948   0.733  51.901  1.00  0.00     0.014 C 
BRANCH  19  20
HETATM   20  C11 UNL     1      20.589   0.239  52.062  1.00  0.00    -0.036 A 
HETATM   21  C12 UNL     1      19.604   0.453  51.121  1.00  0.00     0.013 A 
HETATM   22  C13 UNL     1      18.324  -0.027  51.301  1.00  0.00     0.024 A 
HETATM   23  C14 UNL     1      17.960  -0.742  52.424  1.00  0.00     0.034 A 
HETATM   24 CL1  UNL     1      16.329  -1.340  52.628  1.00  0.00    -0.084 Cl
HETATM   25  C15 UNL     1      18.927  -0.969  53.379  1.00  0.00     0.024 A 
HETATM   26  C16 UNL     1      20.208  -0.475  53.175  1.00  0.00     0.013 A 
ENDBRANCH  19  20
ENDBRANCH   5  18
TORSDOF 8
ENDMDL
MODEL 7
REMARK VINA RESULT:      -7.0      1.753      2.749
REMARK  8 active torsions:
REMARK  status: ('A' for Active; 'I' for Inactive)
REMARK       I    between atoms: C1_2  and  N1_3 
REMARK    1  A    between atoms: C1_2  and  C5_9 
REMARK    2  A    between atoms: N1_3  and  C2_4 
REMARK    3  A    between atoms: C2_4  and  C3_5 
REMARK    4  A    between atoms: C3_5  and  O2_6 
REMARK    5  A    between atoms: C3_5  and  C4_7 
REMARK    6  A    between atoms: C4_7  and  O3_8 
REMARK    7  A    between atoms: C8_13  and  C9_14 
REMARK    8  A    between atoms: C10_15  and  C11_16 
ROOT
HETATM    1  C5  UNL     1      25.285   2.725  50.695  1.00  0.00     0.047 C 
HETATM    2  C6  UNL     1      24.168   3.293  50.304  1.00  0.00     0.015 C 
HETATM    3  C7  UNL     1      24.202   4.581  50.007  1.00  0.00     0.155 C 
HETATM    4  O4  UNL     1      25.326   5.082  49.325  1.00  0.00    -0.322 OA
HETATM    5  C8  UNL     1      26.497   4.306  49.363  1.00  0.00     0.075 C 
HETATM    6  C17 UNL     1      26.503   3.158  50.021  1.00  0.00     0.055 C 
ENDROOT
BRANCH   1   7
HETATM    7  C1  UNL     1      25.314   1.713  51.746  1.00  0.00     0.252 C 
HETATM    8  O1  UNL     1      24.226   1.468  52.329  1.00  0.00    -0.268 OA
HETATM    9  N1  UNL     1      26.568   1.086  52.028  1.00  0.00    -0.354 N 
HETATM   10  H1  UNL     1      27.418   1.360  51.485  1.00  0.00     0.162 HD
BRANCH   9  11
HETATM   11  C2  UNL     1      26.636   0.079  53.064  1.00  0.00     0.156 C 
BRANCH  11  12
HETATM   12  C3  UNL     1      27.443   0.565  54.251  1.00  0.00     0.159 C 
BRANCH  12  13
HETATM   13  O2  UNL     1      28.113  -0.542  54.816  1.00  0.00    -0.392 OA
HETATM   14  H5  UNL     1      28.844  -0.857  54.259  1.00  0.00     0.210 HD
ENDBRANCH  12  13
BRANCH  12  15
HETATM   15  C4  UNL     1      28.512   1.532  53.823  1.00  0.00     0.197 C 
BRANCH  15  16
HETATM   16  O3  UNL     1      28.050   2.820  54.074  1.00  0.00    -0.398 OA
HETATM   17  H8  UNL     1      28.625   3.537  53.733  1.00  0.00     0.209 HD
ENDBRANCH  15  16
ENDBRANCH  12  15
ENDBRANCH  11  12
ENDBRANCH   9  11
ENDBRANCH   1   7
BRANCH   5  18
HETATM   18  C9  UNL     1      27.678   4.791  48.672  1.00  0.00     0.038 C 
HETATM   19  C10 UNL     1      27.815   6.054  48.306  1.00  0.00     0.014 C 
BRANCH  19  20
HETATM   20  C11 UNL     1      28.957   6.628  47.613  1.00  0.00    -0.036 A 
HETATM   21  C12 UNL     1      28.834   7.656  46.703  1.00  0.00     0.013 A 
HETATM   22  C13 UNL     1      29.936   8.181  46.060  1.00  0.00     0.024 A 
HETATM   23  C14 UNL     1      31.212   7.710  46.291  1.00  0.00     0.034 A 
HETATM   24 CL1  UNL     1      32.593   8.394  45.462  1.00  0.00    -0.084 Cl
HETATM   25  C15 UNL     1      31.362   6.683  47.196  1.00  0.00     0.024 A 
HETATM   26  C16 UNL     1      30.238   6.171  47.830  1.00  0.00     0.013 A 
ENDBRANCH  19  20
ENDBRANCH   5  18
TORSDOF 8
ENDMDL
MODEL 8
REMARK VINA RESULT:      -7.0      5.139      8.141
REMARK  8 active torsions:
REMARK  status: ('A' for Active; 'I' for Inactive)
REMARK       I    between atoms: C1_2  and  N1_3 
REMARK    1  A    between atoms: C1_2  and  C5_9 
REMARK    2  A    between atoms: N1_3  and  C2_4 
REMARK    3  A    between atoms: C2_4  and  C3_5 
REMARK    4  A    between atoms: C3_5  and  O2_6 
REMARK    5  A    between atoms: C3_5  and  C4_7 
REMARK    6  A    between atoms: C4_7  and  O3_8 
REMARK    7  A    between atoms: C8_13  and  C9_14 
REMARK    8  A    between atoms: C10_15  and  C11_16 
ROOT
HETATM    1  C5  UNL     1      24.868   1.769  52.910  1.00  0.00     0.047 C 
HETATM    2  C6  UNL     1      24.763   2.815  52.124  1.00  0.00     0.015 C 
HETATM    3  C7  UNL     1      24.096   2.671  50.992  1.00  0.00     0.155 C 
HETATM    4  O4  UNL     1      22.931   1.882  50.995  1.00  0.00    -0.322 OA
HETATM    5  C8  UNL     1      22.770   0.982  52.062  1.00  0.00     0.075 C 
HETATM    6  C17 UNL     1      23.697   0.907  53.003  1.00  0.00     0.055 C 
ENDROOT
BRANCH   1   7
HETATM    7  C1  UNL     1      26.090   1.477  53.653  1.00  0.00     0.252 C 
HETATM    8  O1  UNL     1      26.652   2.447  54.226  1.00  0.00    -0.268 OA
HETATM    9  N1  UNL     1      26.548   0.122  53.671  1.00  0.00    -0.354 N 
HETATM   10  H1  UNL     1      26.009  -0.613  53.161  1.00  0.00     0.162 HD
BRANCH   9  11
HETATM   11  C2  UNL     1      27.757  -0.205  54.396  1.00  0.00     0.156 C 
BRANCH  11  12
HETATM   12  C3  UNL     1      28.951  -0.283  53.467  1.00  0.00     0.159 C 
BRANCH  12  13
HETATM   13  O2  UNL     1      29.777   0.836  53.710  1.00  0.00    -0.392 OA
HETATM   14  H5  UNL     1      29.620   1.229  54.584  1.00  0.00     0.210 HD
ENDBRANCH  12  13
BRANCH  12  15
HETATM   15  C4  UNL     1      29.790  -1.497  53.761  1.00  0.00     0.197 C 
BRANCH  15  16
HETATM   16  O3  UNL     1      29.072  -2.620  53.359  1.00  0.00    -0.398 OA
HETATM   17  H8  UNL     1      28.941  -3.295  54.058  1.00  0.00     0.209 HD
ENDBRANCH  15  16
ENDBRANCH  12  15
ENDBRANCH  11  12
ENDBRANCH   9  11
ENDBRANCH   1   7
BRANCH   5  18
HETATM   18  C9  UNL     1      21.581   0.150  52.099  1.00  0.00     0.038 C 
HETATM   19  C10 UNL     1      20.373   0.652  52.287  1.00  0.00     0.014 C 
BRANCH  19  20
HETATM   20  C11 UNL     1      19.129  -0.100  52.339  1.00  0.00    -0.036 A 
HETATM   21  C12 UNL     1      18.884  -1.066  53.293  1.00  0.00     0.013 A 
HETATM   22  C13 UNL     1      17.695  -1.764  53.317  1.00  0.00     0.024 A 
HETATM   23  C14 UNL     1      16.693  -1.538  52.396  1.00  0.00     0.034 A 
HETATM   24 CL1  UNL     1      15.193  -2.438  52.450  1.00  0.00    -0.084 Cl
HETATM   25  C15 UNL     1      16.914  -0.578  51.433  1.00  0.00     0.024 A 
HETATM   26  C16 UNL     1      18.118   0.111  51.429  1.00  0.00     0.013 A 
ENDBRANCH  19  20
ENDBRANCH   5  18
TORSDOF 8
ENDMDL
MODEL 9
REMARK VINA RESULT:      -7.0      5.301      8.361
REMARK  8 active torsions:
REMARK  status: ('A' for Active; 'I' for Inactive)
REMARK       I    between atoms: C1_2  and  N1_3 
REMARK    1  A    between atoms: C1_2  and  C5_9 
REMARK    2  A    between atoms: N1_3  and  C2_4 
REMARK    3  A    between atoms: C2_4  and  C3_5 
REMARK    4  A    between atoms: C3_5  and  O2_6 
REMARK    5  A    between atoms: C3_5  and  C4_7 
REMARK    6  A    between atoms: C4_7  and  O3_8 
REMARK    7  A    between atoms: C8_13  and  C9_14 
REMARK    8  A    between atoms: C10_15  and  C11_16 
ROOT
HETATM    1  C5  UNL     1      30.045   6.658  47.575  1.00  0.00     0.047 C 
HETATM    2  C6  UNL     1      29.661   7.855  47.196  1.00  0.00     0.015 C 
HETATM    3  C7  UNL     1      28.423   7.994  46.754  1.00  0.00     0.155 C 
HETATM    4  O4  UNL     1      27.396   7.279  47.397  1.00  0.00    -0.322 OA
HETATM    5  C8  UNL     1      27.777   6.175  48.178  1.00  0.00     0.075 C 
HETATM    6  C17 UNL     1      29.056   5.853  48.280  1.00  0.00     0.055 C 
ENDROOT
BRANCH   1   7
HETATM    7  C1  UNL     1      31.388   6.155  47.307  1.00  0.00     0.252 C 
HETATM    8  O1  UNL     1      31.866   6.389  46.167  1.00  0.00    -0.268 OA
HETATM    9  N1  UNL     1      32.050   5.440  48.356  1.00  0.00    -0.354 N 
HETATM   10  H1  UNL     1      31.566   5.298  49.271  1.00  0.00     0.162 HD
BRANCH   9  11
HETATM   11  C2  UNL     1      33.382   4.925  48.127  1.00  0.00     0.156 C 
BRANCH  11  12
HETATM   12  C3  UNL     1      34.401   5.625  49.003  1.00  0.00     0.159 C 
BRANCH  12  13
HETATM   13  O2  UNL     1      35.401   4.692  49.353  1.00  0.00    -0.392 OA
HETATM   14  H5  UNL     1      35.033   3.890  49.761  1.00  0.00     0.210 HD
ENDBRANCH  12  13
BRANCH  12  15
HETATM   15  C4  UNL     1      35.097   6.728  48.253  1.00  0.00     0.197 C 
BRANCH  15  16
HETATM   16  O3  UNL     1      34.767   6.604  46.906  1.00  0.00    -0.398 OA
HETATM   17  H8  UNL     1      35.275   5.920  46.421  1.00  0.00     0.209 HD
ENDBRANCH  15  16
ENDBRANCH  12  15
ENDBRANCH  11  12
ENDBRANCH   9  11
ENDBRANCH   1   7
BRANCH   5  18
HETATM   18  C9  UNL     1      26.745   5.412  48.857  1.00  0.00     0.038 C 
HETATM   19  C10 UNL     1      26.959   4.195  49.327  1.00  0.00     0.014 C 
BRANCH  19  20
HETATM   20  C11 UNL     1      25.991   3.359  50.018  1.00  0.00    -0.036 A 
HETATM   21  C12 UNL     1      24.647   3.367  49.708  1.00  0.00     0.013 A 
HETATM   22  C13 UNL     1      23.751   2.563  50.382  1.00  0.00     0.024 A 
HETATM   23  C14 UNL     1      24.146   1.714  51.394  1.00  0.00     0.034 A 
HETATM   24 CL1  UNL     1      22.989   0.704  52.232  1.00  0.00    -0.084 Cl
HETATM   25  C15 UNL     1      25.484   1.687  51.722  1.00  0.00     0.024 A 
HETATM   26  C16 UNL     1      26.366   2.505  51.030  1.00  0.00     0.013 A 
ENDBRANCH  19  20
ENDBRANCH   5  18
TORSDOF 8
ENDMDL
