MODEL 1
REMARK VINA RESULT:      -7.8      0.000      0.000
REMARK  3 active torsions:
REMARK  status: ('A' for Active; 'I' for Inactive)
REMARK    1  A    between atoms: O1_2  and  C2_3 
REMARK    2  A    between atoms: C7_8  and  O2_9 
REMARK    3  A    between atoms: N3_13  and  C9_14 
ROOT
HETATM    1  C2  UNL     1      20.953   0.226  52.343  1.00  0.00     0.102 A 
HETATM    2  C3  UNL     1      22.337   0.334  52.262  1.00  0.00     0.055 A 
HETATM    3  C4  UNL     1      23.169  -0.179  53.237  1.00  0.00     0.015 A 
HETATM    4  C5  UNL     1      22.612  -0.826  54.338  1.00  0.00     0.093 A 
HETATM    5  C6  UNL     1      21.240  -0.938  54.427  1.00  0.00     0.074 A 
HETATM    6  C7  UNL     1      20.426  -0.418  53.441  1.00  0.00     0.103 A 
HETATM    7  N1  UNL     1      23.367  -1.316  55.263  1.00  0.00    -0.158 NA
HETATM    8  N2  UNL     1      24.760  -1.215  55.196  1.00  0.00    -0.213 N 
HETATM    9  N3  UNL     1      25.389  -0.581  54.123  1.00  0.00    -0.251 N 
HETATM   10  C15 UNL     1      24.491  -0.074  53.157  1.00  0.00     0.132 A 
HETATM   11  H9  UNL     1      25.296  -1.633  55.979  1.00  0.00     0.211 HD
ENDROOT
BRANCH   9  12
HETATM   12  C9  UNL     1      26.791  -0.460  54.023  1.00  0.00     0.057 A 
HETATM   13  C10 UNL     1      27.556  -1.319  53.287  1.00  0.00     0.031 A 
HETATM   14  C11 UNL     1      28.945  -1.228  53.165  1.00  0.00     0.002 A 
HETATM   15  C12 UNL     1      29.607  -0.212  53.821  1.00  0.00     0.000 A 
HETATM   16  C13 UNL     1      28.867   0.665  54.567  1.00  0.00     0.002 A 
HETATM   17  C14 UNL     1      27.491   0.529  54.654  1.00  0.00     0.031 A 
ENDBRANCH   9  12
BRANCH   1  18
HETATM   18  O1  UNL     1      20.109   0.741  51.366  1.00  0.00    -0.353 OA
HETATM   19  C1  UNL     1      20.616   0.980  50.070  1.00  0.00     0.210 C 
ENDBRANCH   1  18
BRANCH   6  20
HETATM   20  O2  UNL     1      19.028  -0.540  53.548  1.00  0.00    -0.353 OA
HETATM   21  C8  UNL     1      18.430  -1.820  53.449  1.00  0.00     0.210 C 
ENDBRANCH   6  20
TORSDOF 3
ENDMDL
MODEL 2
REMARK VINA RESULT:      -7.5      3.290      7.025
REMARK  3 active torsions:
REMARK  status: ('A' for Active; 'I' for Inactive)
REMARK    1  A    between atoms: O1_2  and  C2_3 
REMARK    2  A    between atoms: C7_8  and  O2_9 
REMARK    3  A    between atoms: N3_13  and  C9_14 
ROOT
HETATM    1  C2  UNL     1      26.377   2.319  51.555  1.00  0.00     0.102 A 
HETATM    2  C3  UNL     1      25.017   2.096  51.369  1.00  0.00     0.055 A 
HETATM    3  C4  UNL     1      24.302   1.226  52.168  1.00  0.00     0.015 A 
HETATM    4  C5  UNL     1      24.956   0.548  53.194  1.00  0.00     0.093 A 
HETATM    5  C6  UNL     1      26.305   0.762  53.386  1.00  0.00     0.074 A 
HETATM    6  C7  UNL     1      27.002   1.636  52.576  1.00  0.00     0.103 A 
HETATM    7  N1  UNL     1      24.311  -0.270  53.955  1.00  0.00    -0.158 NA
HETATM    8  N2  UNL     1      22.944  -0.505  53.781  1.00  0.00    -0.213 N 
HETATM    9  N3  UNL     1      22.222   0.139  52.775  1.00  0.00    -0.251 N 
HETATM   10  C15 UNL     1      23.002   1.016  51.988  1.00  0.00     0.132 A 
HETATM   11  H9  UNL     1      22.499  -1.177  54.434  1.00  0.00     0.211 HD
ENDROOT
BRANCH   9  12
HETATM   12  C9  UNL     1      20.842  -0.073  52.569  1.00  0.00     0.057 A 
HETATM   13  C10 UNL     1      20.057  -0.741  53.463  1.00  0.00     0.031 A 
HETATM   14  C11 UNL     1      18.688  -0.967  53.291  1.00  0.00     0.002 A 
HETATM   15  C12 UNL     1      18.072  -0.495  52.152  1.00  0.00     0.000 A 
HETATM   16  C13 UNL     1      18.834   0.178  51.237  1.00  0.00     0.002 A 
HETATM   17  C14 UNL     1      20.187   0.376  51.457  1.00  0.00     0.031 A 
ENDBRANCH   9  12
BRANCH   1  18
HETATM   18  O1  UNL     1      27.103   3.193  50.755  1.00  0.00    -0.353 OA
HETATM   19  C1  UNL     1      26.479   3.785  49.634  1.00  0.00     0.210 C 
ENDBRANCH   1  18
BRANCH   6  20
HETATM   20  O2  UNL     1      28.378   1.842  52.785  1.00  0.00    -0.353 OA
HETATM   21  C8  UNL     1      29.058   1.074  53.761  1.00  0.00     0.210 C 
ENDBRANCH   6  20
TORSDOF 3
ENDMDL
MODEL 3
REMARK VINA RESULT:      -7.4      2.066      3.082
REMARK  3 active torsions:
REMARK  status: ('A' for Active; 'I' for Inactive)
REMARK    1  A    between atoms: O1_2  and  C2_3 
REMARK    2  A    between atoms: C7_8  and  O2_9 
REMARK    3  A    between atoms: N3_13  and  C9_14 
ROOT
HETATM    1  C2  UNL     1      21.009   1.144  52.898  1.00  0.00     0.102 A 
HETATM    2  C3  UNL     1      22.241   0.532  53.096  1.00  0.00     0.055 A 
HETATM    3  C4  UNL     1      23.432   1.207  52.917  1.00  0.00     0.015 A 
HETATM    4  C5  UNL     1      23.405   2.544  52.526  1.00  0.00     0.093 A 
HETATM    5  C6  UNL     1      22.187   3.161  52.328  1.00  0.00     0.074 A 
HETATM    6  C7  UNL     1      21.008   2.467  52.512  1.00  0.00     0.103 A 
HETATM    7  N1  UNL     1      24.503   3.199  52.353  1.00  0.00    -0.158 NA
HETATM    8  N2  UNL     1      25.749   2.597  52.548  1.00  0.00    -0.213 N 
HETATM    9  N3  UNL     1      25.854   1.261  52.939  1.00  0.00    -0.251 N 
HETATM   10  C15 UNL     1      24.607   0.619  53.107  1.00  0.00     0.132 A 
HETATM   11  H9  UNL     1      26.585   3.191  52.387  1.00  0.00     0.211 HD
ENDROOT
BRANCH   9  12
HETATM   12  C9  UNL     1      27.095   0.620  53.145  1.00  0.00     0.057 A 
HETATM   13  C10 UNL     1      27.272  -0.721  52.962  1.00  0.00     0.031 A 
HETATM   14  C11 UNL     1      28.486  -1.386  53.155  1.00  0.00     0.002 A 
HETATM   15  C12 UNL     1      29.588  -0.662  53.556  1.00  0.00     0.000 A 
HETATM   16  C13 UNL     1      29.441   0.685  53.747  1.00  0.00     0.002 A 
HETATM   17  C14 UNL     1      28.215   1.296  53.541  1.00  0.00     0.031 A 
ENDBRANCH   9  12
BRANCH   1  18
HETATM   18  O1  UNL     1      19.806   0.471  53.076  1.00  0.00    -0.353 OA
HETATM   19  C1  UNL     1      19.822  -0.857  53.558  1.00  0.00     0.210 C 
ENDBRANCH   1  18
BRANCH   6  20
HETATM   20  O2  UNL     1      19.775   3.111  52.304  1.00  0.00    -0.353 OA
HETATM   21  C8  UNL     1      19.601   3.938  51.167  1.00  0.00     0.210 C 
ENDBRANCH   6  20
TORSDOF 3
ENDMDL
MODEL 4
REMARK VINA RESULT:      -7.3      5.424      6.392
REMARK  3 active torsions:
REMARK  status: ('A' for Active; 'I' for Inactive)
REMARK    1  A    between atoms: O1_2  and  C2_3 
REMARK    2  A    between atoms: C7_8  and  O2_9 
REMARK    3  A    between atoms: N3_13  and  C9_14 
ROOT
HETATM    1  C2  UNL     1      25.862  -0.073  52.849  1.00  0.00     0.102 A 
HETATM    2  C3  UNL     1      26.504   0.881  52.069  1.00  0.00     0.055 A 
HETATM    3  C4  UNL     1      25.823   1.933  51.489  1.00  0.00     0.015 A 
HETATM    4  C5  UNL     1      24.449   2.047  51.688  1.00  0.00     0.093 A 
HETATM    5  C6  UNL     1      23.802   1.105  52.460  1.00  0.00     0.074 A 
HETATM    6  C7  UNL     1      24.502   0.061  53.031  1.00  0.00     0.103 A 
HETATM    7  N1  UNL     1      23.788   3.020  51.158  1.00  0.00    -0.158 NA
HETATM    8  N2  UNL     1      24.420   3.987  50.371  1.00  0.00    -0.213 N 
HETATM    9  N3  UNL     1      25.794   3.938  50.129  1.00  0.00    -0.251 N 
HETATM   10  C15 UNL     1      26.441   2.843  50.744  1.00  0.00     0.132 A 
HETATM   11  H9  UNL     1      23.819   4.738  49.981  1.00  0.00     0.211 HD
ENDROOT
BRANCH   9  12
HETATM   12  C9  UNL     1      26.466   4.896  49.340  1.00  0.00     0.057 A 
HETATM   13  C10 UNL     1      27.746   4.723  48.900  1.00  0.00     0.031 A 
HETATM   14  C11 UNL     1      28.440   5.650  48.117  1.00  0.00     0.002 A 
HETATM   15  C12 UNL     1      27.810   6.822  47.754  1.00  0.00     0.000 A 
HETATM   16  C13 UNL     1      26.526   7.023  48.181  1.00  0.00     0.002 A 
HETATM   17  C14 UNL     1      25.883   6.071  48.955  1.00  0.00     0.031 A 
ENDBRANCH   9  12
BRANCH   1  18
HETATM   18  O1  UNL     1      26.541  -1.135  53.435  1.00  0.00    -0.353 OA
HETATM   19  C1  UNL     1      27.103  -2.135  52.612  1.00  0.00     0.210 C 
ENDBRANCH   1  18
BRANCH   6  20
HETATM   20  O2  UNL     1      23.826  -0.892  53.815  1.00  0.00    -0.353 OA
HETATM   21  C8  UNL     1      22.414  -0.844  53.909  1.00  0.00     0.210 C 
ENDBRANCH   6  20
TORSDOF 3
ENDMDL
MODEL 5
REMARK VINA RESULT:      -7.2      3.362      7.380
REMARK  3 active torsions:
REMARK  status: ('A' for Active; 'I' for Inactive)
REMARK    1  A    between atoms: O1_2  and  C2_3 
REMARK    2  A    between atoms: C7_8  and  O2_9 
REMARK    3  A    between atoms: N3_13  and  C9_14 
ROOT
HETATM    1  C2  UNL     1      27.255  -0.288  53.538  1.00  0.00     0.102 A 
HETATM    2  C3  UNL     1      25.916  -0.666  53.515  1.00  0.00     0.055 A 
HETATM    3  C4  UNL     1      24.928   0.170  53.036  1.00  0.00     0.015 A 
HETATM    4  C5  UNL     1      25.275   1.432  52.559  1.00  0.00     0.093 A 
HETATM    5  C6  UNL     1      26.599   1.816  52.578  1.00  0.00     0.074 A 
HETATM    6  C7  UNL     1      27.572   0.965  53.062  1.00  0.00     0.103 A 
HETATM    7  N1  UNL     1      24.371   2.233  52.104  1.00  0.00    -0.158 NA
HETATM    8  N2  UNL     1      23.022   1.867  52.075  1.00  0.00    -0.213 N 
HETATM    9  N3  UNL     1      22.600   0.619  52.535  1.00  0.00    -0.251 N 
HETATM   10  C15 UNL     1      23.651  -0.195  53.015  1.00  0.00     0.132 A 
HETATM   11  H9  UNL     1      22.357   2.567  51.695  1.00  0.00     0.211 HD
ENDROOT
BRANCH   9  12
HETATM   12  C9  UNL     1      21.247   0.216  52.521  1.00  0.00     0.057 A 
HETATM   13  C10 UNL     1      20.401   0.506  51.489  1.00  0.00     0.031 A 
HETATM   14  C11 UNL     1      19.059   0.122  51.443  1.00  0.00     0.002 A 
HETATM   15  C12 UNL     1      18.533  -0.597  52.495  1.00  0.00     0.000 A 
HETATM   16  C13 UNL     1      19.357  -0.902  53.544  1.00  0.00     0.002 A 
HETATM   17  C14 UNL     1      20.682  -0.497  53.540  1.00  0.00     0.031 A 
ENDBRANCH   9  12
BRANCH   1  18
HETATM   18  O1  UNL     1      28.255  -1.124  54.020  1.00  0.00    -0.353 OA
HETATM   19  C1  UNL     1      28.865  -2.049  53.145  1.00  0.00     0.210 C 
ENDBRANCH   1  18
BRANCH   6  20
HETATM   20  O2  UNL     1      28.919   1.373  53.075  1.00  0.00    -0.353 OA
HETATM   21  C8  UNL     1      29.398   2.164  54.148  1.00  0.00     0.210 C 
ENDBRANCH   6  20
TORSDOF 3
ENDMDL
MODEL 6
REMARK VINA RESULT:      -7.1      4.449      7.354
REMARK  3 active torsions:
REMARK  status: ('A' for Active; 'I' for Inactive)
REMARK    1  A    between atoms: O1_2  and  C2_3 
REMARK    2  A    between atoms: C7_8  and  O2_9 
REMARK    3  A    between atoms: N3_13  and  C9_14 
ROOT
HETATM    1  C2  UNL     1      26.137   0.032  54.235  1.00  0.00     0.102 A 
HETATM    2  C3  UNL     1      25.213   0.866  53.614  1.00  0.00     0.055 A 
HETATM    3  C4  UNL     1      25.587   1.791  52.660  1.00  0.00     0.015 A 
HETATM    4  C5  UNL     1      26.929   1.899  52.304  1.00  0.00     0.093 A 
HETATM    5  C6  UNL     1      27.854   1.078  52.915  1.00  0.00     0.074 A 
HETATM    6  C7  UNL     1      27.459   0.159  53.866  1.00  0.00     0.103 A 
HETATM    7  N1  UNL     1      27.305   2.756  51.415  1.00  0.00    -0.158 NA
HETATM    8  N2  UNL     1      26.388   3.600  50.782  1.00  0.00    -0.213 N 
HETATM    9  N3  UNL     1      25.027   3.548  51.087  1.00  0.00    -0.251 N 
HETATM   10  C15 UNL     1      24.701   2.585  52.069  1.00  0.00     0.132 A 
HETATM   11  H9  UNL     1      26.770   4.261  50.079  1.00  0.00     0.211 HD
ENDROOT
BRANCH   9  12
HETATM   12  C9  UNL     1      24.073   4.384  50.469  1.00  0.00     0.057 A 
HETATM   13  C10 UNL     1      23.971   4.513  49.114  1.00  0.00     0.031 A 
HETATM   14  C11 UNL     1      23.038   5.330  48.470  1.00  0.00     0.002 A 
HETATM   15  C12 UNL     1      22.154   6.063  49.233  1.00  0.00     0.000 A 
HETATM   16  C13 UNL     1      22.232   5.955  50.595  1.00  0.00     0.002 A 
HETATM   17  C14 UNL     1      23.176   5.129  51.183  1.00  0.00     0.031 A 
ENDBRANCH   9  12
BRANCH   1  18
HETATM   18  O1  UNL     1      25.769  -0.901  55.196  1.00  0.00    -0.353 OA
HETATM   19  C1  UNL     1      24.401  -1.204  55.378  1.00  0.00     0.210 C 
ENDBRANCH   1  18
BRANCH   6  20
HETATM   20  O2  UNL     1      28.416  -0.671  54.480  1.00  0.00    -0.353 OA
HETATM   21  C8  UNL     1      29.559  -1.077  53.749  1.00  0.00     0.210 C 
ENDBRANCH   6  20
TORSDOF 3
ENDMDL
MODEL 7
REMARK VINA RESULT:      -7.0      3.375      7.418
REMARK  3 active torsions:
REMARK  status: ('A' for Active; 'I' for Inactive)
REMARK    1  A    between atoms: O1_2  and  C2_3 
REMARK    2  A    between atoms: C7_8  and  O2_9 
REMARK    3  A    between atoms: N3_13  and  C9_14 
ROOT
HETATM    1  C2  UNL     1      25.993   0.020  53.683  1.00  0.00     0.102 A 
HETATM    2  C3  UNL     1      24.731  -0.339  53.225  1.00  0.00     0.055 A 
HETATM    3  C4  UNL     1      23.771   0.602  52.910  1.00  0.00     0.015 A 
HETATM    4  C5  UNL     1      24.070   1.955  53.055  1.00  0.00     0.093 A 
HETATM    5  C6  UNL     1      25.319   2.321  53.510  1.00  0.00     0.074 A 
HETATM    6  C7  UNL     1      26.265   1.364  53.819  1.00  0.00     0.103 A 
HETATM    7  N1  UNL     1      23.191   2.855  52.768  1.00  0.00    -0.158 NA
HETATM    8  N2  UNL     1      21.918   2.509  52.305  1.00  0.00    -0.213 N 
HETATM    9  N3  UNL     1      21.547   1.174  52.135  1.00  0.00    -0.251 N 
HETATM   10  C15 UNL     1      22.566   0.255  52.472  1.00  0.00     0.132 A 
HETATM   11  H9  UNL     1      21.269   3.292  52.097  1.00  0.00     0.211 HD
ENDROOT
BRANCH   9  12
HETATM   12  C9  UNL     1      20.272   0.788  51.671  1.00  0.00     0.057 A 
HETATM   13  C10 UNL     1      19.441  -0.025  52.387  1.00  0.00     0.031 A 
HETATM   14  C11 UNL     1      18.172  -0.425  51.958  1.00  0.00     0.002 A 
HETATM   15  C12 UNL     1      17.710   0.018  50.737  1.00  0.00     0.000 A 
HETATM   16  C13 UNL     1      18.521   0.834  49.997  1.00  0.00     0.002 A 
HETATM   17  C14 UNL     1      19.770   1.202  50.469  1.00  0.00     0.031 A 
ENDBRANCH   9  12
BRANCH   1  18
HETATM   18  O1  UNL     1      26.964  -0.922  54.002  1.00  0.00    -0.353 OA
HETATM   19  C1  UNL     1      27.424  -1.807  53.003  1.00  0.00     0.210 C 
ENDBRANCH   1  18
BRANCH   6  20
HETATM   20  O2  UNL     1      27.534   1.755  54.282  1.00  0.00    -0.353 OA
HETATM   21  C8  UNL     1      28.429   2.408  53.400  1.00  0.00     0.210 C 
ENDBRANCH   6  20
TORSDOF 3
ENDMDL
MODEL 8
REMARK VINA RESULT:      -6.8      4.653      6.961
REMARK  3 active torsions:
REMARK  status: ('A' for Active; 'I' for Inactive)
REMARK    1  A    between atoms: O1_2  and  C2_3 
REMARK    2  A    between atoms: C7_8  and  O2_9 
REMARK    3  A    between atoms: N3_13  and  C9_14 
ROOT
HETATM    1  C2  UNL     1      24.834   5.077  49.281  1.00  0.00     0.102 A 
HETATM    2  C3  UNL     1      24.018   4.258  50.053  1.00  0.00     0.055 A 
HETATM    3  C4  UNL     1      24.514   3.169  50.741  1.00  0.00     0.015 A 
HETATM    4  C5  UNL     1      25.874   2.876  50.663  1.00  0.00     0.093 A 
HETATM    5  C6  UNL     1      26.692   3.682  49.900  1.00  0.00     0.074 A 
HETATM    6  C7  UNL     1      26.175   4.766  49.219  1.00  0.00     0.103 A 
HETATM    7  N1  UNL     1      26.364   1.864  51.297  1.00  0.00    -0.158 NA
HETATM    8  N2  UNL     1      25.556   1.031  52.077  1.00  0.00    -0.213 N 
HETATM    9  N3  UNL     1      24.186   1.264  52.202  1.00  0.00    -0.251 N 
HETATM   10  C15 UNL     1      23.731   2.389  51.478  1.00  0.00     0.132 A 
HETATM   11  H9  UNL     1      26.026   0.239  52.554  1.00  0.00     0.211 HD
ENDROOT
BRANCH   9  12
HETATM   12  C9  UNL     1      23.340   0.445  52.980  1.00  0.00     0.057 A 
HETATM   13  C10 UNL     1      21.987   0.400  52.801  1.00  0.00     0.031 A 
HETATM   14  C11 UNL     1      21.121  -0.399  53.552  1.00  0.00     0.002 A 
HETATM   15  C12 UNL     1      21.645  -1.203  54.543  1.00  0.00     0.000 A 
HETATM   16  C13 UNL     1      22.998  -1.179  54.746  1.00  0.00     0.002 A 
HETATM   17  C14 UNL     1      23.812  -0.368  53.972  1.00  0.00     0.031 A 
ENDBRANCH   9  12
BRANCH   1  18
HETATM   18  O1  UNL     1      24.342   6.175  48.585  1.00  0.00    -0.353 OA
HETATM   19  C1  UNL     1      23.209   6.017  47.757  1.00  0.00     0.210 C 
ENDBRANCH   1  18
BRANCH   6  20
HETATM   20  O2  UNL     1      27.024   5.578  48.444  1.00  0.00    -0.353 OA
HETATM   21  C8  UNL     1      28.410   5.290  48.392  1.00  0.00     0.210 C 
ENDBRANCH   6  20
TORSDOF 3
ENDMDL
MODEL 9
REMARK VINA RESULT:      -6.8      4.969      6.625
REMARK  3 active torsions:
REMARK  status: ('A' for Active; 'I' for Inactive)
REMARK    1  A    between atoms: O1_2  and  C2_3 
REMARK    2  A    between atoms: C7_8  and  O2_9 
REMARK    3  A    between atoms: N3_13  and  C9_14 
ROOT
HETATM    1  C2  UNL     1      23.957   0.321  52.978  1.00  0.00     0.102 A 
HETATM    2  C3  UNL     1      23.754   1.398  52.121  1.00  0.00     0.055 A 
HETATM    3  C4  UNL     1      24.803   2.149  51.629  1.00  0.00     0.015 A 
HETATM    4  C5  UNL     1      26.106   1.825  51.999  1.00  0.00     0.093 A 
HETATM    5  C6  UNL     1      26.317   0.760  52.848  1.00  0.00     0.074 A 
HETATM    6  C7  UNL     1      25.255   0.021  53.329  1.00  0.00     0.103 A 
HETATM    7  N1  UNL     1      27.104   2.511  51.553  1.00  0.00    -0.158 NA
HETATM    8  N2  UNL     1      26.916   3.595  50.690  1.00  0.00    -0.213 N 
HETATM    9  N3  UNL     1      25.639   3.978  50.277  1.00  0.00    -0.251 N 
HETATM   10  C15 UNL     1      24.605   3.176  50.810  1.00  0.00     0.132 A 
HETATM   11  H9  UNL     1      27.770   4.095  50.377  1.00  0.00     0.211 HD
ENDROOT
BRANCH   9  12
HETATM   12  C9  UNL     1      25.412   5.067  49.408  1.00  0.00     0.057 A 
HETATM   13  C10 UNL     1      24.168   5.402  48.955  1.00  0.00     0.031 A 
HETATM   14  C11 UNL     1      23.908   6.473  48.096  1.00  0.00     0.002 A 
HETATM   15  C12 UNL     1      24.959   7.255  47.666  1.00  0.00     0.000 A 
HETATM   16  C13 UNL     1      26.217   6.943  48.103  1.00  0.00     0.002 A 
HETATM   17  C14 UNL     1      26.421   5.870  48.955  1.00  0.00     0.031 A 
ENDBRANCH   9  12
BRANCH   1  18
HETATM   18  O1  UNL     1      22.907  -0.439  53.477  1.00  0.00    -0.353 OA
HETATM   19  C1  UNL     1      21.733   0.209  53.921  1.00  0.00     0.210 C 
ENDBRANCH   1  18
BRANCH   6  20
HETATM   20  O2  UNL     1      25.489  -1.062  54.196  1.00  0.00    -0.353 OA
HETATM   21  C8  UNL     1      25.474  -0.852  55.597  1.00  0.00     0.210 C 
ENDBRANCH   6  20
TORSDOF 3
ENDMDL
