MODEL 1
REMARK VINA RESULT:      -7.9      0.000      0.000
REMARK  11 active torsions:
REMARK  status: ('A' for Active; 'I' for Inactive)
REMARK    1  A    between atoms: C2_2  and  C3_3 
REMARK    2  A    between atoms: C2_2  and  O3_8 
REMARK    3  A    between atoms: C3_3  and  O1_4 
REMARK    4  A    between atoms: O1_4  and  C4_5 
REMARK    5  A    between atoms: C4_5  and  C5_6 
REMARK    6  A    between atoms: C5_6  and  O2_7 
REMARK    7  A    between atoms: O3_8  and  C6_9 
REMARK    8  A    between atoms: C10_13  and  N5_28 
REMARK    9  A    between atoms: C11_15  and  N5_28 
REMARK   10  A    between atoms: C12_17  and  N3_18 
REMARK   11  A    between atoms: N3_18  and  C13_19 
ROOT
HETATM    1  C13 UNL     1      23.268   1.248  51.697  1.00  0.00     0.031 A 
HETATM    2  C14 UNL     1      22.160   0.610  52.238  1.00  0.00     0.032 A 
HETATM    3  C15 UNL     1      22.223  -0.202  53.343  1.00  0.00     0.046 A 
HETATM    4  C16 UNL     1      23.452  -0.381  53.923  1.00  0.00     0.137 A 
HETATM    5  F1  UNL     1      23.478  -1.202  55.018  1.00  0.00    -0.204 F 
HETATM    6  C17 UNL     1      24.617   0.193  53.473  1.00  0.00     0.085 A 
HETATM    7  C18 UNL     1      25.897  -0.051  54.133  1.00  0.00     0.102 C 
HETATM    8  N4  UNL     1      26.937  -0.242  54.655  1.00  0.00    -0.191 NA
HETATM    9  C19 UNL     1      24.487   1.016  52.340  1.00  0.00     0.055 A 
ENDROOT
BRANCH   1  10
HETATM   10  N3  UNL     1      23.561   2.108  50.652  1.00  0.00    -0.358 N 
HETATM   11  H13 UNL     1      23.617   1.939  49.617  1.00  0.00     0.162 HD
BRANCH  10  12
HETATM   12  C12 UNL     1      23.875   3.563  50.824  1.00  0.00     0.182 A 
HETATM   13  C9  UNL     1      24.756   4.464  50.246  1.00  0.00     0.088 A 
HETATM   14  C8  UNL     1      26.017   4.269  49.618  1.00  0.00     0.044 A 
HETATM   15  C10 UNL     1      25.517   5.417  49.715  1.00  0.00     0.116 A 
HETATM   16  N5  UNL     1      25.156   4.404  50.469  1.00  0.00     0.000 N 
HETATM   17  C11 UNL     1      24.522   5.596  50.686  1.00  0.00     0.127 A 
HETATM   18  C7  UNL     1      27.220   4.092  49.017  1.00  0.00     0.045 A 
HETATM   19  C6  UNL     1      27.512   5.352  48.674  1.00  0.00     0.157 A 
HETATM   20  N1  UNL     1      26.444   6.163  49.125  1.00  0.00    -0.251 NA
HETATM   21  N2  UNL     1      23.598   4.938  51.442  1.00  0.00    -0.275 NA
BRANCH  19  22
HETATM   22  O3  UNL     1      28.168   6.313  48.172  1.00  0.00    -0.328 OA
BRANCH  22  23
HETATM   23  C2  UNL     1      29.306   6.737  47.693  1.00  0.00     0.150 C 
HETATM   24  C1  UNL     1      30.389   5.637  47.747  1.00  0.00     0.042 C 
BRANCH  23  25
HETATM   25  C3  UNL     1      29.921   7.856  48.630  1.00  0.00     0.199 C 
BRANCH  25  26
HETATM   26  O1  UNL     1      29.363   9.039  48.240  1.00  0.00    -0.387 OA
BRANCH  26  27
HETATM   27  C4  UNL     1      28.910   9.903  49.178  1.00  0.00     0.193 C 
BRANCH  27  28
HETATM   28  C5  UNL     1      27.612   9.571  49.849  1.00  0.00     0.190 C 
BRANCH  28  29
HETATM   29  O2  UNL     1      27.679   9.501  51.239  1.00  0.00    -0.399 OA
HETATM   30  H11 UNL     1      27.490   8.587  51.576  1.00  0.00     0.209 HD
ENDBRANCH  28  29
ENDBRANCH  27  28
ENDBRANCH  26  27
ENDBRANCH  25  26
ENDBRANCH  23  25
ENDBRANCH  22  23
ENDBRANCH  19  22
ENDBRANCH  10  12
ENDBRANCH   1  10
TORSDOF 11
ENDMDL
MODEL 2
REMARK VINA RESULT:      -7.8      7.099      9.684
REMARK  11 active torsions:
REMARK  status: ('A' for Active; 'I' for Inactive)
REMARK    1  A    between atoms: C2_2  and  C3_3 
REMARK    2  A    between atoms: C2_2  and  O3_8 
REMARK    3  A    between atoms: C3_3  and  O1_4 
REMARK    4  A    between atoms: O1_4  and  C4_5 
REMARK    5  A    between atoms: C4_5  and  C5_6 
REMARK    6  A    between atoms: C5_6  and  O2_7 
REMARK    7  A    between atoms: O3_8  and  C6_9 
REMARK    8  A    between atoms: C10_13  and  N5_28 
REMARK    9  A    between atoms: C11_15  and  N5_28 
REMARK   10  A    between atoms: C12_17  and  N3_18 
REMARK   11  A    between atoms: N3_18  and  C13_19 
ROOT
HETATM    1  C13 UNL     1      25.907  -0.347  53.173  1.00  0.00     0.031 A 
HETATM    2  C14 UNL     1      26.523  -1.515  52.747  1.00  0.00     0.032 A 
HETATM    3  C15 UNL     1      27.870  -1.748  52.874  1.00  0.00     0.046 A 
HETATM    4  C16 UNL     1      28.626  -0.761  53.453  1.00  0.00     0.137 A 
HETATM    5  F1  UNL     1      29.965  -1.025  53.558  1.00  0.00    -0.204 F 
HETATM    6  C17 UNL     1      28.129   0.437  53.907  1.00  0.00     0.085 A 
HETATM    7  C18 UNL     1      28.995   1.451  54.503  1.00  0.00     0.102 C 
HETATM    8  N4  UNL     1      29.684   2.278  54.984  1.00  0.00    -0.191 NA
HETATM    9  C19 UNL     1      26.743   0.614  53.751  1.00  0.00     0.055 A 
ENDROOT
BRANCH   1  10
HETATM   10  N3  UNL     1      24.635   0.198  53.217  1.00  0.00    -0.358 N 
HETATM   11  H13 UNL     1      24.244   1.070  52.781  1.00  0.00     0.162 HD
BRANCH  10  12
HETATM   12  C12 UNL     1      23.483  -0.413  53.956  1.00  0.00     0.182 A 
HETATM   13  C9  UNL     1      22.118  -0.528  53.748  1.00  0.00     0.088 A 
HETATM   14  C8  UNL     1      21.211   0.287  53.015  1.00  0.00     0.044 A 
HETATM   15  C10 UNL     1      20.812  -0.744  53.611  1.00  0.00     0.116 A 
HETATM   16  N5  UNL     1      21.938  -0.131  53.900  1.00  0.00     0.000 N 
HETATM   17  C11 UNL     1      21.633  -1.244  54.632  1.00  0.00     0.127 A 
HETATM   18  C7  UNL     1      20.339   1.058  52.317  1.00  0.00     0.045 A 
HETATM   19  C6  UNL     1      19.202   0.379  52.510  1.00  0.00     0.157 A 
HETATM   20  N1  UNL     1      19.515  -0.734  53.325  1.00  0.00    -0.251 NA
HETATM   21  N2  UNL     1      22.911  -1.251  55.105  1.00  0.00    -0.275 NA
BRANCH  19  22
HETATM   22  O3  UNL     1      17.972   0.093  52.409  1.00  0.00    -0.328 OA
BRANCH  22  23
HETATM   23  C2  UNL     1      17.028  -0.474  51.708  1.00  0.00     0.150 C 
HETATM   24  C1  UNL     1      17.150  -0.126  50.207  1.00  0.00     0.042 C 
BRANCH  23  25
HETATM   25  C3  UNL     1      15.615   0.139  52.078  1.00  0.00     0.199 C 
BRANCH  25  26
HETATM   26  O1  UNL     1      15.754   1.496  52.017  1.00  0.00    -0.387 OA
BRANCH  26  27
HETATM   27  C4  UNL     1      14.903   2.284  52.716  1.00  0.00     0.193 C 
BRANCH  27  28
HETATM   28  C5  UNL     1      15.123   3.765  52.646  1.00  0.00     0.190 C 
BRANCH  28  29
HETATM   29  O2  UNL     1      15.321   4.381  53.880  1.00  0.00    -0.399 OA
HETATM   30  H11 UNL     1      15.532   5.345  53.786  1.00  0.00     0.209 HD
ENDBRANCH  28  29
ENDBRANCH  27  28
ENDBRANCH  26  27
ENDBRANCH  25  26
ENDBRANCH  23  25
ENDBRANCH  22  23
ENDBRANCH  19  22
ENDBRANCH  10  12
ENDBRANCH   1  10
TORSDOF 11
ENDMDL
MODEL 3
REMARK VINA RESULT:      -7.8      6.251      8.841
REMARK  11 active torsions:
REMARK  status: ('A' for Active; 'I' for Inactive)
REMARK    1  A    between atoms: C2_2  and  C3_3 
REMARK    2  A    between atoms: C2_2  and  O3_8 
REMARK    3  A    between atoms: C3_3  and  O1_4 
REMARK    4  A    between atoms: O1_4  and  C4_5 
REMARK    5  A    between atoms: C4_5  and  C5_6 
REMARK    6  A    between atoms: C5_6  and  O2_7 
REMARK    7  A    between atoms: O3_8  and  C6_9 
REMARK    8  A    between atoms: C10_13  and  N5_28 
REMARK    9  A    between atoms: C11_15  and  N5_28 
REMARK   10  A    between atoms: C12_17  and  N3_18 
REMARK   11  A    between atoms: N3_18  and  C13_19 
ROOT
HETATM    1  C13 UNL     1      25.277   0.161  53.485  1.00  0.00     0.031 A 
HETATM    2  C14 UNL     1      25.274   1.549  53.442  1.00  0.00     0.032 A 
HETATM    3  C15 UNL     1      26.418   2.307  53.454  1.00  0.00     0.046 A 
HETATM    4  C16 UNL     1      27.614   1.639  53.515  1.00  0.00     0.137 A 
HETATM    5  F1  UNL     1      28.733   2.426  53.531  1.00  0.00    -0.204 F 
HETATM    6  C17 UNL     1      27.741   0.271  53.568  1.00  0.00     0.085 A 
HETATM    7  C18 UNL     1      29.048  -0.375  53.644  1.00  0.00     0.102 C 
HETATM    8  N4  UNL     1      30.098  -0.909  53.708  1.00  0.00    -0.191 NA
HETATM    9  C19 UNL     1      26.533  -0.449  53.550  1.00  0.00     0.055 A 
ENDROOT
BRANCH   1  10
HETATM   10  N3  UNL     1      24.363  -0.879  53.476  1.00  0.00    -0.358 N 
HETATM   11  H13 UNL     1      24.444  -1.863  53.119  1.00  0.00     0.162 HD
BRANCH  10  12
HETATM   12  C12 UNL     1      22.972  -0.780  54.024  1.00  0.00     0.182 A 
HETATM   13  C9  UNL     1      21.823  -0.076  53.698  1.00  0.00     0.088 A 
HETATM   14  C8  UNL     1      21.645   1.167  53.031  1.00  0.00     0.044 A 
HETATM   15  C10 UNL     1      20.656   0.505  53.432  1.00  0.00     0.116 A 
HETATM   16  N5  UNL     1      21.875   0.339  53.894  1.00  0.00     0.000 N 
HETATM   17  C11 UNL     1      20.897  -0.456  54.423  1.00  0.00     0.127 A 
HETATM   18  C7  UNL     1      21.466   2.353  52.394  1.00  0.00     0.045 A 
HETATM   19  C6  UNL     1      20.130   2.433  52.395  1.00  0.00     0.157 A 
HETATM   20  N1  UNL     1      19.645   1.279  53.053  1.00  0.00    -0.251 NA
HETATM   21  N2  UNL     1      21.866  -1.231  54.985  1.00  0.00    -0.275 NA
BRANCH  19  22
HETATM   22  O3  UNL     1      18.981   2.910  52.159  1.00  0.00    -0.328 OA
BRANCH  22  23
HETATM   23  C2  UNL     1      17.889   2.849  51.447  1.00  0.00     0.150 C 
HETATM   24  C1  UNL     1      18.191   2.490  49.974  1.00  0.00     0.042 C 
BRANCH  23  25
HETATM   25  C3  UNL     1      17.230   4.282  51.311  1.00  0.00     0.199 C 
BRANCH  25  26
HETATM   26  O1  UNL     1      16.380   4.420  52.371  1.00  0.00    -0.387 OA
BRANCH  26  27
HETATM   27  C4  UNL     1      15.295   3.616  52.463  1.00  0.00     0.193 C 
BRANCH  27  28
HETATM   28  C5  UNL     1      14.227   4.011  53.438  1.00  0.00     0.190 C 
BRANCH  28  29
HETATM   29  O2  UNL     1      14.669   4.816  54.486  1.00  0.00    -0.399 OA
HETATM   30  H11 UNL     1      15.429   5.394  54.218  1.00  0.00     0.209 HD
ENDBRANCH  28  29
ENDBRANCH  27  28
ENDBRANCH  26  27
ENDBRANCH  25  26
ENDBRANCH  23  25
ENDBRANCH  22  23
ENDBRANCH  19  22
ENDBRANCH  10  12
ENDBRANCH   1  10
TORSDOF 11
ENDMDL
MODEL 4
REMARK VINA RESULT:      -7.6      4.016      7.642
REMARK  11 active torsions:
REMARK  status: ('A' for Active; 'I' for Inactive)
REMARK    1  A    between atoms: C2_2  and  C3_3 
REMARK    2  A    between atoms: C2_2  and  O3_8 
REMARK    3  A    between atoms: C3_3  and  O1_4 
REMARK    4  A    between atoms: O1_4  and  C4_5 
REMARK    5  A    between atoms: C4_5  and  C5_6 
REMARK    6  A    between atoms: C5_6  and  O2_7 
REMARK    7  A    between atoms: O3_8  and  C6_9 
REMARK    8  A    between atoms: C10_13  and  N5_28 
REMARK    9  A    between atoms: C11_15  and  N5_28 
REMARK   10  A    between atoms: C12_17  and  N3_18 
REMARK   11  A    between atoms: N3_18  and  C13_19 
ROOT
HETATM    1  C13 UNL     1      24.650   7.121  50.415  1.00  0.00     0.031 A 
HETATM    2  C14 UNL     1      24.306   8.084  49.476  1.00  0.00     0.032 A 
HETATM    3  C15 UNL     1      24.978   8.257  48.292  1.00  0.00     0.046 A 
HETATM    4  C16 UNL     1      26.042   7.428  48.046  1.00  0.00     0.137 A 
HETATM    5  F1  UNL     1      26.692   7.633  46.859  1.00  0.00    -0.204 F 
HETATM    6  C17 UNL     1      26.478   6.444  48.901  1.00  0.00     0.085 A 
HETATM    7  C18 UNL     1      27.628   5.603  48.580  1.00  0.00     0.102 C 
HETATM    8  N4  UNL     1      28.556   4.919  48.334  1.00  0.00    -0.191 NA
HETATM    9  C19 UNL     1      25.747   6.315  50.096  1.00  0.00     0.055 A 
ENDROOT
BRANCH   1  10
HETATM   10  N3  UNL     1      24.212   6.673  51.649  1.00  0.00    -0.358 N 
HETATM   11  H13 UNL     1      24.391   7.037  52.618  1.00  0.00     0.162 HD
BRANCH  10  12
HETATM   12  C12 UNL     1      23.321   5.483  51.844  1.00  0.00     0.182 A 
HETATM   13  C9  UNL     1      23.506   4.142  52.143  1.00  0.00     0.088 A 
HETATM   14  C8  UNL     1      24.608   3.274  51.911  1.00  0.00     0.044 A 
HETATM   15  C10 UNL     1      23.572   2.858  52.485  1.00  0.00     0.116 A 
HETATM   16  N5  UNL     1      23.602   3.939  51.739  1.00  0.00     0.000 N 
HETATM   17  C11 UNL     1      22.402   3.608  52.304  1.00  0.00     0.127 A 
HETATM   18  C7  UNL     1      25.657   2.440  51.694  1.00  0.00     0.045 A 
HETATM   19  C6  UNL     1      25.188   1.310  52.237  1.00  0.00     0.157 A 
HETATM   20  N1  UNL     1      23.886   1.588  52.715  1.00  0.00    -0.251 NA
HETATM   21  N2  UNL     1      21.933   4.844  51.971  1.00  0.00    -0.275 NA
BRANCH  19  22
HETATM   22  O3  UNL     1      25.182   0.101  52.614  1.00  0.00    -0.328 OA
BRANCH  22  23
HETATM   23  C2  UNL     1      25.768  -0.839  53.305  1.00  0.00     0.150 C 
HETATM   24  C1  UNL     1      25.740  -0.532  54.819  1.00  0.00     0.042 C 
BRANCH  23  25
HETATM   25  C3  UNL     1      27.321  -0.870  53.000  1.00  0.00     0.199 C 
BRANCH  25  26
HETATM   26  O1  UNL     1      27.952  -0.562  54.171  1.00  0.00    -0.387 OA
BRANCH  26  27
HETATM   27  C4  UNL     1      29.090   0.170  54.141  1.00  0.00     0.193 C 
BRANCH  27  28
HETATM   28  C5  UNL     1      28.951   1.660  54.228  1.00  0.00     0.190 C 
BRANCH  28  29
HETATM   29  O2  UNL     1      29.229   2.338  53.042  1.00  0.00    -0.399 OA
HETATM   30  H11 UNL     1      28.417   2.751  52.650  1.00  0.00     0.209 HD
ENDBRANCH  28  29
ENDBRANCH  27  28
ENDBRANCH  26  27
ENDBRANCH  25  26
ENDBRANCH  23  25
ENDBRANCH  22  23
ENDBRANCH  19  22
ENDBRANCH  10  12
ENDBRANCH   1  10
TORSDOF 11
ENDMDL
MODEL 5
REMARK VINA RESULT:      -7.6      1.735      2.429
REMARK  11 active torsions:
REMARK  status: ('A' for Active; 'I' for Inactive)
REMARK    1  A    between atoms: C2_2  and  C3_3 
REMARK    2  A    between atoms: C2_2  and  O3_8 
REMARK    3  A    between atoms: C3_3  and  O1_4 
REMARK    4  A    between atoms: O1_4  and  C4_5 
REMARK    5  A    between atoms: C4_5  and  C5_6 
REMARK    6  A    between atoms: C5_6  and  O2_7 
REMARK    7  A    between atoms: O3_8  and  C6_9 
REMARK    8  A    between atoms: C10_13  and  N5_28 
REMARK    9  A    between atoms: C11_15  and  N5_28 
REMARK   10  A    between atoms: C12_17  and  N3_18 
REMARK   11  A    between atoms: N3_18  and  C13_19 
ROOT
HETATM    1  C13 UNL     1      24.371   0.947  52.354  1.00  0.00     0.031 A 
HETATM    2  C14 UNL     1      24.123  -0.143  53.178  1.00  0.00     0.032 A 
HETATM    3  C15 UNL     1      24.969  -0.536  54.185  1.00  0.00     0.046 A 
HETATM    4  C16 UNL     1      26.113   0.198  54.367  1.00  0.00     0.137 A 
HETATM    5  F1  UNL     1      26.935  -0.226  55.375  1.00  0.00    -0.204 F 
HETATM    6  C17 UNL     1      26.467   1.291  53.611  1.00  0.00     0.085 A 
HETATM    7  C18 UNL     1      27.709   2.020  53.852  1.00  0.00     0.102 C 
HETATM    8  N4  UNL     1      28.709   2.617  54.036  1.00  0.00    -0.191 NA
HETATM    9  C19 UNL     1      25.558   1.644  52.598  1.00  0.00     0.055 A 
ENDROOT
BRANCH   1  10
HETATM   10  N3  UNL     1      23.765   1.609  51.300  1.00  0.00    -0.358 N 
HETATM   11  H13 UNL     1      23.290   1.243  50.439  1.00  0.00     0.162 HD
BRANCH  10  12
HETATM   12  C12 UNL     1      23.667   3.101  51.190  1.00  0.00     0.182 A 
HETATM   13  C9  UNL     1      24.312   4.088  50.463  1.00  0.00     0.088 A 
HETATM   14  C8  UNL     1      25.620   4.137  49.906  1.00  0.00     0.044 A 
HETATM   15  C10 UNL     1      24.826   5.101  49.769  1.00  0.00     0.116 A 
HETATM   16  N5  UNL     1      24.697   4.183  50.700  1.00  0.00     0.000 N 
HETATM   17  C11 UNL     1      23.754   5.173  50.669  1.00  0.00     0.127 A 
HETATM   18  C7  UNL     1      26.866   4.191  49.371  1.00  0.00     0.045 A 
HETATM   19  C6  UNL     1      26.833   5.399  48.794  1.00  0.00     0.157 A 
HETATM   20  N1  UNL     1      25.559   5.952  49.060  1.00  0.00    -0.251 NA
HETATM   21  N2  UNL     1      22.989   4.435  51.523  1.00  0.00    -0.275 NA
BRANCH  19  22
HETATM   22  O3  UNL     1      27.242   6.394  48.124  1.00  0.00    -0.328 OA
BRANCH  22  23
HETATM   23  C2  UNL     1      28.134   7.337  47.988  1.00  0.00     0.150 C 
HETATM   24  C1  UNL     1      28.099   7.949  46.570  1.00  0.00     0.042 C 
BRANCH  23  25
HETATM   25  C3  UNL     1      29.597   6.734  48.054  1.00  0.00     0.199 C 
BRANCH  25  26
HETATM   26  O1  UNL     1      30.293   7.504  48.941  1.00  0.00    -0.387 OA
BRANCH  26  27
HETATM   27  C4  UNL     1      31.609   7.261  49.144  1.00  0.00     0.193 C 
BRANCH  27  28
HETATM   28  C5  UNL     1      31.994   5.873  49.561  1.00  0.00     0.190 C 
BRANCH  28  29
HETATM   29  O2  UNL     1      31.413   5.444  50.753  1.00  0.00    -0.399 OA
HETATM   30  H11 UNL     1      30.860   6.151  51.175  1.00  0.00     0.209 HD
ENDBRANCH  28  29
ENDBRANCH  27  28
ENDBRANCH  26  27
ENDBRANCH  25  26
ENDBRANCH  23  25
ENDBRANCH  22  23
ENDBRANCH  19  22
ENDBRANCH  10  12
ENDBRANCH   1  10
TORSDOF 11
ENDMDL
MODEL 6
REMARK VINA RESULT:      -7.6      1.788      2.522
REMARK  11 active torsions:
REMARK  status: ('A' for Active; 'I' for Inactive)
REMARK    1  A    between atoms: C2_2  and  C3_3 
REMARK    2  A    between atoms: C2_2  and  O3_8 
REMARK    3  A    between atoms: C3_3  and  O1_4 
REMARK    4  A    between atoms: O1_4  and  C4_5 
REMARK    5  A    between atoms: C4_5  and  C5_6 
REMARK    6  A    between atoms: C5_6  and  O2_7 
REMARK    7  A    between atoms: O3_8  and  C6_9 
REMARK    8  A    between atoms: C10_13  and  N5_28 
REMARK    9  A    between atoms: C11_15  and  N5_28 
REMARK   10  A    between atoms: C12_17  and  N3_18 
REMARK   11  A    between atoms: N3_18  and  C13_19 
ROOT
HETATM    1  C13 UNL     1      24.351   1.393  51.844  1.00  0.00     0.031 A 
HETATM    2  C14 UNL     1      25.652   1.069  52.204  1.00  0.00     0.032 A 
HETATM    3  C15 UNL     1      25.958   0.173  53.198  1.00  0.00     0.046 A 
HETATM    4  C16 UNL     1      24.911  -0.417  53.858  1.00  0.00     0.137 A 
HETATM    5  F1  UNL     1      25.254  -1.299  54.846  1.00  0.00    -0.204 F 
HETATM    6  C17 UNL     1      23.585  -0.170  53.593  1.00  0.00     0.085 A 
HETATM    7  C18 UNL     1      22.518  -0.826  54.345  1.00  0.00     0.102 C 
HETATM    8  N4  UNL     1      21.647  -1.347  54.945  1.00  0.00    -0.191 NA
HETATM    9  C19 UNL     1      23.336   0.754  52.563  1.00  0.00     0.055 A 
ENDROOT
BRANCH   1  10
HETATM   10  N3  UNL     1      23.699   2.201  50.927  1.00  0.00    -0.358 N 
HETATM   11  H13 UNL     1      23.026   1.964  50.158  1.00  0.00     0.162 HD
BRANCH  10  12
HETATM   12  C12 UNL     1      23.849   3.691  50.864  1.00  0.00     0.182 A 
HETATM   13  C9  UNL     1      24.654   4.580  50.171  1.00  0.00     0.088 A 
HETATM   14  C8  UNL     1      25.956   4.430  49.619  1.00  0.00     0.044 A 
HETATM   15  C10 UNL     1      25.333   5.515  49.510  1.00  0.00     0.116 A 
HETATM   16  N5  UNL     1      25.047   4.603  50.412  1.00  0.00     0.000 N 
HETATM   17  C11 UNL     1      24.280   5.735  50.410  1.00  0.00     0.127 A 
HETATM   18  C7  UNL     1      27.198   4.295  49.090  1.00  0.00     0.045 A 
HETATM   19  C6  UNL     1      27.370   5.508  48.551  1.00  0.00     0.157 A 
HETATM   20  N1  UNL     1      26.202   6.255  48.832  1.00  0.00    -0.251 NA
HETATM   21  N2  UNL     1      23.398   5.108  51.238  1.00  0.00    -0.275 NA
BRANCH  19  22
HETATM   22  O3  UNL     1      27.942   6.442  47.915  1.00  0.00    -0.328 OA
BRANCH  22  23
HETATM   23  C2  UNL     1      28.923   7.301  47.868  1.00  0.00     0.150 C 
HETATM   24  C1  UNL     1      28.703   8.353  46.758  1.00  0.00     0.042 C 
BRANCH  23  25
HETATM   25  C3  UNL     1      30.260   6.595  47.397  1.00  0.00     0.199 C 
BRANCH  25  26
HETATM   26  O1  UNL     1      31.283   7.238  48.033  1.00  0.00    -0.387 OA
BRANCH  26  27
HETATM   27  C4  UNL     1      31.465   7.048  49.361  1.00  0.00     0.193 C 
BRANCH  27  28
HETATM   28  C5  UNL     1      31.664   5.639  49.832  1.00  0.00     0.190 C 
BRANCH  28  29
HETATM   29  O2  UNL     1      31.587   5.474  51.214  1.00  0.00    -0.399 OA
HETATM   30  H11 UNL     1      30.802   5.940  51.602  1.00  0.00     0.209 HD
ENDBRANCH  28  29
ENDBRANCH  27  28
ENDBRANCH  26  27
ENDBRANCH  25  26
ENDBRANCH  23  25
ENDBRANCH  22  23
ENDBRANCH  19  22
ENDBRANCH  10  12
ENDBRANCH   1  10
TORSDOF 11
ENDMDL
MODEL 7
REMARK VINA RESULT:      -7.4      5.145      9.459
REMARK  11 active torsions:
REMARK  status: ('A' for Active; 'I' for Inactive)
REMARK    1  A    between atoms: C2_2  and  C3_3 
REMARK    2  A    between atoms: C2_2  and  O3_8 
REMARK    3  A    between atoms: C3_3  and  O1_4 
REMARK    4  A    between atoms: O1_4  and  C4_5 
REMARK    5  A    between atoms: C4_5  and  C5_6 
REMARK    6  A    between atoms: C5_6  and  O2_7 
REMARK    7  A    between atoms: O3_8  and  C6_9 
REMARK    8  A    between atoms: C10_13  and  N5_28 
REMARK    9  A    between atoms: C11_15  and  N5_28 
REMARK   10  A    between atoms: C12_17  and  N3_18 
REMARK   11  A    between atoms: N3_18  and  C13_19 
ROOT
HETATM    1  C13 UNL     1      26.900   4.581  49.098  1.00  0.00     0.031 A 
HETATM    2  C14 UNL     1      27.853   5.308  48.398  1.00  0.00     0.032 A 
HETATM    3  C15 UNL     1      27.825   6.676  48.286  1.00  0.00     0.046 A 
HETATM    4  C16 UNL     1      26.793   7.336  48.902  1.00  0.00     0.137 A 
HETATM    5  F1  UNL     1      26.794   8.698  48.764  1.00  0.00    -0.204 F 
HETATM    6  C17 UNL     1      25.791   6.723  49.617  1.00  0.00     0.085 A 
HETATM    7  C18 UNL     1      24.714   7.488  50.238  1.00  0.00     0.102 C 
HETATM    8  N4  UNL     1      23.838   8.095  50.743  1.00  0.00    -0.191 NA
HETATM    9  C19 UNL     1      25.877   5.322  49.697  1.00  0.00     0.055 A 
ENDROOT
BRANCH   1  10
HETATM   10  N3  UNL     1      26.633   3.260  49.418  1.00  0.00    -0.358 N 
HETATM   11  H13 UNL     1      26.315   2.457  48.820  1.00  0.00     0.162 HD
BRANCH  10  12
HETATM   12  C12 UNL     1      26.764   2.686  50.797  1.00  0.00     0.182 A 
HETATM   13  C9  UNL     1      25.997   1.864  51.607  1.00  0.00     0.088 A 
HETATM   14  C8  UNL     1      24.594   1.635  51.649  1.00  0.00     0.044 A 
HETATM   15  C10 UNL     1      25.367   1.035  52.436  1.00  0.00     0.116 A 
HETATM   16  N5  UNL     1      25.690   2.144  51.809  1.00  0.00     0.000 N 
HETATM   17  C11 UNL     1      26.635   1.600  52.633  1.00  0.00     0.127 A 
HETATM   18  C7  UNL     1      23.256   1.411  51.694  1.00  0.00     0.045 A 
HETATM   19  C6  UNL     1      23.192   0.506  52.678  1.00  0.00     0.157 A 
HETATM   20  N1  UNL     1      24.515   0.292  53.133  1.00  0.00    -0.251 NA
HETATM   21  N2  UNL     1      27.559   2.436  52.083  1.00  0.00    -0.275 NA
BRANCH  19  22
HETATM   22  O3  UNL     1      22.669  -0.319  53.485  1.00  0.00    -0.328 OA
BRANCH  22  23
HETATM   23  C2  UNL     1      21.836  -0.518  54.469  1.00  0.00     0.150 C 
HETATM   24  C1  UNL     1      21.395  -1.997  54.549  1.00  0.00     0.042 C 
BRANCH  23  25
HETATM   25  C3  UNL     1      20.463   0.223  54.196  1.00  0.00     0.199 C 
BRANCH  25  26
HETATM   26  O1  UNL     1      19.587  -0.731  53.764  1.00  0.00    -0.387 OA
BRANCH  26  27
HETATM   27  C4  UNL     1      18.678  -0.416  52.811  1.00  0.00     0.193 C 
BRANCH  27  28
HETATM   28  C5  UNL     1      17.453  -1.276  52.720  1.00  0.00     0.190 C 
BRANCH  28  29
HETATM   29  O2  UNL     1      16.344  -0.779  53.402  1.00  0.00    -0.399 OA
HETATM   30  H11 UNL     1      16.252  -1.177  54.306  1.00  0.00     0.209 HD
ENDBRANCH  28  29
ENDBRANCH  27  28
ENDBRANCH  26  27
ENDBRANCH  25  26
ENDBRANCH  23  25
ENDBRANCH  22  23
ENDBRANCH  19  22
ENDBRANCH  10  12
ENDBRANCH   1  10
TORSDOF 11
ENDMDL
MODEL 8
REMARK VINA RESULT:      -7.4      1.637      2.486
REMARK  11 active torsions:
REMARK  status: ('A' for Active; 'I' for Inactive)
REMARK    1  A    between atoms: C2_2  and  C3_3 
REMARK    2  A    between atoms: C2_2  and  O3_8 
REMARK    3  A    between atoms: C3_3  and  O1_4 
REMARK    4  A    between atoms: O1_4  and  C4_5 
REMARK    5  A    between atoms: C4_5  and  C5_6 
REMARK    6  A    between atoms: C5_6  and  O2_7 
REMARK    7  A    between atoms: O3_8  and  C6_9 
REMARK    8  A    between atoms: C10_13  and  N5_28 
REMARK    9  A    between atoms: C11_15  and  N5_28 
REMARK   10  A    between atoms: C12_17  and  N3_18 
REMARK   11  A    between atoms: N3_18  and  C13_19 
ROOT
HETATM    1  C13 UNL     1      23.092   0.827  52.166  1.00  0.00     0.031 A 
HETATM    2  C14 UNL     1      23.846   0.176  53.132  1.00  0.00     0.032 A 
HETATM    3  C15 UNL     1      23.307  -0.681  54.058  1.00  0.00     0.046 A 
HETATM    4  C16 UNL     1      21.952  -0.888  54.010  1.00  0.00     0.137 A 
HETATM    5  F1  UNL     1      21.449  -1.744  54.952  1.00  0.00    -0.204 F 
HETATM    6  C17 UNL     1      21.105  -0.296  53.104  1.00  0.00     0.085 A 
HETATM    7  C18 UNL     1      19.668  -0.552  53.116  1.00  0.00     0.102 C 
HETATM    8  N4  UNL     1      18.505  -0.749  53.117  1.00  0.00    -0.191 NA
HETATM    9  C19 UNL     1      21.718   0.569  52.180  1.00  0.00     0.055 A 
ENDROOT
BRANCH   1  10
HETATM   10  N3  UNL     1      23.290   1.706  51.114  1.00  0.00    -0.358 N 
HETATM   11  H13 UNL     1      23.309   1.546  50.076  1.00  0.00     0.162 HD
BRANCH  10  12
HETATM   12  C12 UNL     1      23.532   3.176  51.281  1.00  0.00     0.182 A 
HETATM   13  C9  UNL     1      24.337   4.126  50.672  1.00  0.00     0.088 A 
HETATM   14  C8  UNL     1      25.579   4.002  49.991  1.00  0.00     0.044 A 
HETATM   15  C10 UNL     1      25.022   5.121  50.115  1.00  0.00     0.116 A 
HETATM   16  N5  UNL     1      24.748   4.087  50.878  1.00  0.00     0.000 N 
HETATM   17  C11 UNL     1      24.061   5.242  51.128  1.00  0.00     0.127 A 
HETATM   18  C7  UNL     1      26.764   3.893  49.339  1.00  0.00     0.045 A 
HETATM   19  C6  UNL     1      26.972   5.169  48.991  1.00  0.00     0.157 A 
HETATM   20  N1  UNL     1      25.882   5.919  49.491  1.00  0.00    -0.251 NA
HETATM   21  N2  UNL     1      23.206   4.532  51.918  1.00  0.00    -0.275 NA
BRANCH  19  22
HETATM   22  O3  UNL     1      27.553   6.165  48.467  1.00  0.00    -0.328 OA
BRANCH  22  23
HETATM   23  C2  UNL     1      28.492   6.598  47.671  1.00  0.00     0.150 C 
HETATM   24  C1  UNL     1      29.826   6.802  48.425  1.00  0.00     0.042 C 
BRANCH  23  25
HETATM   25  C3  UNL     1      28.166   8.065  47.170  1.00  0.00     0.199 C 
BRANCH  25  26
HETATM   26  O1  UNL     1      27.061   8.473  47.861  1.00  0.00    -0.387 OA
BRANCH  26  27
HETATM   27  C4  UNL     1      27.139   9.568  48.652  1.00  0.00     0.193 C 
BRANCH  27  28
HETATM   28  C5  UNL     1      27.520   9.354  50.086  1.00  0.00     0.190 C 
BRANCH  28  29
HETATM   29  O2  UNL     1      26.885   8.275  50.699  1.00  0.00    -0.399 OA
HETATM   30  H11 UNL     1      27.490   7.496  50.803  1.00  0.00     0.209 HD
ENDBRANCH  28  29
ENDBRANCH  27  28
ENDBRANCH  26  27
ENDBRANCH  25  26
ENDBRANCH  23  25
ENDBRANCH  22  23
ENDBRANCH  19  22
ENDBRANCH  10  12
ENDBRANCH   1  10
TORSDOF 11
ENDMDL
MODEL 9
REMARK VINA RESULT:      -7.4      5.680      9.061
REMARK  11 active torsions:
REMARK  status: ('A' for Active; 'I' for Inactive)
REMARK    1  A    between atoms: C2_2  and  C3_3 
REMARK    2  A    between atoms: C2_2  and  O3_8 
REMARK    3  A    between atoms: C3_3  and  O1_4 
REMARK    4  A    between atoms: O1_4  and  C4_5 
REMARK    5  A    between atoms: C4_5  and  C5_6 
REMARK    6  A    between atoms: C5_6  and  O2_7 
REMARK    7  A    between atoms: O3_8  and  C6_9 
REMARK    8  A    between atoms: C10_13  and  N5_28 
REMARK    9  A    between atoms: C11_15  and  N5_28 
REMARK   10  A    between atoms: C12_17  and  N3_18 
REMARK   11  A    between atoms: N3_18  and  C13_19 
ROOT
HETATM    1  C13 UNL     1      25.163  -0.160  53.751  1.00  0.00     0.031 A 
HETATM    2  C14 UNL     1      26.217  -0.655  52.995  1.00  0.00     0.032 A 
HETATM    3  C15 UNL     1      26.753   0.011  51.921  1.00  0.00     0.046 A 
HETATM    4  C16 UNL     1      26.202   1.223  51.594  1.00  0.00     0.137 A 
HETATM    5  F1  UNL     1      26.757   1.855  50.514  1.00  0.00    -0.204 F 
HETATM    6  C17 UNL     1      25.155   1.810  52.264  1.00  0.00     0.085 A 
HETATM    7  C18 UNL     1      24.608   3.100  51.853  1.00  0.00     0.102 C 
HETATM    8  N4  UNL     1      24.157   4.141  51.531  1.00  0.00    -0.191 NA
HETATM    9  C19 UNL     1      24.652   1.080  53.356  1.00  0.00     0.055 A 
ENDROOT
BRANCH   1  10
HETATM   10  N3  UNL     1      24.415  -0.531  54.855  1.00  0.00    -0.358 N 
HETATM   11  H13 UNL     1      24.645  -0.517  55.879  1.00  0.00     0.162 HD
BRANCH  10  12
HETATM   12  C12 UNL     1      23.016  -1.064  54.781  1.00  0.00     0.182 A 
HETATM   13  C9  UNL     1      21.865  -0.741  54.079  1.00  0.00     0.088 A 
HETATM   14  C8  UNL     1      21.421   0.491  53.526  1.00  0.00     0.044 A 
HETATM   15  C10 UNL     1      20.730  -0.552  53.411  1.00  0.00     0.116 A 
HETATM   16  N5  UNL     1      21.667  -0.400  54.319  1.00  0.00     0.000 N 
HETATM   17  C11 UNL     1      20.998  -1.592  54.311  1.00  0.00     0.127 A 
HETATM   18  C7  UNL     1      20.990   1.663  52.994  1.00  0.00     0.045 A 
HETATM   19  C6  UNL     1      19.832   1.274  52.446  1.00  0.00     0.157 A 
HETATM   20  N1  UNL     1      19.684  -0.105  52.725  1.00  0.00    -0.251 NA
HETATM   21  N2  UNL     1      21.947  -2.102  55.146  1.00  0.00    -0.275 NA
BRANCH  19  22
HETATM   22  O3  UNL     1      18.746   1.368  51.802  1.00  0.00    -0.328 OA
BRANCH  22  23
HETATM   23  C2  UNL     1      18.072   1.976  50.864  1.00  0.00     0.150 C 
HETATM   24  C1  UNL     1      18.775   3.275  50.411  1.00  0.00     0.042 C 
BRANCH  23  25
HETATM   25  C3  UNL     1      16.697   2.522  51.431  1.00  0.00     0.199 C 
BRANCH  25  26
HETATM   26  O1  UNL     1      16.976   3.708  52.047  1.00  0.00    -0.387 OA
BRANCH  26  27
HETATM   27  C4  UNL     1      15.961   4.539  52.381  1.00  0.00     0.193 C 
BRANCH  27  28
HETATM   28  C5  UNL     1      14.894   3.994  53.282  1.00  0.00     0.190 C 
BRANCH  28  29
HETATM   29  O2  UNL     1      14.579   4.808  54.367  1.00  0.00    -0.399 OA
HETATM   30  H11 UNL     1      13.601   4.942  54.462  1.00  0.00     0.209 HD
ENDBRANCH  28  29
ENDBRANCH  27  28
ENDBRANCH  26  27
ENDBRANCH  25  26
ENDBRANCH  23  25
ENDBRANCH  22  23
ENDBRANCH  19  22
ENDBRANCH  10  12
ENDBRANCH   1  10
TORSDOF 11
ENDMDL
