MODEL 1
REMARK VINA RESULT:      -7.5      0.000      0.000
REMARK  4 active torsions:
REMARK  status: ('A' for Active; 'I' for Inactive)
REMARK    1  A    between atoms: C2_2  and  C3_3 
REMARK       I    between atoms: C3_3  and  N1_5 
REMARK    2  A    between atoms: N1_5  and  C4_6 
REMARK    3  A    between atoms: C9_13  and  O2_14 
REMARK    4  A    between atoms: C15_21  and  C16_22 
ROOT
HETATM    1  C4  UNL     1      23.653   0.967  52.380  1.00  0.00     0.014 C 
HETATM    2  C5  UNL     1      23.785   1.770  51.311  1.00  0.00     0.029 C 
HETATM    3  C6  UNL     1      23.401   2.209  49.964  1.00  0.00     0.052 C 
HETATM    4  C7  UNL     1      23.496   3.010  48.938  1.00  0.00     0.129 C 
HETATM    5  N2  UNL     1      22.525   2.437  48.020  1.00  0.00    -0.224 NA
HETATM    6  C8  UNL     1      21.279   2.272  48.395  1.00  0.00     0.238 C 
HETATM    7  N3  UNL     1      19.949   2.073  48.729  1.00  0.00    -0.212 NA
HETATM    8  C9  UNL     1      19.256   2.289  49.765  1.00  0.00     0.207 C 
HETATM    9  S1  UNL     1      18.963   2.840  51.440  1.00  0.00    -0.045 SA
HETATM   10  C11 UNL     1      20.349   3.198  52.444  1.00  0.00     0.312 C 
HETATM   11  C12 UNL     1      21.303   4.182  51.839  1.00  0.00     0.019 C 
HETATM   12  C13 UNL     1      21.917   5.376  51.529  1.00  0.00     0.001 C 
HETATM   13  C14 UNL     1      23.072   5.863  50.703  1.00  0.00     0.029 C 
HETATM   14  C15 UNL     1      23.916   5.169  49.971  1.00  0.00     0.031 C 
HETATM   15  N4  UNL     1      24.449   3.937  49.430  1.00  0.00    -0.341 N 
HETATM   16  N5  UNL     1      21.094   2.089  52.913  1.00  0.00     0.102 N 
HETATM   17  C18 UNL     1      21.216   0.975  52.059  1.00  0.00     0.277 C 
HETATM   18  C19 UNL     1      22.425   0.095  52.425  1.00  0.00     0.087 C 
HETATM   19  H17 UNL     1      25.436   3.673  49.381  1.00  0.00     0.167 HD
HETATM   20  H18 UNL     1      20.702   1.760  53.827  1.00  0.00     0.317 HD
ENDROOT
BRANCH   1  21
HETATM   21  N1  UNL     1      24.471   1.082  53.513  1.00  0.00    -0.328 N 
HETATM   22  C3  UNL     1      25.593   0.191  53.680  1.00  0.00     0.241 C 
HETATM   23  O1  UNL     1      25.600  -0.573  52.688  1.00  0.00    -0.269 OA
HETATM   24  H4  UNL     1      24.216   1.845  54.211  1.00  0.00     0.169 HD
BRANCH  22  25
HETATM   25  C2  UNL     1      26.430   0.331  54.862  1.00  0.00     0.048 C 
HETATM   26  C1  UNL     1      27.761   0.297  54.731  1.00  0.00     0.037 C 
ENDBRANCH  22  25
ENDBRANCH   1  21
BRANCH  14  27
HETATM   27  C16 UNL     1      24.816   6.198  49.399  1.00  0.00     0.020 C 
HETATM   28  C17 UNL     1      26.040   6.292  48.936  1.00  0.00     0.208 C 
HETATM   29 BR1  UNL     1      27.507   5.086  48.703  1.00  0.00    -0.193 Br
ENDBRANCH  14  27
BRANCH   8  30
HETATM   30  O2  UNL     1      18.008   1.836  49.361  1.00  0.00    -0.334 OA
HETATM   31  C10 UNL     1      17.226   0.844  49.985  1.00  0.00     0.212 C 
ENDBRANCH   8  30
TORSDOF 4
ENDMDL
MODEL 2
REMARK VINA RESULT:      -7.4      3.145      6.173
REMARK  4 active torsions:
REMARK  status: ('A' for Active; 'I' for Inactive)
REMARK    1  A    between atoms: C2_2  and  C3_3 
REMARK       I    between atoms: C3_3  and  N1_5 
REMARK    2  A    between atoms: N1_5  and  C4_6 
REMARK    3  A    between atoms: C9_13  and  O2_14 
REMARK    4  A    between atoms: C15_21  and  C16_22 
ROOT
HETATM    1  C4  UNL     1      22.220   3.000  48.298  1.00  0.00     0.014 C 
HETATM    2  C5  UNL     1      23.329   2.880  49.045  1.00  0.00     0.029 C 
HETATM    3  C6  UNL     1      24.686   3.291  49.428  1.00  0.00     0.052 C 
HETATM    4  C7  UNL     1      25.751   3.205  50.176  1.00  0.00     0.129 C 
HETATM    5  N2  UNL     1      26.614   4.215  49.584  1.00  0.00    -0.224 NA
HETATM    6  C8  UNL     1      26.197   5.454  49.470  1.00  0.00     0.238 C 
HETATM    7  N3  UNL     1      25.818   6.779  49.321  1.00  0.00    -0.212 NA
HETATM    8  C9  UNL     1      24.775   7.437  49.604  1.00  0.00     0.207 C 
HETATM    9  S1  UNL     1      23.122   7.669  50.243  1.00  0.00    -0.045 SA
HETATM   10  C11 UNL     1      22.174   6.246  50.613  1.00  0.00     0.312 C 
HETATM   11  C12 UNL     1      22.853   5.287  51.541  1.00  0.00     0.019 C 
HETATM   12  C13 UNL     1      23.237   4.653  52.703  1.00  0.00     0.001 C 
HETATM   13  C14 UNL     1      24.118   3.511  53.121  1.00  0.00     0.029 C 
HETATM   14  C15 UNL     1      24.836   2.705  52.371  1.00  0.00     0.031 C 
HETATM   15  N4  UNL     1      25.331   2.217  51.101  1.00  0.00    -0.341 N 
HETATM   16  N5  UNL     1      21.673   5.515  49.509  1.00  0.00     0.102 N 
HETATM   17  C18 UNL     1      22.474   5.444  48.352  1.00  0.00     0.277 C 
HETATM   18  C19 UNL     1      22.098   4.247  47.461  1.00  0.00     0.087 C 
HETATM   19  H17 UNL     1      25.394   1.239  50.810  1.00  0.00     0.167 HD
HETATM   20  H18 UNL     1      20.733   5.889  49.235  1.00  0.00     0.317 HD
ENDROOT
BRANCH   1  21
HETATM   21  N1  UNL     1      21.116   2.148  48.446  1.00  0.00    -0.328 N 
HETATM   22  C3  UNL     1      20.397   2.118  49.697  1.00  0.00     0.241 C 
HETATM   23  O1  UNL     1      20.965   2.932  50.460  1.00  0.00    -0.269 OA
HETATM   24  H4  UNL     1      20.856   1.552  47.603  1.00  0.00     0.169 HD
BRANCH  22  25
HETATM   25  C2  UNL     1      19.253   1.229  49.827  1.00  0.00     0.048 C 
HETATM   26  C1  UNL     1      19.120   0.490  50.935  1.00  0.00     0.037 C 
ENDBRANCH  22  25
ENDBRANCH   1  21
BRANCH  14  27
HETATM   27  C16 UNL     1      25.483   1.797  53.348  1.00  0.00     0.020 C 
HETATM   28  C17 UNL     1      26.680   1.553  53.827  1.00  0.00     0.208 C 
HETATM   29 BR1  UNL     1      28.435   2.260  53.540  1.00  0.00    -0.193 Br
ENDBRANCH  14  27
BRANCH   8  30
HETATM   30  O2  UNL     1      25.123   8.706  49.164  1.00  0.00    -0.334 OA
HETATM   31  C10 UNL     1      26.217   9.481  49.598  1.00  0.00     0.212 C 
ENDBRANCH   8  30
TORSDOF 4
ENDMDL
MODEL 3
REMARK VINA RESULT:      -7.3      3.040      5.408
REMARK  4 active torsions:
REMARK  status: ('A' for Active; 'I' for Inactive)
REMARK    1  A    between atoms: C2_2  and  C3_3 
REMARK       I    between atoms: C3_3  and  N1_5 
REMARK    2  A    between atoms: N1_5  and  C4_6 
REMARK    3  A    between atoms: C9_13  and  O2_14 
REMARK    4  A    between atoms: C15_21  and  C16_22 
ROOT
HETATM    1  C4  UNL     1      23.195   5.223  50.363  1.00  0.00     0.014 C 
HETATM    2  C5  UNL     1      22.454   4.357  51.075  1.00  0.00     0.029 C 
HETATM    3  C6  UNL     1      21.170   3.875  51.599  1.00  0.00     0.052 C 
HETATM    4  C7  UNL     1      20.440   3.016  52.256  1.00  0.00     0.129 C 
HETATM    5  N2  UNL     1      19.115   3.604  52.144  1.00  0.00    -0.224 NA
HETATM    6  C8  UNL     1      18.609   3.872  50.964  1.00  0.00     0.238 C 
HETATM    7  N3  UNL     1      18.018   4.178  49.748  1.00  0.00    -0.212 NA
HETATM    8  C9  UNL     1      18.373   4.064  48.539  1.00  0.00     0.207 C 
HETATM    9  S1  UNL     1      19.474   3.624  47.202  1.00  0.00    -0.045 SA
HETATM   10  C11 UNL     1      21.132   3.226  47.597  1.00  0.00     0.312 C 
HETATM   11  C12 UNL     1      21.271   2.150  48.629  1.00  0.00     0.019 C 
HETATM   12  C13 UNL     1      21.422   0.903  49.194  1.00  0.00     0.001 C 
HETATM   13  C14 UNL     1      21.521   0.295  50.564  1.00  0.00     0.029 C 
HETATM   14  C15 UNL     1      21.498   0.891  51.736  1.00  0.00     0.031 C 
HETATM   15  N4  UNL     1      21.424   2.054  52.594  1.00  0.00    -0.341 N 
HETATM   16  N5  UNL     1      21.970   4.306  47.965  1.00  0.00     0.102 N 
HETATM   17  C18 UNL     1      21.393   5.363  48.697  1.00  0.00     0.277 C 
HETATM   18  C19 UNL     1      22.449   6.176  49.467  1.00  0.00     0.087 C 
HETATM   19  H17 UNL     1      22.016   2.248  53.406  1.00  0.00     0.167 HD
HETATM   20  H18 UNL     1      22.425   4.708  47.111  1.00  0.00     0.317 HD
ENDROOT
BRANCH   1  21
HETATM   21  N1  UNL     1      24.589   5.113  50.260  1.00  0.00    -0.328 N 
HETATM   22  C3  UNL     1      25.172   3.963  49.614  1.00  0.00     0.241 C 
HETATM   23  O1  UNL     1      24.221   3.233  49.250  1.00  0.00    -0.269 OA
HETATM   24  H4  UNL     1      25.163   5.909  50.675  1.00  0.00     0.169 HD
BRANCH  22  25
HETATM   25  C2  UNL     1      26.620   3.871  49.516  1.00  0.00     0.048 C 
HETATM   26  C1  UNL     1      27.285   4.769  48.779  1.00  0.00     0.037 C 
ENDBRANCH  22  25
ENDBRANCH   1  21
BRANCH  14  27
HETATM   27  C16 UNL     1      21.629  -0.225  52.701  1.00  0.00     0.020 C 
HETATM   28  C17 UNL     1      22.552  -0.779  53.451  1.00  0.00     0.208 C 
HETATM   29 BR1  UNL     1      24.412  -0.470  53.777  1.00  0.00    -0.193 Br
ENDBRANCH  14  27
BRANCH   8  30
HETATM   30  O2  UNL     1      17.266   4.579  47.878  1.00  0.00    -0.334 OA
HETATM   31  C10 UNL     1      15.973   4.756  48.407  1.00  0.00     0.212 C 
ENDBRANCH   8  30
TORSDOF 4
ENDMDL
MODEL 4
REMARK VINA RESULT:      -7.3      3.133      5.332
REMARK  4 active torsions:
REMARK  status: ('A' for Active; 'I' for Inactive)
REMARK    1  A    between atoms: C2_2  and  C3_3 
REMARK       I    between atoms: C3_3  and  N1_5 
REMARK    2  A    between atoms: N1_5  and  C4_6 
REMARK    3  A    between atoms: C9_13  and  O2_14 
REMARK    4  A    between atoms: C15_21  and  C16_22 
ROOT
HETATM    1  C4  UNL     1      23.993   4.199  51.483  1.00  0.00     0.014 C 
HETATM    2  C5  UNL     1      22.763   3.763  51.797  1.00  0.00     0.029 C 
HETATM    3  C6  UNL     1      21.299   3.836  51.707  1.00  0.00     0.052 C 
HETATM    4  C7  UNL     1      20.101   3.394  51.976  1.00  0.00     0.129 C 
HETATM    5  N2  UNL     1      19.263   4.370  51.299  1.00  0.00    -0.224 NA
HETATM    6  C8  UNL     1      19.421   4.599  50.017  1.00  0.00     0.238 C 
HETATM    7  N3  UNL     1      19.536   4.887  48.666  1.00  0.00    -0.212 NA
HETATM    8  C9  UNL     1      20.280   4.466  47.733  1.00  0.00     0.207 C 
HETATM    9  S1  UNL     1      21.574   3.467  47.010  1.00  0.00    -0.045 SA
HETATM   10  C11 UNL     1      22.646   2.601  48.087  1.00  0.00     0.312 C 
HETATM   11  C12 UNL     1      21.939   1.723  49.074  1.00  0.00     0.019 C 
HETATM   12  C13 UNL     1      21.367   0.607  49.644  1.00  0.00     0.001 C 
HETATM   13  C14 UNL     1      20.666   0.232  50.918  1.00  0.00     0.029 C 
HETATM   14  C15 UNL     1      20.396   0.982  51.964  1.00  0.00     0.031 C 
HETATM   15  N4  UNL     1      20.422   2.224  52.707  1.00  0.00    -0.341 N 
HETATM   16  N5  UNL     1      23.601   3.377  48.788  1.00  0.00     0.102 N 
HETATM   17  C18 UNL     1      23.220   4.670  49.198  1.00  0.00     0.277 C 
HETATM   18  C19 UNL     1      24.093   5.191  50.353  1.00  0.00     0.087 C 
HETATM   19  H17 UNL     1      20.660   2.333  53.697  1.00  0.00     0.167 HD
HETATM   20  H18 UNL     1      24.477   3.458  48.219  1.00  0.00     0.317 HD
ENDROOT
BRANCH   1  21
HETATM   21  N1  UNL     1      25.156   3.608  51.998  1.00  0.00    -0.328 N 
HETATM   22  C3  UNL     1      25.374   2.191  51.832  1.00  0.00     0.241 C 
HETATM   23  O1  UNL     1      24.385   1.744  51.207  1.00  0.00    -0.269 OA
HETATM   24  H4  UNL     1      25.839   4.254  52.498  1.00  0.00     0.169 HD
BRANCH  22  25
HETATM   25  C2  UNL     1      26.588   1.601  52.372  1.00  0.00     0.048 C 
HETATM   26  C1  UNL     1      26.756   0.274  52.310  1.00  0.00     0.037 C 
ENDBRANCH  22  25
ENDBRANCH   1  21
BRANCH  14  27
HETATM   27  C16 UNL     1      19.693   0.059  52.887  1.00  0.00     0.020 C 
HETATM   28  C17 UNL     1      19.986  -0.825  53.811  1.00  0.00     0.208 C 
HETATM   29 BR1  UNL     1      21.597  -1.511  54.582  1.00  0.00    -0.193 Br
ENDBRANCH  14  27
BRANCH   8  30
HETATM   30  O2  UNL     1      19.819   5.210  46.656  1.00  0.00    -0.334 OA
HETATM   31  C10 UNL     1      20.093   6.566  46.388  1.00  0.00     0.212 C 
ENDBRANCH   8  30
TORSDOF 4
ENDMDL
MODEL 5
REMARK VINA RESULT:      -7.2      4.079      6.285
REMARK  4 active torsions:
REMARK  status: ('A' for Active; 'I' for Inactive)
REMARK    1  A    between atoms: C2_2  and  C3_3 
REMARK       I    between atoms: C3_3  and  N1_5 
REMARK    2  A    between atoms: N1_5  and  C4_6 
REMARK    3  A    between atoms: C9_13  and  O2_14 
REMARK    4  A    between atoms: C15_21  and  C16_22 
ROOT
HETATM    1  C4  UNL     1      26.824   6.480  48.700  1.00  0.00     0.014 C 
HETATM    2  C5  UNL     1      25.625   6.892  48.257  1.00  0.00     0.029 C 
HETATM    3  C6  UNL     1      24.322   6.647  47.624  1.00  0.00     0.052 C 
HETATM    4  C7  UNL     1      23.140   7.031  47.227  1.00  0.00     0.129 C 
HETATM    5  N2  UNL     1      22.613   5.812  46.634  1.00  0.00    -0.224 NA
HETATM    6  C8  UNL     1      22.555   4.708  47.339  1.00  0.00     0.238 C 
HETATM    7  N3  UNL     1      22.465   3.509  48.029  1.00  0.00    -0.212 NA
HETATM    8  C9  UNL     1      22.759   3.141  49.204  1.00  0.00     0.207 C 
HETATM    9  S1  UNL     1      23.371   3.354  50.869  1.00  0.00    -0.045 SA
HETATM   10  C11 UNL     1      24.239   4.825  51.246  1.00  0.00     0.312 C 
HETATM   11  C12 UNL     1      23.491   6.078  50.910  1.00  0.00     0.019 C 
HETATM   12  C13 UNL     1      22.677   7.182  51.044  1.00  0.00     0.001 C 
HETATM   13  C14 UNL     1      22.192   8.327  50.202  1.00  0.00     0.029 C 
HETATM   14  C15 UNL     1      22.473   8.610  48.949  1.00  0.00     0.031 C 
HETATM   15  N4  UNL     1      23.142   8.371  47.688  1.00  0.00    -0.341 N 
HETATM   16  N5  UNL     1      25.550   4.938  50.723  1.00  0.00     0.102 N 
HETATM   17  C18 UNL     1      25.799   4.377  49.455  1.00  0.00     0.277 C 
HETATM   18  C19 UNL     1      27.041   4.992  48.784  1.00  0.00     0.087 C 
HETATM   19  H17 UNL     1      23.619   9.070  47.113  1.00  0.00     0.167 HD
HETATM   20  H18 UNL     1      26.238   4.533  51.402  1.00  0.00     0.317 HD
ENDROOT
BRANCH   1  21
HETATM   21  N1  UNL     1      27.753   7.356  49.280  1.00  0.00    -0.328 N 
HETATM   22  C3  UNL     1      28.818   7.906  48.477  1.00  0.00     0.241 C 
HETATM   23  O1  UNL     1      28.679   7.438  47.324  1.00  0.00    -0.269 OA
HETATM   24  H4  UNL     1      27.618   7.579  50.313  1.00  0.00     0.169 HD
BRANCH  22  25
HETATM   25  C2  UNL     1      29.767   8.814  49.099  1.00  0.00     0.048 C 
HETATM   26  C1  UNL     1      31.043   8.434  49.241  1.00  0.00     0.037 C 
ENDBRANCH  22  25
ENDBRANCH   1  21
BRANCH  14  27
HETATM   27  C16 UNL     1      21.696   9.844  48.683  1.00  0.00     0.020 C 
HETATM   28  C17 UNL     1      20.510  10.339  48.944  1.00  0.00     0.208 C 
HETATM   29 BR1  UNL     1      18.956   9.736  49.884  1.00  0.00    -0.193 Br
ENDBRANCH  14  27
BRANCH   8  30
HETATM   30  O2  UNL     1      22.391   1.803  49.173  1.00  0.00    -0.334 OA
HETATM   31  C10 UNL     1      21.147   1.278  48.773  1.00  0.00     0.212 C 
ENDBRANCH   8  30
TORSDOF 4
ENDMDL
MODEL 6
REMARK VINA RESULT:      -7.1      8.304     12.051
REMARK  4 active torsions:
REMARK  status: ('A' for Active; 'I' for Inactive)
REMARK    1  A    between atoms: C2_2  and  C3_3 
REMARK       I    between atoms: C3_3  and  N1_5 
REMARK    2  A    between atoms: N1_5  and  C4_6 
REMARK    3  A    between atoms: C9_13  and  O2_14 
REMARK    4  A    between atoms: C15_21  and  C16_22 
ROOT
HETATM    1  C4  UNL     1      33.234   7.322  48.367  1.00  0.00     0.014 C 
HETATM    2  C5  UNL     1      32.077   7.901  48.727  1.00  0.00     0.029 C 
HETATM    3  C6  UNL     1      31.216   9.077  48.908  1.00  0.00     0.052 C 
HETATM    4  C7  UNL     1      30.081   9.641  49.218  1.00  0.00     0.129 C 
HETATM    5  N2  UNL     1      30.388  11.050  49.031  1.00  0.00    -0.224 NA
HETATM    6  C8  UNL     1      30.846  11.479  47.879  1.00  0.00     0.238 C 
HETATM    7  N3  UNL     1      31.332  11.995  46.688  1.00  0.00    -0.212 NA
HETATM    8  C9  UNL     1      31.618  11.497  45.561  1.00  0.00     0.207 C 
HETATM    9  S1  UNL     1      31.786  10.187  44.356  1.00  0.00    -0.045 SA
HETATM   10  C11 UNL     1      31.654   8.534  44.913  1.00  0.00     0.312 C 
HETATM   11  C12 UNL     1      30.397   8.247  45.675  1.00  0.00     0.019 C 
HETATM   12  C13 UNL     1      29.105   7.858  45.952  1.00  0.00     0.001 C 
HETATM   13  C14 UNL     1      28.192   7.759  47.140  1.00  0.00     0.029 C 
HETATM   14  C15 UNL     1      28.439   8.049  48.398  1.00  0.00     0.031 C 
HETATM   15  N4  UNL     1      29.292   8.494  49.480  1.00  0.00    -0.341 N 
HETATM   16  N5  UNL     1      32.749   8.028  45.655  1.00  0.00     0.102 N 
HETATM   17  C18 UNL     1      33.430   8.918  46.508  1.00  0.00     0.277 C 
HETATM   18  C19 UNL     1      34.213   8.180  47.608  1.00  0.00     0.087 C 
HETATM   19  H17 UNL     1      29.384   8.055  50.399  1.00  0.00     0.167 HD
HETATM   20  H18 UNL     1      33.448   7.597  45.004  1.00  0.00     0.317 HD
ENDROOT
BRANCH   1  21
HETATM   21  N1  UNL     1      33.449   5.940  48.471  1.00  0.00    -0.328 N 
HETATM   22  C3  UNL     1      32.659   5.031  47.678  1.00  0.00     0.241 C 
HETATM   23  O1  UNL     1      31.870   5.731  47.004  1.00  0.00    -0.269 OA
HETATM   24  H4  UNL     1      34.209   5.625  49.147  1.00  0.00     0.169 HD
BRANCH  22  25
HETATM   25  C2  UNL     1      32.901   3.602  47.800  1.00  0.00     0.048 C 
HETATM   26  C1  UNL     1      34.159   3.144  47.761  1.00  0.00     0.037 C 
ENDBRANCH  22  25
ENDBRANCH   1  21
BRANCH  14  27
HETATM   27  C16 UNL     1      27.160   7.753  49.086  1.00  0.00     0.020 C 
HETATM   28  C17 UNL     1      26.417   6.714  49.383  1.00  0.00     0.208 C 
HETATM   29 BR1  UNL     1      26.531   4.826  49.094  1.00  0.00    -0.193 Br
ENDBRANCH  14  27
BRANCH   8  30
HETATM   30  O2  UNL     1      32.046  12.620  44.865  1.00  0.00    -0.334 OA
HETATM   31  C10 UNL     1      31.264  13.730  44.490  1.00  0.00     0.212 C 
ENDBRANCH   8  30
TORSDOF 4
ENDMDL
MODEL 7
REMARK VINA RESULT:      -6.9     22.693     25.355
REMARK  4 active torsions:
REMARK  status: ('A' for Active; 'I' for Inactive)
REMARK    1  A    between atoms: C2_2  and  C3_3 
REMARK       I    between atoms: C3_3  and  N1_5 
REMARK    2  A    between atoms: N1_5  and  C4_6 
REMARK    3  A    between atoms: C9_13  and  O2_14 
REMARK    4  A    between atoms: C15_21  and  C16_22 
ROOT
HETATM    1  C4  UNL     1      41.546  -0.120  68.740  1.00  0.00     0.014 C 
HETATM    2  C5  UNL     1      40.207  -0.012  68.727  1.00  0.00     0.029 C 
HETATM    3  C6  UNL     1      38.891  -0.273  68.131  1.00  0.00     0.052 C 
HETATM    4  C7  UNL     1      37.588  -0.206  68.133  1.00  0.00     0.129 C 
HETATM    5  N2  UNL     1      37.253  -0.865  66.881  1.00  0.00    -0.224 NA
HETATM    6  C8  UNL     1      37.678  -2.083  66.642  1.00  0.00     0.238 C 
HETATM    7  N3  UNL     1      38.094  -3.367  66.329  1.00  0.00    -0.212 NA
HETATM    8  C9  UNL     1      38.783  -4.244  66.928  1.00  0.00     0.207 C 
HETATM    9  S1  UNL     1      39.751  -4.911  68.274  1.00  0.00    -0.045 SA
HETATM   10  C11 UNL     1      40.278  -3.817  69.532  1.00  0.00     0.312 C 
HETATM   11  C12 UNL     1      39.168  -3.031  70.161  1.00  0.00     0.019 C 
HETATM   12  C13 UNL     1      38.165  -2.667  71.033  1.00  0.00     0.001 C 
HETATM   13  C14 UNL     1      37.189  -1.541  71.213  1.00  0.00     0.029 C 
HETATM   14  C15 UNL     1      37.033  -0.457  70.485  1.00  0.00     0.031 C 
HETATM   15  N4  UNL     1      37.369   0.421  69.385  1.00  0.00    -0.341 N 
HETATM   16  N5  UNL     1      41.319  -2.919  69.194  1.00  0.00     0.102 N 
HETATM   17  C18 UNL     1      41.348  -2.414  67.879  1.00  0.00     0.277 C 
HETATM   18  C19 UNL     1      42.155  -1.107  67.779  1.00  0.00     0.087 C 
HETATM   19  H17 UNL     1      37.473   1.438  69.430  1.00  0.00     0.167 HD
HETATM   20  H18 UNL     1      42.247  -3.362  69.395  1.00  0.00     0.317 HD
ENDROOT
BRANCH   1  21
HETATM   21  N1  UNL     1      42.339   0.464  69.738  1.00  0.00    -0.328 N 
HETATM   22  C3  UNL     1      43.095   1.657  69.447  1.00  0.00     0.241 C 
HETATM   23  O1  UNL     1      42.867   1.946  68.250  1.00  0.00    -0.269 OA
HETATM   24  H4  UNL     1      42.340  -0.017  70.689  1.00  0.00     0.169 HD
BRANCH  22  25
HETATM   25  C2  UNL     1      43.907   2.247  70.499  1.00  0.00     0.048 C 
HETATM   26  C1  UNL     1      44.540   1.447  71.366  1.00  0.00     0.037 C 
ENDBRANCH  22  25
ENDBRANCH   1  21
BRANCH  14  27
HETATM   27  C16 UNL     1      35.922   0.260  71.153  1.00  0.00     0.020 C 
HETATM   28  C17 UNL     1      35.744   1.311  71.918  1.00  0.00     0.208 C 
HETATM   29 BR1  UNL     1      36.877   2.645  72.691  1.00  0.00    -0.193 Br
ENDBRANCH  14  27
BRANCH   8  30
HETATM   30  O2  UNL     1      38.780  -5.276  66.000  1.00  0.00    -0.334 OA
HETATM   31  C10 UNL     1      38.727  -6.658  66.274  1.00  0.00     0.212 C 
ENDBRANCH   8  30
TORSDOF 4
ENDMDL
MODEL 8
REMARK VINA RESULT:      -6.8      7.254     10.917
REMARK  4 active torsions:
REMARK  status: ('A' for Active; 'I' for Inactive)
REMARK    1  A    between atoms: C2_2  and  C3_3 
REMARK       I    between atoms: C3_3  and  N1_5 
REMARK    2  A    between atoms: N1_5  and  C4_6 
REMARK    3  A    between atoms: C9_13  and  O2_14 
REMARK    4  A    between atoms: C15_21  and  C16_22 
ROOT
HETATM    1  C4  UNL     1      31.358   7.427  47.704  1.00  0.00     0.014 C 
HETATM    2  C5  UNL     1      30.207   7.729  48.326  1.00  0.00     0.029 C 
HETATM    3  C6  UNL     1      29.289   8.682  48.964  1.00  0.00     0.052 C 
HETATM    4  C7  UNL     1      28.156   8.990  49.534  1.00  0.00     0.129 C 
HETATM    5  N2  UNL     1      28.341  10.404  49.820  1.00  0.00    -0.224 NA
HETATM    6  C8  UNL     1      28.645  11.238  48.855  1.00  0.00     0.238 C 
HETATM    7  N3  UNL     1      28.965  12.172  47.881  1.00  0.00    -0.212 NA
HETATM    8  C9  UNL     1      29.166  12.114  46.633  1.00  0.00     0.207 C 
HETATM    9  S1  UNL     1      29.298  11.308  45.043  1.00  0.00    -0.045 SA
HETATM   10  C11 UNL     1      29.342   9.560  45.006  1.00  0.00     0.312 C 
HETATM   11  C12 UNL     1      28.196   8.906  45.714  1.00  0.00     0.019 C 
HETATM   12  C13 UNL     1      26.970   8.317  45.936  1.00  0.00     0.001 C 
HETATM   13  C14 UNL     1      26.196   7.732  47.082  1.00  0.00     0.029 C 
HETATM   14  C15 UNL     1      26.553   7.607  48.342  1.00  0.00     0.031 C 
HETATM   15  N4  UNL     1      27.482   7.748  49.443  1.00  0.00    -0.341 N 
HETATM   16  N5  UNL     1      30.541   8.948  45.444  1.00  0.00     0.102 N 
HETATM   17  C18 UNL     1      31.244   9.565  46.498  1.00  0.00     0.277 C 
HETATM   18  C19 UNL     1      32.189   8.584  47.215  1.00  0.00     0.087 C 
HETATM   19  H17 UNL     1      27.700   7.037  50.146  1.00  0.00     0.167 HD
HETATM   20  H18 UNL     1      31.197   8.835  44.635  1.00  0.00     0.317 HD
ENDROOT
BRANCH   1  21
HETATM   21  N1  UNL     1      31.680   6.120  47.310  1.00  0.00    -0.328 N 
HETATM   22  C3  UNL     1      32.424   5.265  48.203  1.00  0.00     0.241 C 
HETATM   23  O1  UNL     1      32.652   5.933  49.237  1.00  0.00    -0.269 OA
HETATM   24  H4  UNL     1      31.346   5.816  46.345  1.00  0.00     0.169 HD
BRANCH  22  25
HETATM   25  C2  UNL     1      32.743   3.912  47.774  1.00  0.00     0.048 C 
HETATM   26  C1  UNL     1      32.414   3.521  46.537  1.00  0.00     0.037 C 
ENDBRANCH  22  25
ENDBRANCH   1  21
BRANCH  14  27
HETATM   27  C16 UNL     1      25.378   6.968  48.979  1.00  0.00     0.020 C 
HETATM   28  C17 UNL     1      25.036   5.804  49.477  1.00  0.00     0.208 C 
HETATM   29 BR1  UNL     1      25.896   4.109  49.700  1.00  0.00    -0.193 Br
ENDBRANCH  14  27
BRANCH   8  30
HETATM   30  O2  UNL     1      29.438  13.442  46.336  1.00  0.00    -0.334 OA
HETATM   31  C10 UNL     1      29.046  14.572  47.081  1.00  0.00     0.212 C 
ENDBRANCH   8  30
TORSDOF 4
ENDMDL
MODEL 9
REMARK VINA RESULT:      -6.6      2.612      3.000
REMARK  4 active torsions:
REMARK  status: ('A' for Active; 'I' for Inactive)
REMARK    1  A    between atoms: C2_2  and  C3_3 
REMARK       I    between atoms: C3_3  and  N1_5 
REMARK    2  A    between atoms: N1_5  and  C4_6 
REMARK    3  A    between atoms: C9_13  and  O2_14 
REMARK    4  A    between atoms: C15_21  and  C16_22 
ROOT
HETATM    1  C4  UNL     1      20.533   0.277  51.148  1.00  0.00     0.014 C 
HETATM    2  C5  UNL     1      21.402   1.018  50.442  1.00  0.00     0.029 C 
HETATM    3  C6  UNL     1      21.770   1.814  49.264  1.00  0.00     0.052 C 
HETATM    4  C7  UNL     1      22.596   2.567  48.590  1.00  0.00     0.129 C 
HETATM    5  N2  UNL     1      21.839   2.827  47.375  1.00  0.00    -0.224 NA
HETATM    6  C8  UNL     1      20.642   3.358  47.445  1.00  0.00     0.238 C 
HETATM    7  N3  UNL     1      19.373   3.917  47.450  1.00  0.00    -0.212 NA
HETATM    8  C9  UNL     1      18.588   4.320  48.356  1.00  0.00     0.207 C 
HETATM    9  S1  UNL     1      18.079   4.652  50.037  1.00  0.00    -0.045 SA
HETATM   10  C11 UNL     1      19.027   3.965  51.337  1.00  0.00     0.312 C 
HETATM   11  C12 UNL     1      20.487   4.294  51.266  1.00  0.00     0.019 C 
HETATM   12  C13 UNL     1      21.685   4.940  51.478  1.00  0.00     0.001 C 
HETATM   13  C14 UNL     1      23.125   4.794  51.078  1.00  0.00     0.029 C 
HETATM   14  C15 UNL     1      23.684   3.871  50.326  1.00  0.00     0.031 C 
HETATM   15  N4  UNL     1      23.660   2.670  49.519  1.00  0.00    -0.341 N 
HETATM   16  N5  UNL     1      18.897   2.570  51.545  1.00  0.00     0.102 N 
HETATM   17  C18 UNL     1      18.711   1.753  50.413  1.00  0.00     0.277 C 
HETATM   18  C19 UNL     1      19.100   0.289  50.685  1.00  0.00     0.087 C 
HETATM   19  H17 UNL     1      24.325   1.894  49.566  1.00  0.00     0.167 HD
HETATM   20  H18 UNL     1      18.114   2.385  52.216  1.00  0.00     0.317 HD
ENDROOT
BRANCH   1  21
HETATM   21  N1  UNL     1      20.863  -0.295  52.386  1.00  0.00    -0.328 N 
HETATM   22  C3  UNL     1      21.166   0.556  53.510  1.00  0.00     0.241 C 
HETATM   23  O1  UNL     1      21.066   1.738  53.107  1.00  0.00    -0.269 OA
HETATM   24  H4  UNL     1      20.871  -1.358  52.433  1.00  0.00     0.169 HD
BRANCH  22  25
HETATM   25  C2  UNL     1      21.503  -0.059  54.784  1.00  0.00     0.048 C 
HETATM   26  C1  UNL     1      22.074  -1.269  54.798  1.00  0.00     0.037 C 
ENDBRANCH  22  25
ENDBRANCH   1  21
BRANCH  14  27
HETATM   27  C16 UNL     1      25.113   4.263  50.292  1.00  0.00     0.020 C 
HETATM   28  C17 UNL     1      25.872   5.180  49.740  1.00  0.00     0.208 C 
HETATM   29 BR1  UNL     1      25.586   6.665  48.567  1.00  0.00    -0.193 Br
ENDBRANCH  14  27
BRANCH   8  30
HETATM   30  O2  UNL     1      17.502   4.752  47.608  1.00  0.00    -0.334 OA
HETATM   31  C10 UNL     1      16.156   4.802  48.023  1.00  0.00     0.212 C 
ENDBRANCH   8  30
TORSDOF 4
ENDMDL
