MODEL 1
REMARK VINA RESULT:      -8.2      0.000      0.000
REMARK  3 active torsions:
REMARK  status: ('A' for Active; 'I' for Inactive)
REMARK    1  A    between atoms: C5_6  and  C6_7 
REMARK    2  A    between atoms: C6_7  and  O1_8 
REMARK    3  A    between atoms: O1_8  and  C7_9 
ROOT
HETATM    1  C7  UNL     1      24.636   2.329  51.658  1.00  0.00     0.121 C 
HETATM    2  C8  UNL     1      25.288   3.410  50.886  1.00  0.00     0.036 C 
HETATM    3  C9  UNL     1      24.982   4.148  49.850  1.00  0.00     0.117 C 
HETATM    4  N1  UNL     1      25.640   5.203  49.115  1.00  0.00    -0.254 NA
HETATM    5  C10 UNL     1      25.618   6.418  49.581  1.00  0.00     0.233 C 
HETATM    6  N2  UNL     1      24.874   6.109  50.727  1.00  0.00    -0.237 NA
HETATM    7  C11 UNL     1      23.591   6.069  50.803  1.00  0.00     0.208 C 
HETATM    8  N3  UNL     1      22.553   5.798  51.779  1.00  0.00    -0.351 N 
HETATM    9  C12 UNL     1      23.033   4.446  51.938  1.00  0.00     0.030 C 
HETATM   10  C13 UNL     1      23.799   4.188  53.014  1.00  0.00     0.006 C 
HETATM   11  C14 UNL     1      24.516   2.883  53.094  1.00  0.00     0.077 C 
HETATM   12  C15 UNL     1      22.718   3.400  50.949  1.00  0.00     0.052 C 
HETATM   13  C16 UNL     1      23.227   2.200  51.169  1.00  0.00     0.052 C 
HETATM   14 CL1  UNL     1      22.115   0.888  50.826  1.00  0.00    -0.085 Cl
HETATM   15  H10 UNL     1      21.882   6.547  52.030  1.00  0.00     0.166 HD
ENDROOT
BRANCH   1  16
HETATM   16  O1  UNL     1      25.325   1.160  51.737  1.00  0.00    -0.365 OA
BRANCH  16  17
HETATM   17  C6  UNL     1      25.549   0.685  53.000  1.00  0.00     0.208 C 
BRANCH  17  18
HETATM   18  C5  UNL     1      26.980   0.275  53.193  1.00  0.00    -0.032 A 
HETATM   19  C4  UNL     1      28.026   1.085  53.532  1.00  0.00     0.009 A 
HETATM   20  C3  UNL     1      29.297   0.555  53.674  1.00  0.00     0.004 A 
HETATM   21  C2  UNL     1      29.544  -0.789  53.480  1.00  0.00     0.042 A 
HETATM   22  C1  UNL     1      28.473  -1.566  53.141  1.00  0.00     0.117 A 
HETATM   23  F1  UNL     1      28.704  -2.905  52.945  1.00  0.00    -0.206 F 
HETATM   24  C17 UNL     1      27.167  -1.092  52.983  1.00  0.00     0.051 A 
ENDBRANCH  17  18
ENDBRANCH  16  17
ENDBRANCH   1  16
TORSDOF 3
ENDMDL
MODEL 2
REMARK VINA RESULT:      -8.2      1.035      1.173
REMARK  3 active torsions:
REMARK  status: ('A' for Active; 'I' for Inactive)
REMARK    1  A    between atoms: C5_6  and  C6_7 
REMARK    2  A    between atoms: C6_7  and  O1_8 
REMARK    3  A    between atoms: O1_8  and  C7_9 
ROOT
HETATM    1  C7  UNL     1      24.631   2.276  52.366  1.00  0.00     0.121 C 
HETATM    2  C8  UNL     1      25.669   2.825  51.464  1.00  0.00     0.036 C 
HETATM    3  C9  UNL     1      25.849   2.907  50.171  1.00  0.00     0.117 C 
HETATM    4  N1  UNL     1      26.875   3.453  49.314  1.00  0.00    -0.254 NA
HETATM    5  C10 UNL     1      26.894   4.733  49.072  1.00  0.00     0.233 C 
HETATM    6  N2  UNL     1      25.771   5.033  49.853  1.00  0.00    -0.237 NA
HETATM    7  C11 UNL     1      24.547   4.990  49.461  1.00  0.00     0.208 C 
HETATM    8  N3  UNL     1      23.214   5.224  49.981  1.00  0.00    -0.351 N 
HETATM    9  C12 UNL     1      23.389   4.169  50.950  1.00  0.00     0.030 C 
HETATM   10  C13 UNL     1      23.701   4.535  52.207  1.00  0.00     0.006 C 
HETATM   11  C14 UNL     1      24.130   3.489  53.179  1.00  0.00     0.077 C 
HETATM   12  C15 UNL     1      23.259   2.751  50.571  1.00  0.00     0.052 C 
HETATM   13  C16 UNL     1      23.466   1.859  51.525  1.00  0.00     0.052 C 
HETATM   14 CL1  UNL     1      22.336   0.517  51.493  1.00  0.00    -0.085 Cl
HETATM   15  H10 UNL     1      22.627   5.968  49.561  1.00  0.00     0.166 HD
ENDROOT
BRANCH   1  16
HETATM   16  O1  UNL     1      25.058   1.344  53.259  1.00  0.00    -0.365 OA
BRANCH  16  17
HETATM   17  C6  UNL     1      25.591   0.205  52.723  1.00  0.00     0.208 C 
BRANCH  17  18
HETATM   18  C5  UNL     1      27.024   0.020  53.126  1.00  0.00    -0.032 A 
HETATM   19  C4  UNL     1      27.858   0.967  53.647  1.00  0.00     0.009 A 
HETATM   20  C3  UNL     1      29.164   0.641  53.971  1.00  0.00     0.004 A 
HETATM   21  C2  UNL     1      29.658  -0.635  53.779  1.00  0.00     0.042 A 
HETATM   22  C1  UNL     1      28.794  -1.553  53.255  1.00  0.00     0.117 A 
HETATM   23  F1  UNL     1      29.271  -2.826  53.059  1.00  0.00    -0.206 F 
HETATM   24  C17 UNL     1      27.465  -1.286  52.908  1.00  0.00     0.051 A 
ENDBRANCH  17  18
ENDBRANCH  16  17
ENDBRANCH   1  16
TORSDOF 3
ENDMDL
MODEL 3
REMARK VINA RESULT:      -8.1      4.448      6.942
REMARK  3 active torsions:
REMARK  status: ('A' for Active; 'I' for Inactive)
REMARK    1  A    between atoms: C5_6  and  C6_7 
REMARK    2  A    between atoms: C6_7  and  O1_8 
REMARK    3  A    between atoms: O1_8  and  C7_9 
ROOT
HETATM    1  C7  UNL     1      25.536   0.606  53.228  1.00  0.00     0.121 C 
HETATM    2  C8  UNL     1      26.147  -0.741  53.182  1.00  0.00     0.036 C 
HETATM    3  C9  UNL     1      26.987  -1.371  52.401  1.00  0.00     0.117 C 
HETATM    4  N1  UNL     1      27.571  -2.692  52.380  1.00  0.00    -0.254 NA
HETATM    5  C10 UNL     1      28.589  -2.954  53.149  1.00  0.00     0.233 C 
HETATM    6  N2  UNL     1      28.661  -1.675  53.716  1.00  0.00    -0.237 NA
HETATM    7  C11 UNL     1      29.301  -0.671  53.231  1.00  0.00     0.208 C 
HETATM    8  N3  UNL     1      29.570   0.720  53.543  1.00  0.00    -0.351 N 
HETATM    9  C12 UNL     1      28.163   1.028  53.457  1.00  0.00     0.030 C 
HETATM   10  C13 UNL     1      27.484   1.132  54.614  1.00  0.00     0.006 C 
HETATM   11  C14 UNL     1      25.995   1.204  54.575  1.00  0.00     0.077 C 
HETATM   12  C15 UNL     1      27.493   1.193  52.154  1.00  0.00     0.052 C 
HETATM   13  C16 UNL     1      26.195   1.447  52.180  1.00  0.00     0.052 C 
HETATM   14 CL1  UNL     1      25.689   2.652  51.011  1.00  0.00    -0.085 Cl
HETATM   15  H10 UNL     1      30.546   1.025  53.709  1.00  0.00     0.166 HD
ENDROOT
BRANCH   1  16
HETATM   16  O1  UNL     1      24.177   0.639  53.219  1.00  0.00    -0.365 OA
BRANCH  16  17
HETATM   17  C6  UNL     1      23.550  -0.514  53.602  1.00  0.00     0.208 C 
BRANCH  17  18
HETATM   18  C5  UNL     1      22.080  -0.472  53.307  1.00  0.00    -0.032 A 
HETATM   19  C4  UNL     1      21.073  -0.970  54.084  1.00  0.00     0.009 A 
HETATM   20  C3  UNL     1      19.757  -0.855  53.673  1.00  0.00     0.004 A 
HETATM   21  C2  UNL     1      19.424  -0.241  52.482  1.00  0.00     0.042 A 
HETATM   22  C1  UNL     1      20.457   0.243  51.733  1.00  0.00     0.117 A 
HETATM   23  F1  UNL     1      20.141   0.856  50.545  1.00  0.00    -0.206 F 
HETATM   24  C17 UNL     1      21.806   0.158  52.092  1.00  0.00     0.051 A 
ENDBRANCH  17  18
ENDBRANCH  16  17
ENDBRANCH   1  16
TORSDOF 3
ENDMDL
MODEL 4
REMARK VINA RESULT:      -8.1      3.904      6.038
REMARK  3 active torsions:
REMARK  status: ('A' for Active; 'I' for Inactive)
REMARK    1  A    between atoms: C5_6  and  C6_7 
REMARK    2  A    between atoms: C6_7  and  O1_8 
REMARK    3  A    between atoms: O1_8  and  C7_9 
ROOT
HETATM    1  C7  UNL     1      24.778   1.411  52.114  1.00  0.00     0.121 C 
HETATM    2  C8  UNL     1      25.626   0.257  52.487  1.00  0.00     0.036 C 
HETATM    3  C9  UNL     1      26.787  -0.221  52.117  1.00  0.00     0.117 C 
HETATM    4  N1  UNL     1      27.597  -1.353  52.501  1.00  0.00    -0.254 NA
HETATM    5  C10 UNL     1      28.332  -1.280  53.574  1.00  0.00     0.233 C 
HETATM    6  N2  UNL     1      27.953   0.027  53.907  1.00  0.00    -0.237 NA
HETATM    7  C11 UNL     1      28.502   1.105  53.472  1.00  0.00     0.208 C 
HETATM    8  N3  UNL     1      28.367   2.542  53.605  1.00  0.00    -0.351 N 
HETATM    9  C12 UNL     1      27.038   2.485  53.047  1.00  0.00     0.030 C 
HETATM   10  C13 UNL     1      26.006   2.533  53.910  1.00  0.00     0.006 C 
HETATM   11  C14 UNL     1      24.633   2.234  53.412  1.00  0.00     0.077 C 
HETATM   12  C15 UNL     1      26.821   2.352  51.596  1.00  0.00     0.052 C 
HETATM   13  C16 UNL     1      25.566   2.281  51.185  1.00  0.00     0.052 C 
HETATM   14 CL1  UNL     1      25.247   3.203  49.728  1.00  0.00    -0.085 Cl
HETATM   15  H10 UNL     1      29.150   3.092  54.003  1.00  0.00     0.166 HD
ENDROOT
BRANCH   1  16
HETATM   16  O1  UNL     1      23.522   1.109  51.690  1.00  0.00    -0.365 OA
BRANCH  16  17
HETATM   17  C6  UNL     1      22.501   1.647  52.422  1.00  0.00     0.208 C 
BRANCH  17  18
HETATM   18  C5  UNL     1      21.532   0.597  52.881  1.00  0.00    -0.032 A 
HETATM   19  C4  UNL     1      20.196   0.538  52.606  1.00  0.00     0.009 A 
HETATM   20  C3  UNL     1      19.429  -0.500  53.106  1.00  0.00     0.004 A 
HETATM   21  C2  UNL     1      19.983  -1.495  53.887  1.00  0.00     0.042 A 
HETATM   22  C1  UNL     1      21.321  -1.400  54.141  1.00  0.00     0.117 A 
HETATM   23  F1  UNL     1      21.886  -2.382  54.917  1.00  0.00    -0.206 F 
HETATM   24  C17 UNL     1      22.149  -0.378  53.666  1.00  0.00     0.051 A 
ENDBRANCH  17  18
ENDBRANCH  16  17
ENDBRANCH   1  16
TORSDOF 3
ENDMDL
MODEL 5
REMARK VINA RESULT:      -7.9      2.458      3.058
REMARK  3 active torsions:
REMARK  status: ('A' for Active; 'I' for Inactive)
REMARK    1  A    between atoms: C5_6  and  C6_7 
REMARK    2  A    between atoms: C6_7  and  O1_8 
REMARK    3  A    between atoms: O1_8  and  C7_9 
ROOT
HETATM    1  C7  UNL     1      23.880   1.816  51.541  1.00  0.00     0.121 C 
HETATM    2  C8  UNL     1      23.063   1.869  50.308  1.00  0.00     0.036 C 
HETATM    3  C9  UNL     1      21.969   1.297  49.874  1.00  0.00     0.117 C 
HETATM    4  N1  UNL     1      21.189   1.370  48.661  1.00  0.00    -0.254 NA
HETATM    5  C10 UNL     1      20.355   2.356  48.493  1.00  0.00     0.233 C 
HETATM    6  N2  UNL     1      20.631   2.974  49.720  1.00  0.00    -0.237 NA
HETATM    7  C11 UNL     1      20.067   2.703  50.844  1.00  0.00     0.208 C 
HETATM    8  N3  UNL     1      20.112   3.126  52.230  1.00  0.00    -0.351 N 
HETATM    9  C12 UNL     1      21.489   2.706  52.330  1.00  0.00     0.030 C 
HETATM   10  C13 UNL     1      22.432   3.662  52.241  1.00  0.00     0.006 C 
HETATM   11  C14 UNL     1      23.860   3.257  52.093  1.00  0.00     0.077 C 
HETATM   12  C15 UNL     1      21.846   1.286  52.496  1.00  0.00     0.052 C 
HETATM   13  C16 UNL     1      23.136   0.999  52.550  1.00  0.00     0.052 C 
HETATM   14 CL1  UNL     1      23.539  -0.211  53.754  1.00  0.00    -0.085 Cl
HETATM   15  H10 UNL     1      19.267   3.542  52.663  1.00  0.00     0.166 HD
ENDROOT
BRANCH   1  16
HETATM   16  O1  UNL     1      25.184   1.471  51.372  1.00  0.00    -0.365 OA
BRANCH  16  17
HETATM   17  C6  UNL     1      26.094   2.235  52.047  1.00  0.00     0.208 C 
BRANCH  17  18
HETATM   18  C5  UNL     1      27.170   1.396  52.671  1.00  0.00    -0.032 A 
HETATM   19  C4  UNL     1      28.261   1.843  53.360  1.00  0.00     0.009 A 
HETATM   20  C3  UNL     1      29.173   0.939  53.879  1.00  0.00     0.004 A 
HETATM   21  C2  UNL     1      29.009  -0.423  53.720  1.00  0.00     0.042 A 
HETATM   22  C1  UNL     1      27.907  -0.830  53.024  1.00  0.00     0.117 A 
HETATM   23  F1  UNL     1      27.731  -2.182  52.857  1.00  0.00    -0.206 F 
HETATM   24  C17 UNL     1      26.951   0.032  52.476  1.00  0.00     0.051 A 
ENDBRANCH  17  18
ENDBRANCH  16  17
ENDBRANCH   1  16
TORSDOF 3
ENDMDL
MODEL 6
REMARK VINA RESULT:      -7.9      2.078      3.017
REMARK  3 active torsions:
REMARK  status: ('A' for Active; 'I' for Inactive)
REMARK    1  A    between atoms: C5_6  and  C6_7 
REMARK    2  A    between atoms: C6_7  and  O1_8 
REMARK    3  A    between atoms: O1_8  and  C7_9 
ROOT
HETATM    1  C7  UNL     1      23.941   2.460  52.004  1.00  0.00     0.121 C 
HETATM    2  C8  UNL     1      23.083   3.666  51.996  1.00  0.00     0.036 C 
HETATM    3  C9  UNL     1      23.110   4.840  51.419  1.00  0.00     0.117 C 
HETATM    4  N1  UNL     1      22.255   6.004  51.427  1.00  0.00    -0.254 NA
HETATM    5  C10 UNL     1      21.188   6.020  50.680  1.00  0.00     0.233 C 
HETATM    6  N2  UNL     1      21.381   4.740  50.144  1.00  0.00    -0.237 NA
HETATM    7  C11 UNL     1      22.088   4.456  49.108  1.00  0.00     0.208 C 
HETATM    8  N3  UNL     1      22.480   3.301  48.324  1.00  0.00    -0.351 N 
HETATM    9  C12 UNL     1      23.151   2.733  49.468  1.00  0.00     0.030 C 
HETATM   10  C13 UNL     1      22.501   1.771  50.147  1.00  0.00     0.006 C 
HETATM   11  C14 UNL     1      23.039   1.328  51.466  1.00  0.00     0.077 C 
HETATM   12  C15 UNL     1      24.482   3.207  49.888  1.00  0.00     0.052 C 
HETATM   13  C16 UNL     1      25.002   2.643  50.965  1.00  0.00     0.052 C 
HETATM   14 CL1  UNL     1      26.717   2.303  50.825  1.00  0.00    -0.085 Cl
HETATM   15  H10 UNL     1      22.199   3.243  47.328  1.00  0.00     0.166 HD
ENDROOT
BRANCH   1  16
HETATM   16  O1  UNL     1      24.393   2.065  53.223  1.00  0.00    -0.365 OA
BRANCH  16  17
HETATM   17  C6  UNL     1      24.362   0.719  53.463  1.00  0.00     0.208 C 
BRANCH  17  18
HETATM   18  C5  UNL     1      25.736   0.118  53.439  1.00  0.00    -0.032 A 
HETATM   19  C4  UNL     1      26.170  -0.902  52.641  1.00  0.00     0.009 A 
HETATM   20  C3  UNL     1      27.476  -1.351  52.737  1.00  0.00     0.004 A 
HETATM   21  C2  UNL     1      28.369  -0.789  53.630  1.00  0.00     0.042 A 
HETATM   22  C1  UNL     1      27.896   0.226  54.410  1.00  0.00     0.117 A 
HETATM   23  F1  UNL     1      28.772   0.795  55.303  1.00  0.00    -0.206 F 
HETATM   24  C17 UNL     1      26.590   0.724  54.361  1.00  0.00     0.051 A 
ENDBRANCH  17  18
ENDBRANCH  16  17
ENDBRANCH   1  16
TORSDOF 3
ENDMDL
MODEL 7
REMARK VINA RESULT:      -7.8      2.246      3.135
REMARK  3 active torsions:
REMARK  status: ('A' for Active; 'I' for Inactive)
REMARK    1  A    between atoms: C5_6  and  C6_7 
REMARK    2  A    between atoms: C6_7  and  O1_8 
REMARK    3  A    between atoms: O1_8  and  C7_9 
ROOT
HETATM    1  C7  UNL     1      24.692   2.546  51.673  1.00  0.00     0.121 C 
HETATM    2  C8  UNL     1      23.734   1.711  50.915  1.00  0.00     0.036 C 
HETATM    3  C9  UNL     1      22.450   1.738  50.662  1.00  0.00     0.117 C 
HETATM    4  N1  UNL     1      21.537   0.907  49.913  1.00  0.00    -0.254 NA
HETATM    5  C10 UNL     1      21.467   1.036  48.619  1.00  0.00     0.233 C 
HETATM    6  N2  UNL     1      22.431   2.049  48.533  1.00  0.00    -0.237 NA
HETATM    7  C11 UNL     1      22.213   3.310  48.659  1.00  0.00     0.208 C 
HETATM    8  N3  UNL     1      22.942   4.563  48.630  1.00  0.00    -0.351 N 
HETATM    9  C12 UNL     1      23.728   4.150  49.767  1.00  0.00     0.030 C 
HETATM   10  C13 UNL     1      24.966   3.683  49.521  1.00  0.00     0.006 C 
HETATM   11  C14 UNL     1      25.721   3.021  50.624  1.00  0.00     0.077 C 
HETATM   12  C15 UNL     1      23.187   4.213  51.136  1.00  0.00     0.052 C 
HETATM   13  C16 UNL     1      23.976   3.786  52.108  1.00  0.00     0.052 C 
HETATM   14 CL1  UNL     1      23.926   4.787  53.548  1.00  0.00    -0.085 Cl
HETATM   15  H10 UNL     1      22.711   5.269  47.907  1.00  0.00     0.166 HD
ENDROOT
BRANCH   1  16
HETATM   16  O1  UNL     1      25.385   1.909  52.653  1.00  0.00    -0.365 OA
BRANCH  16  17
HETATM   17  C6  UNL     1      26.726   2.174  52.703  1.00  0.00     0.208 C 
BRANCH  17  18
HETATM   18  C5  UNL     1      27.528   0.931  52.952  1.00  0.00    -0.032 A 
HETATM   19  C4  UNL     1      28.766   0.856  53.523  1.00  0.00     0.009 A 
HETATM   20  C3  UNL     1      29.383  -0.372  53.686  1.00  0.00     0.004 A 
HETATM   21  C2  UNL     1      28.775  -1.544  53.281  1.00  0.00     0.042 A 
HETATM   22  C1  UNL     1      27.539  -1.428  52.713  1.00  0.00     0.117 A 
HETATM   23  F1  UNL     1      26.922  -2.585  52.305  1.00  0.00    -0.206 F 
HETATM   24  C17 UNL     1      26.864  -0.218  52.521  1.00  0.00     0.051 A 
ENDBRANCH  17  18
ENDBRANCH  16  17
ENDBRANCH   1  16
TORSDOF 3
ENDMDL
MODEL 8
REMARK VINA RESULT:      -7.7      3.977      5.999
REMARK  3 active torsions:
REMARK  status: ('A' for Active; 'I' for Inactive)
REMARK    1  A    between atoms: C5_6  and  C6_7 
REMARK    2  A    between atoms: C6_7  and  O1_8 
REMARK    3  A    between atoms: O1_8  and  C7_9 
ROOT
HETATM    1  C7  UNL     1      23.119   2.386  50.628  1.00  0.00     0.121 C 
HETATM    2  C8  UNL     1      23.897   1.511  51.534  1.00  0.00     0.036 C 
HETATM    3  C9  UNL     1      24.066   1.403  52.827  1.00  0.00     0.117 C 
HETATM    4  N1  UNL     1      24.834   0.534  53.689  1.00  0.00    -0.254 NA
HETATM    5  C10 UNL     1      24.376  -0.651  53.975  1.00  0.00     0.233 C 
HETATM    6  N2  UNL     1      23.202  -0.527  53.220  1.00  0.00    -0.237 NA
HETATM    7  C11 UNL     1      22.096  -0.015  53.628  1.00  0.00     0.208 C 
HETATM    8  N3  UNL     1      20.759   0.257  53.134  1.00  0.00    -0.351 N 
HETATM    9  C12 UNL     1      21.293   1.140  52.126  1.00  0.00     0.030 C 
HETATM   10  C13 UNL     1      21.412   0.649  50.879  1.00  0.00     0.006 C 
HETATM   11  C14 UNL     1      22.178   1.429  49.865  1.00  0.00     0.077 C 
HETATM   12  C15 UNL     1      21.716   2.513  52.456  1.00  0.00     0.052 C 
HETATM   13  C16 UNL     1      22.219   3.235  51.469  1.00  0.00     0.052 C 
HETATM   14 CL1  UNL     1      21.678   4.903  51.469  1.00  0.00    -0.085 Cl
HETATM   15  H10 UNL     1      19.947  -0.200  53.588  1.00  0.00     0.166 HD
ENDROOT
BRANCH   1  16
HETATM   16  O1  UNL     1      23.841   3.063  49.697  1.00  0.00    -0.365 OA
BRANCH  16  17
HETATM   17  C6  UNL     1      25.186   3.147  49.931  1.00  0.00     0.208 C 
BRANCH  17  18
HETATM   18  C5  UNL     1      25.776   4.395  49.343  1.00  0.00    -0.032 A 
HETATM   19  C4  UNL     1      25.123   5.567  49.085  1.00  0.00     0.009 A 
HETATM   20  C3  UNL     1      25.809   6.637  48.536  1.00  0.00     0.004 A 
HETATM   21  C2  UNL     1      27.154   6.555  48.236  1.00  0.00     0.042 A 
HETATM   22  C1  UNL     1      27.770   5.367  48.507  1.00  0.00     0.117 A 
HETATM   23  F1  UNL     1      29.109   5.271  48.214  1.00  0.00    -0.206 F 
HETATM   24  C17 UNL     1      27.134   4.251  49.061  1.00  0.00     0.051 A 
ENDBRANCH  17  18
ENDBRANCH  16  17
ENDBRANCH   1  16
TORSDOF 3
ENDMDL
MODEL 9
REMARK VINA RESULT:      -7.7      3.932      6.293
REMARK  3 active torsions:
REMARK  status: ('A' for Active; 'I' for Inactive)
REMARK    1  A    between atoms: C5_6  and  C6_7 
REMARK    2  A    between atoms: C6_7  and  O1_8 
REMARK    3  A    between atoms: O1_8  and  C7_9 
ROOT
HETATM    1  C7  UNL     1      24.511   2.737  50.830  1.00  0.00     0.121 C 
HETATM    2  C8  UNL     1      25.414   1.683  51.343  1.00  0.00     0.036 C 
HETATM    3  C9  UNL     1      25.940   1.370  52.499  1.00  0.00     0.117 C 
HETATM    4  N1  UNL     1      26.821   0.329  52.975  1.00  0.00    -0.254 NA
HETATM    5  C10 UNL     1      26.335  -0.850  53.241  1.00  0.00     0.233 C 
HETATM    6  N2  UNL     1      25.014  -0.529  52.901  1.00  0.00    -0.237 NA
HETATM    7  C11 UNL     1      24.140  -0.004  53.686  1.00  0.00     0.208 C 
HETATM    8  N3  UNL     1      22.758   0.434  53.660  1.00  0.00    -0.351 N 
HETATM    9  C12 UNL     1      23.072   1.417  52.652  1.00  0.00     0.030 C 
HETATM   10  C13 UNL     1      22.764   1.112  51.378  1.00  0.00     0.006 C 
HETATM   11  C14 UNL     1      23.284   1.977  50.281  1.00  0.00     0.077 C 
HETATM   12  C15 UNL     1      23.727   2.691  53.001  1.00  0.00     0.052 C 
HETATM   13  C16 UNL     1      23.998   3.514  52.002  1.00  0.00     0.052 C 
HETATM   14 CL1  UNL     1      23.676   5.198  52.369  1.00  0.00    -0.085 Cl
HETATM   15  H10 UNL     1      22.067  -0.025  54.281  1.00  0.00     0.166 HD
ENDROOT
BRANCH   1  16
HETATM   16  O1  UNL     1      25.002   3.492  49.812  1.00  0.00    -0.365 OA
BRANCH  16  17
HETATM   17  C6  UNL     1      26.364   3.533  49.704  1.00  0.00     0.208 C 
BRANCH  17  18
HETATM   18  C5  UNL     1      26.832   4.791  49.034  1.00  0.00    -0.032 A 
HETATM   19  C4  UNL     1      28.091   5.058  48.579  1.00  0.00     0.009 A 
HETATM   20  C3  UNL     1      28.370   6.274  47.979  1.00  0.00     0.004 A 
HETATM   21  C2  UNL     1      27.397   7.242  47.824  1.00  0.00     0.042 A 
HETATM   22  C1  UNL     1      26.152   6.938  48.293  1.00  0.00     0.117 A 
HETATM   23  F1  UNL     1      25.174   7.891  48.145  1.00  0.00    -0.206 F 
HETATM   24  C17 UNL     1      25.807   5.730  48.907  1.00  0.00     0.051 A 
ENDBRANCH  17  18
ENDBRANCH  16  17
ENDBRANCH   1  16
TORSDOF 3
ENDMDL
