MODEL 1
REMARK VINA RESULT:      -8.0      0.000      0.000
REMARK  7 active torsions:
REMARK  status: ('A' for Active; 'I' for Inactive)
REMARK    1  A    between atoms: O1_1  and  C1_2 
REMARK    2  A    between atoms: C1_2  and  C2_3 
REMARK    3  A    between atoms: C3_4  and  C4_5 
REMARK    4  A    between atoms: C4_5  and  N1_6 
REMARK    5  A    between atoms: C7_9  and  N2_10 
REMARK    6  A    between atoms: N2_10  and  C8_11 
REMARK    7  A    between atoms: C17_24  and  O2_25 
ROOT
HETATM    1  N1  UNL     1      22.337   1.345  51.369  1.00  0.00    -0.349 N 
HETATM    2  C5  UNL     1      23.653   1.726  51.771  1.00  0.00     0.107 A 
HETATM    3  C6  UNL     1      24.485   2.481  51.075  1.00  0.00     0.054 A 
HETATM    4  C7  UNL     1      25.735   2.846  51.452  1.00  0.00     0.143 A 
HETATM    5  N3  UNL     1      26.422   3.604  50.614  1.00  0.00    -0.223 NA
HETATM    6  C14 UNL     1      25.984   4.039  49.429  1.00  0.00     0.236 A 
HETATM    7  N4  UNL     1      24.731   3.666  49.062  1.00  0.00    -0.241 NA
HETATM    8  C15 UNL     1      23.977   2.895  49.865  1.00  0.00     0.074 A 
HETATM    9  C16 UNL     1      22.781   2.593  49.405  1.00  0.00     0.058 A 
HETATM   10  C17 UNL     1      21.781   1.760  50.101  1.00  0.00     0.247 A 
ENDROOT
BRANCH   4  11
HETATM   11  N2  UNL     1      26.234   2.427  52.693  1.00  0.00    -0.340 N 
HETATM   12  H7  UNL     1      25.951   2.848  53.602  1.00  0.00     0.167 HD
BRANCH  11  13
HETATM   13  C8  UNL     1      27.177   1.399  52.958  1.00  0.00     0.035 A 
HETATM   14  C9  UNL     1      28.417   1.642  53.497  1.00  0.00     0.032 A 
HETATM   15  C10 UNL     1      29.357   0.705  53.784  1.00  0.00     0.046 A 
HETATM   16  C11 UNL     1      29.077  -0.631  53.519  1.00  0.00     0.138 A 
HETATM   17  F1  UNL     1      29.935  -1.647  53.759  1.00  0.00    -0.204 F 
HETATM   18  C12 UNL     1      27.854  -0.956  52.977  1.00  0.00     0.074 A 
HETATM   19 CL1  UNL     1      27.445  -2.608  52.625  1.00  0.00    -0.081 Cl
HETATM   20  C13 UNL     1      26.971   0.057  52.724  1.00  0.00     0.056 A 
ENDBRANCH  11  13
ENDBRANCH   4  11
BRANCH   1  21
HETATM   21  C4  UNL     1      21.553   0.517  52.270  1.00  0.00     0.219 C 
BRANCH  21  22
HETATM   22  C3  UNL     1      22.380  -0.108  53.279  1.00  0.00    -0.085 C 
HETATM   23  C2  UNL     1      23.088  -0.625  54.114  1.00  0.00    -0.079 C 
BRANCH  23  24
HETATM   24  C1  UNL     1      23.972  -1.244  55.122  1.00  0.00     0.257 C 
BRANCH  24  25
HETATM   25  O1  UNL     1      23.242  -1.932  56.073  1.00  0.00    -0.389 OA
HETATM   26  H1  UNL     1      23.756  -2.171  56.881  1.00  0.00     0.210 HD
ENDBRANCH  24  25
ENDBRANCH  23  24
ENDBRANCH  21  22
ENDBRANCH   1  21
BRANCH  10  27
HETATM   27  O2  UNL     1      21.516   0.655  49.283  1.00  0.00    -0.373 OA
HETATM   28  H14 UNL     1      20.816   0.858  48.623  1.00  0.00     0.212 HD
ENDBRANCH  10  27
TORSDOF 7
ENDMDL
MODEL 2
REMARK VINA RESULT:      -7.9      2.545      4.610
REMARK  7 active torsions:
REMARK  status: ('A' for Active; 'I' for Inactive)
REMARK    1  A    between atoms: O1_1  and  C1_2 
REMARK    2  A    between atoms: C1_2  and  C2_3 
REMARK    3  A    between atoms: C3_4  and  C4_5 
REMARK    4  A    between atoms: C4_5  and  N1_6 
REMARK    5  A    between atoms: C7_9  and  N2_10 
REMARK    6  A    between atoms: N2_10  and  C8_11 
REMARK    7  A    between atoms: C17_24  and  O2_25 
ROOT
HETATM    1  N1  UNL     1      21.728   2.027  51.458  1.00  0.00    -0.349 N 
HETATM    2  C5  UNL     1      22.814   1.225  51.922  1.00  0.00     0.107 A 
HETATM    3  C6  UNL     1      22.790   0.427  52.975  1.00  0.00     0.054 A 
HETATM    4  C7  UNL     1      23.819  -0.337  53.419  1.00  0.00     0.143 A 
HETATM    5  N3  UNL     1      23.605  -1.070  54.499  1.00  0.00    -0.223 NA
HETATM    6  C14 UNL     1      22.460  -1.119  55.185  1.00  0.00     0.236 A 
HETATM    7  N4  UNL     1      21.437  -0.349  54.731  1.00  0.00    -0.241 NA
HETATM    8  C15 UNL     1      21.586   0.421  53.639  1.00  0.00     0.074 A 
HETATM    9  C16 UNL     1      20.529   1.128  53.293  1.00  0.00     0.058 A 
HETATM   10  C17 UNL     1      20.454   2.045  52.140  1.00  0.00     0.247 A 
ENDROOT
BRANCH   4  11
HETATM   11  N2  UNL     1      25.036  -0.331  52.725  1.00  0.00    -0.340 N 
HETATM   12  H7  UNL     1      25.169  -0.760  51.785  1.00  0.00     0.167 HD
BRANCH  11  13
HETATM   13  C8  UNL     1      26.276   0.230  53.132  1.00  0.00     0.035 A 
HETATM   14  C9  UNL     1      26.431   1.560  53.438  1.00  0.00     0.032 A 
HETATM   15  C10 UNL     1      27.583   2.154  53.843  1.00  0.00     0.046 A 
HETATM   16  C11 UNL     1      28.730   1.379  53.969  1.00  0.00     0.138 A 
HETATM   17  F1  UNL     1      29.931   1.860  54.360  1.00  0.00    -0.204 F 
HETATM   18  C12 UNL     1      28.657   0.034  53.679  1.00  0.00     0.074 A 
HETATM   19 CL1  UNL     1      30.055  -0.987  53.819  1.00  0.00    -0.081 Cl
HETATM   20  C13 UNL     1      27.451  -0.473  53.280  1.00  0.00     0.056 A 
ENDBRANCH  11  13
ENDBRANCH   4  11
BRANCH   1  21
HETATM   21  C4  UNL     1      21.928   2.839  50.270  1.00  0.00     0.219 C 
BRANCH  21  22
HETATM   22  C3  UNL     1      23.330   3.106  50.033  1.00  0.00    -0.085 C 
HETATM   23  C2  UNL     1      24.499   3.340  49.821  1.00  0.00    -0.079 C 
BRANCH  23  24
HETATM   24  C1  UNL     1      25.917   3.643  49.544  1.00  0.00     0.257 C 
BRANCH  24  25
HETATM   25  O1  UNL     1      26.635   3.791  50.715  1.00  0.00    -0.389 OA
HETATM   26  H1  UNL     1      26.812   4.730  50.964  1.00  0.00     0.210 HD
ENDBRANCH  24  25
ENDBRANCH  23  24
ENDBRANCH  21  22
ENDBRANCH   1  21
BRANCH  10  27
HETATM   27  O2  UNL     1      20.171   3.322  52.640  1.00  0.00    -0.373 OA
HETATM   28  H14 UNL     1      19.300   3.343  53.098  1.00  0.00     0.212 HD
ENDBRANCH  10  27
TORSDOF 7
ENDMDL
MODEL 3
REMARK VINA RESULT:      -7.8      3.868      6.195
REMARK  7 active torsions:
REMARK  status: ('A' for Active; 'I' for Inactive)
REMARK    1  A    between atoms: O1_1  and  C1_2 
REMARK    2  A    between atoms: C1_2  and  C2_3 
REMARK    3  A    between atoms: C3_4  and  C4_5 
REMARK    4  A    between atoms: C4_5  and  N1_6 
REMARK    5  A    between atoms: C7_9  and  N2_10 
REMARK    6  A    between atoms: N2_10  and  C8_11 
REMARK    7  A    between atoms: C17_24  and  O2_25 
ROOT
HETATM    1  N1  UNL     1      26.164   1.510  52.995  1.00  0.00    -0.349 N 
HETATM    2  C5  UNL     1      24.752   1.716  52.984  1.00  0.00     0.107 A 
HETATM    3  C6  UNL     1      24.056   2.240  51.990  1.00  0.00     0.054 A 
HETATM    4  C7  UNL     1      22.715   2.437  51.974  1.00  0.00     0.143 A 
HETATM    5  N3  UNL     1      22.196   2.982  50.886  1.00  0.00    -0.223 NA
HETATM    6  C14 UNL     1      22.887   3.352  49.804  1.00  0.00     0.236 A 
HETATM    7  N4  UNL     1      24.230   3.150  49.832  1.00  0.00    -0.241 NA
HETATM    8  C15 UNL     1      24.823   2.601  50.907  1.00  0.00     0.074 A 
HETATM    9  C16 UNL     1      26.129   2.457  50.824  1.00  0.00     0.058 A 
HETATM   10  C17 UNL     1      26.995   1.886  51.873  1.00  0.00     0.247 A 
ENDROOT
BRANCH   4  11
HETATM   11  N2  UNL     1      21.945   2.052  53.080  1.00  0.00    -0.340 N 
HETATM   12  H7  UNL     1      21.902   2.591  53.971  1.00  0.00     0.167 HD
BRANCH  11  13
HETATM   13  C8  UNL     1      21.109   0.912  53.215  1.00  0.00     0.035 A 
HETATM   14  C9  UNL     1      21.389  -0.123  54.073  1.00  0.00     0.032 A 
HETATM   15  C10 UNL     1      20.627  -1.232  54.256  1.00  0.00     0.046 A 
HETATM   16  C11 UNL     1      19.453  -1.369  53.524  1.00  0.00     0.138 A 
HETATM   17  F1  UNL     1      18.619  -2.428  53.620  1.00  0.00    -0.204 F 
HETATM   18  C12 UNL     1      19.103  -0.373  52.640  1.00  0.00     0.074 A 
HETATM   19 CL1  UNL     1      17.648  -0.485  51.698  1.00  0.00    -0.081 Cl
HETATM   20  C13 UNL     1      19.934   0.708  52.526  1.00  0.00     0.056 A 
ENDBRANCH  11  13
ENDBRANCH   4  11
BRANCH   1  21
HETATM   21  C4  UNL     1      26.765   0.907  54.173  1.00  0.00     0.219 C 
BRANCH  21  22
HETATM   22  C3  UNL     1      27.634  -0.196  53.825  1.00  0.00    -0.085 C 
HETATM   23  C2  UNL     1      28.376  -1.106  53.529  1.00  0.00    -0.079 C 
BRANCH  23  24
HETATM   24  C1  UNL     1      29.299  -2.199  53.164  1.00  0.00     0.257 C 
BRANCH  24  25
HETATM   25  O1  UNL     1      28.767  -3.433  53.489  1.00  0.00    -0.389 OA
HETATM   26  H1  UNL     1      29.407  -4.047  53.921  1.00  0.00     0.210 HD
ENDBRANCH  24  25
ENDBRANCH  23  24
ENDBRANCH  21  22
ENDBRANCH   1  21
BRANCH  10  27
HETATM   27  O2  UNL     1      27.914   2.877  52.240  1.00  0.00    -0.373 OA
HETATM   28  H14 UNL     1      28.819   2.504  52.347  1.00  0.00     0.212 HD
ENDBRANCH  10  27
TORSDOF 7
ENDMDL
MODEL 4
REMARK VINA RESULT:      -7.8      2.173      4.269
REMARK  7 active torsions:
REMARK  status: ('A' for Active; 'I' for Inactive)
REMARK    1  A    between atoms: O1_1  and  C1_2 
REMARK    2  A    between atoms: C1_2  and  C2_3 
REMARK    3  A    between atoms: C3_4  and  C4_5 
REMARK    4  A    between atoms: C4_5  and  N1_6 
REMARK    5  A    between atoms: C7_9  and  N2_10 
REMARK    6  A    between atoms: N2_10  and  C8_11 
REMARK    7  A    between atoms: C17_24  and  O2_25 
ROOT
HETATM    1  N1  UNL     1      22.948   2.395  49.886  1.00  0.00    -0.349 N 
HETATM    2  C5  UNL     1      23.800   2.056  50.979  1.00  0.00     0.107 A 
HETATM    3  C6  UNL     1      23.531   1.170  51.922  1.00  0.00     0.054 A 
HETATM    4  C7  UNL     1      24.337   0.844  52.963  1.00  0.00     0.143 A 
HETATM    5  N3  UNL     1      23.891  -0.067  53.811  1.00  0.00    -0.223 NA
HETATM    6  C14 UNL     1      22.714  -0.693  53.724  1.00  0.00     0.236 A 
HETATM    7  N4  UNL     1      21.915  -0.358  52.677  1.00  0.00    -0.241 NA
HETATM    8  C15 UNL     1      22.306   0.562  51.778  1.00  0.00     0.074 A 
HETATM    9  C16 UNL     1      21.449   0.809  50.808  1.00  0.00     0.058 A 
HETATM   10  C17 UNL     1      21.653   1.777  49.713  1.00  0.00     0.247 A 
ENDROOT
BRANCH   4  11
HETATM   11  N2  UNL     1      25.589   1.463  53.089  1.00  0.00    -0.340 N 
HETATM   12  H7  UNL     1      25.729   2.495  53.062  1.00  0.00     0.167 HD
BRANCH  11  13
HETATM   13  C8  UNL     1      26.857   0.850  53.271  1.00  0.00     0.035 A 
HETATM   14  C9  UNL     1      27.966   1.539  53.697  1.00  0.00     0.032 A 
HETATM   15  C10 UNL     1      29.200   1.010  53.901  1.00  0.00     0.046 A 
HETATM   16  C11 UNL     1      29.398  -0.346  53.666  1.00  0.00     0.138 A 
HETATM   17  F1  UNL     1      30.580  -0.979  53.831  1.00  0.00    -0.204 F 
HETATM   18  C12 UNL     1      28.333  -1.106  53.236  1.00  0.00     0.074 A 
HETATM   19 CL1  UNL     1      28.516  -2.805  52.927  1.00  0.00    -0.081 Cl
HETATM   20  C13 UNL     1      27.128  -0.484  53.061  1.00  0.00     0.056 A 
ENDBRANCH  11  13
ENDBRANCH   4  11
BRANCH   1  21
HETATM   21  C4  UNL     1      23.411   3.388  48.931  1.00  0.00     0.219 C 
BRANCH  21  22
HETATM   22  C3  UNL     1      23.885   4.585  49.593  1.00  0.00    -0.085 C 
HETATM   23  C2  UNL     1      24.271   5.582  50.161  1.00  0.00    -0.079 C 
BRANCH  23  24
HETATM   24  C1  UNL     1      24.728   6.790  50.876  1.00  0.00     0.257 C 
BRANCH  24  25
HETATM   25  O1  UNL     1      24.364   6.751  52.209  1.00  0.00    -0.389 OA
HETATM   26  H1  UNL     1      24.545   5.888  52.651  1.00  0.00     0.210 HD
ENDBRANCH  24  25
ENDBRANCH  23  24
ENDBRANCH  21  22
ENDBRANCH   1  21
BRANCH  10  27
HETATM   27  O2  UNL     1      20.628   2.727  49.801  1.00  0.00    -0.373 OA
HETATM   28  H14 UNL     1      20.117   2.781  48.962  1.00  0.00     0.212 HD
ENDBRANCH  10  27
TORSDOF 7
ENDMDL
MODEL 5
REMARK VINA RESULT:      -7.6      3.878      7.072
REMARK  7 active torsions:
REMARK  status: ('A' for Active; 'I' for Inactive)
REMARK    1  A    between atoms: O1_1  and  C1_2 
REMARK    2  A    between atoms: C1_2  and  C2_3 
REMARK    3  A    between atoms: C3_4  and  C4_5 
REMARK    4  A    between atoms: C4_5  and  N1_6 
REMARK    5  A    between atoms: C7_9  and  N2_10 
REMARK    6  A    between atoms: N2_10  and  C8_11 
REMARK    7  A    between atoms: C17_24  and  O2_25 
ROOT
HETATM    1  N1  UNL     1      25.753   0.875  53.671  1.00  0.00    -0.349 N 
HETATM    2  C5  UNL     1      24.457   1.211  53.179  1.00  0.00     0.107 A 
HETATM    3  C6  UNL     1      23.349   0.521  53.389  1.00  0.00     0.054 A 
HETATM    4  C7  UNL     1      22.114   0.836  52.925  1.00  0.00     0.143 A 
HETATM    5  N3  UNL     1      21.123   0.017  53.237  1.00  0.00    -0.223 NA
HETATM    6  C14 UNL     1      21.241  -1.092  53.973  1.00  0.00     0.236 A 
HETATM    7  N4  UNL     1      22.482  -1.397  54.433  1.00  0.00    -0.241 NA
HETATM    8  C15 UNL     1      23.535  -0.608  54.152  1.00  0.00     0.074 A 
HETATM    9  C16 UNL     1      24.690  -1.004  54.646  1.00  0.00     0.058 A 
HETATM   10  C17 UNL     1      25.979  -0.310  54.469  1.00  0.00     0.247 A 
ENDROOT
BRANCH   4  11
HETATM   11  N2  UNL     1      21.938   1.997  52.160  1.00  0.00    -0.340 N 
HETATM   12  H7  UNL     1      21.682   2.923  52.564  1.00  0.00     0.167 HD
BRANCH  11  13
HETATM   13  C8  UNL     1      22.061   2.149  50.754  1.00  0.00     0.035 A 
HETATM   14  C9  UNL     1      21.680   1.178  49.860  1.00  0.00     0.032 A 
HETATM   15  C10 UNL     1      21.762   1.266  48.507  1.00  0.00     0.046 A 
HETATM   16  C11 UNL     1      22.273   2.427  47.939  1.00  0.00     0.138 A 
HETATM   17  F1  UNL     1      22.404   2.626  46.609  1.00  0.00    -0.204 F 
HETATM   18  C12 UNL     1      22.677   3.448  48.769  1.00  0.00     0.074 A 
HETATM   19 CL1  UNL     1      23.322   4.924  48.119  1.00  0.00    -0.081 Cl
HETATM   20  C13 UNL     1      22.555   3.268  50.119  1.00  0.00     0.056 A 
ENDBRANCH  11  13
ENDBRANCH   4  11
BRANCH   1  21
HETATM   21  C4  UNL     1      26.863   1.757  53.352  1.00  0.00     0.219 C 
BRANCH  21  22
HETATM   22  C3  UNL     1      26.732   2.322  52.026  1.00  0.00    -0.085 C 
HETATM   23  C2  UNL     1      26.611   2.809  50.924  1.00  0.00    -0.079 C 
BRANCH  23  24
HETATM   24  C1  UNL     1      26.450   3.422  49.591  1.00  0.00     0.257 C 
BRANCH  24  25
HETATM   25  O1  UNL     1      27.466   4.322  49.328  1.00  0.00    -0.389 OA
HETATM   26  H1  UNL     1      27.956   4.623  50.130  1.00  0.00     0.210 HD
ENDBRANCH  24  25
ENDBRANCH  23  24
ENDBRANCH  21  22
ENDBRANCH   1  21
BRANCH  10  27
HETATM   27  O2  UNL     1      26.845  -1.196  53.816  1.00  0.00    -0.373 OA
HETATM   28  H14 UNL     1      26.366  -1.737  53.149  1.00  0.00     0.212 HD
ENDBRANCH  10  27
TORSDOF 7
ENDMDL
MODEL 6
REMARK VINA RESULT:      -7.5      3.370      5.848
REMARK  7 active torsions:
REMARK  status: ('A' for Active; 'I' for Inactive)
REMARK    1  A    between atoms: O1_1  and  C1_2 
REMARK    2  A    between atoms: C1_2  and  C2_3 
REMARK    3  A    between atoms: C3_4  and  C4_5 
REMARK    4  A    between atoms: C4_5  and  N1_6 
REMARK    5  A    between atoms: C7_9  and  N2_10 
REMARK    6  A    between atoms: N2_10  and  C8_11 
REMARK    7  A    between atoms: C17_24  and  O2_25 
ROOT
HETATM    1  N1  UNL     1      23.401  -0.401  54.102  1.00  0.00    -0.349 N 
HETATM    2  C5  UNL     1      23.217   0.311  52.879  1.00  0.00     0.107 A 
HETATM    3  C6  UNL     1      22.059   0.720  52.390  1.00  0.00     0.054 A 
HETATM    4  C7  UNL     1      21.879   1.397  51.229  1.00  0.00     0.143 A 
HETATM    5  N3  UNL     1      20.638   1.718  50.902  1.00  0.00    -0.223 NA
HETATM    6  C14 UNL     1      19.550   1.429  51.623  1.00  0.00     0.236 A 
HETATM    7  N4  UNL     1      19.744   0.751  52.784  1.00  0.00    -0.241 NA
HETATM    8  C15 UNL     1      20.979   0.393  53.176  1.00  0.00     0.074 A 
HETATM    9  C16 UNL     1      21.045  -0.265  54.316  1.00  0.00     0.058 A 
HETATM   10  C17 UNL     1      22.284  -0.763  54.944  1.00  0.00     0.247 A 
ENDROOT
BRANCH   4  11
HETATM   11  N2  UNL     1      22.990   1.735  50.444  1.00  0.00    -0.340 N 
HETATM   12  H7  UNL     1      23.439   1.083  49.767  1.00  0.00     0.167 HD
BRANCH  11  13
HETATM   13  C8  UNL     1      23.698   2.965  50.409  1.00  0.00     0.035 A 
HETATM   14  C9  UNL     1      23.229   4.115  50.996  1.00  0.00     0.032 A 
HETATM   15  C10 UNL     1      23.862   5.317  51.007  1.00  0.00     0.046 A 
HETATM   16  C11 UNL     1      25.095   5.433  50.376  1.00  0.00     0.138 A 
HETATM   17  F1  UNL     1      25.813   6.576  50.320  1.00  0.00    -0.204 F 
HETATM   18  C12 UNL     1      25.633   4.324  49.763  1.00  0.00     0.074 A 
HETATM   19 CL1  UNL     1      27.171   4.405  48.960  1.00  0.00    -0.081 Cl
HETATM   20  C13 UNL     1      24.922   3.156  49.806  1.00  0.00     0.056 A 
ENDBRANCH  11  13
ENDBRANCH   4  11
BRANCH   1  21
HETATM   21  C4  UNL     1      24.753  -0.763  54.493  1.00  0.00     0.219 C 
BRANCH  21  22
HETATM   22  C3  UNL     1      25.723   0.201  54.020  1.00  0.00    -0.085 C 
HETATM   23  C2  UNL     1      26.548   0.994  53.624  1.00  0.00    -0.079 C 
BRANCH  23  24
HETATM   24  C1  UNL     1      27.572   1.942  53.141  1.00  0.00     0.257 C 
BRANCH  24  25
HETATM   25  O1  UNL     1      27.944   2.826  54.137  1.00  0.00    -0.389 OA
HETATM   26  H1  UNL     1      28.917   2.868  54.296  1.00  0.00     0.210 HD
ENDBRANCH  24  25
ENDBRANCH  23  24
ENDBRANCH  21  22
ENDBRANCH   1  21
BRANCH  10  27
HETATM   27  O2  UNL     1      22.167  -2.155  55.050  1.00  0.00    -0.373 OA
HETATM   28  H14 UNL     1      21.768  -2.416  55.911  1.00  0.00     0.212 HD
ENDBRANCH  10  27
TORSDOF 7
ENDMDL
MODEL 7
REMARK VINA RESULT:      -7.4      3.862      6.004
REMARK  7 active torsions:
REMARK  status: ('A' for Active; 'I' for Inactive)
REMARK    1  A    between atoms: O1_1  and  C1_2 
REMARK    2  A    between atoms: C1_2  and  C2_3 
REMARK    3  A    between atoms: C3_4  and  C4_5 
REMARK    4  A    between atoms: C4_5  and  N1_6 
REMARK    5  A    between atoms: C7_9  and  N2_10 
REMARK    6  A    between atoms: N2_10  and  C8_11 
REMARK    7  A    between atoms: C17_24  and  O2_25 
ROOT
HETATM    1  N1  UNL     1      25.735   1.202  53.194  1.00  0.00    -0.349 N 
HETATM    2  C5  UNL     1      25.909   1.926  51.977  1.00  0.00     0.107 A 
HETATM    3  C6  UNL     1      24.968   2.166  51.080  1.00  0.00     0.054 A 
HETATM    4  C7  UNL     1      25.127   2.854  49.923  1.00  0.00     0.143 A 
HETATM    5  N3  UNL     1      24.064   2.987  49.147  1.00  0.00    -0.223 NA
HETATM    6  C14 UNL     1      22.848   2.500  49.413  1.00  0.00     0.236 A 
HETATM    7  N4  UNL     1      22.701   1.814  50.575  1.00  0.00    -0.241 NA
HETATM    8  C15 UNL     1      23.741   1.640  51.410  1.00  0.00     0.074 A 
HETATM    9  C16 UNL     1      23.482   0.954  52.505  1.00  0.00     0.058 A 
HETATM   10  C17 UNL     1      24.459   0.632  53.563  1.00  0.00     0.247 A 
ENDROOT
BRANCH   4  11
HETATM   11  N2  UNL     1      26.380   3.396  49.606  1.00  0.00    -0.340 N 
HETATM   12  H7  UNL     1      27.264   2.844  49.597  1.00  0.00     0.167 HD
BRANCH  11  13
HETATM   13  C8  UNL     1      26.694   4.735  49.251  1.00  0.00     0.035 A 
HETATM   14  C9  UNL     1      25.894   5.802  49.581  1.00  0.00     0.032 A 
HETATM   15  C10 UNL     1      26.142   7.103  49.282  1.00  0.00     0.046 A 
HETATM   16  C11 UNL     1      27.298   7.422  48.578  1.00  0.00     0.138 A 
HETATM   17  F1  UNL     1      27.647   8.679  48.223  1.00  0.00    -0.204 F 
HETATM   18  C12 UNL     1      28.152   6.407  48.211  1.00  0.00     0.074 A 
HETATM   19 CL1  UNL     1      29.612   6.742  47.332  1.00  0.00    -0.081 Cl
HETATM   20  C13 UNL     1      27.817   5.127  48.558  1.00  0.00     0.056 A 
ENDBRANCH  11  13
ENDBRANCH   4  11
BRANCH   1  21
HETATM   21  C4  UNL     1      26.882   1.043  54.073  1.00  0.00     0.219 C 
BRANCH  21  22
HETATM   22  C3  UNL     1      27.668  -0.120  53.721  1.00  0.00    -0.085 C 
HETATM   23  C2  UNL     1      28.336  -1.082  53.415  1.00  0.00    -0.079 C 
BRANCH  23  24
HETATM   24  C1  UNL     1      29.165  -2.240  53.027  1.00  0.00     0.257 C 
BRANCH  24  25
HETATM   25  O1  UNL     1      28.534  -3.432  53.331  1.00  0.00    -0.389 OA
HETATM   26  H1  UNL     1      28.139  -3.459  54.235  1.00  0.00     0.210 HD
ENDBRANCH  24  25
ENDBRANCH  23  24
ENDBRANCH  21  22
ENDBRANCH   1  21
BRANCH  10  27
HETATM   27  O2  UNL     1      24.538  -0.763  53.647  1.00  0.00    -0.373 OA
HETATM   28  H14 UNL     1      23.764  -1.138  54.125  1.00  0.00     0.212 HD
ENDBRANCH  10  27
TORSDOF 7
ENDMDL
MODEL 8
REMARK VINA RESULT:      -7.2      4.032      7.239
REMARK  7 active torsions:
REMARK  status: ('A' for Active; 'I' for Inactive)
REMARK    1  A    between atoms: O1_1  and  C1_2 
REMARK    2  A    between atoms: C1_2  and  C2_3 
REMARK    3  A    between atoms: C3_4  and  C4_5 
REMARK    4  A    between atoms: C4_5  and  N1_6 
REMARK    5  A    between atoms: C7_9  and  N2_10 
REMARK    6  A    between atoms: N2_10  and  C8_11 
REMARK    7  A    between atoms: C17_24  and  O2_25 
ROOT
HETATM    1  N1  UNL     1      25.738   0.515  53.019  1.00  0.00    -0.349 N 
HETATM    2  C5  UNL     1      24.530   0.881  52.353  1.00  0.00     0.107 A 
HETATM    3  C6  UNL     1      23.317   0.463  52.669  1.00  0.00     0.054 A 
HETATM    4  C7  UNL     1      22.166   0.808  52.039  1.00  0.00     0.143 A 
HETATM    5  N3  UNL     1      21.044   0.280  52.499  1.00  0.00    -0.223 NA
HETATM    6  C14 UNL     1      20.953  -0.562  53.532  1.00  0.00     0.236 A 
HETATM    7  N4  UNL     1      22.112  -0.900  54.155  1.00  0.00    -0.241 NA
HETATM    8  C15 UNL     1      23.289  -0.402  53.738  1.00  0.00     0.074 A 
HETATM    9  C16 UNL     1      24.347  -0.802  54.413  1.00  0.00     0.058 A 
HETATM   10  C17 UNL     1      25.739  -0.396  54.141  1.00  0.00     0.247 A 
ENDROOT
BRANCH   4  11
HETATM   11  N2  UNL     1      22.208   1.699  50.959  1.00  0.00    -0.340 N 
HETATM   12  H7  UNL     1      22.406   1.410  49.978  1.00  0.00     0.167 HD
BRANCH  11  13
HETATM   13  C8  UNL     1      22.003   3.104  50.972  1.00  0.00     0.035 A 
HETATM   14  C9  UNL     1      20.766   3.681  50.817  1.00  0.00     0.032 A 
HETATM   15  C10 UNL     1      20.502   5.013  50.831  1.00  0.00     0.046 A 
HETATM   16  C11 UNL     1      21.554   5.904  51.013  1.00  0.00     0.138 A 
HETATM   17  F1  UNL     1      21.412   7.248  51.042  1.00  0.00    -0.204 F 
HETATM   18  C12 UNL     1      22.826   5.404  51.175  1.00  0.00     0.074 A 
HETATM   19 CL1  UNL     1      24.180   6.466  51.409  1.00  0.00    -0.081 Cl
HETATM   20  C13 UNL     1      22.992   4.046  51.148  1.00  0.00     0.056 A 
ENDBRANCH  11  13
ENDBRANCH   4  11
BRANCH   1  21
HETATM   21  C4  UNL     1      26.988   1.082  52.543  1.00  0.00     0.219 C 
BRANCH  21  22
HETATM   22  C3  UNL     1      26.767   2.078  51.517  1.00  0.00    -0.085 C 
HETATM   23  C2  UNL     1      26.600   2.918  50.661  1.00  0.00    -0.079 C 
BRANCH  23  24
HETATM   24  C1  UNL     1      26.422   3.948  49.618  1.00  0.00     0.257 C 
BRANCH  24  25
HETATM   25  O1  UNL     1      27.623   4.555  49.304  1.00  0.00    -0.389 OA
HETATM   26  H1  UNL     1      28.416   3.995  49.481  1.00  0.00     0.210 HD
ENDBRANCH  24  25
ENDBRANCH  23  24
ENDBRANCH  21  22
ENDBRANCH   1  21
BRANCH  10  27
HETATM   27  O2  UNL     1      26.462  -1.558  53.843  1.00  0.00    -0.373 OA
HETATM   28  H14 UNL     1      26.634  -2.091  54.652  1.00  0.00     0.212 HD
ENDBRANCH  10  27
TORSDOF 7
ENDMDL
MODEL 9
REMARK VINA RESULT:      -7.1      3.267      5.147
REMARK  7 active torsions:
REMARK  status: ('A' for Active; 'I' for Inactive)
REMARK    1  A    between atoms: O1_1  and  C1_2 
REMARK    2  A    between atoms: C1_2  and  C2_3 
REMARK    3  A    between atoms: C3_4  and  C4_5 
REMARK    4  A    between atoms: C4_5  and  N1_6 
REMARK    5  A    between atoms: C7_9  and  N2_10 
REMARK    6  A    between atoms: N2_10  and  C8_11 
REMARK    7  A    between atoms: C17_24  and  O2_25 
ROOT
HETATM    1  N1  UNL     1      22.856   5.634  50.212  1.00  0.00    -0.349 N 
HETATM    2  C5  UNL     1      23.235   4.328  50.646  1.00  0.00     0.107 A 
HETATM    3  C6  UNL     1      22.476   3.493  51.334  1.00  0.00     0.054 A 
HETATM    4  C7  UNL     1      22.831   2.252  51.748  1.00  0.00     0.143 A 
HETATM    5  N3  UNL     1      21.933   1.563  52.434  1.00  0.00    -0.223 NA
HETATM    6  C14 UNL     1      20.708   1.991  52.749  1.00  0.00     0.236 A 
HETATM    7  N4  UNL     1      20.364   3.236  52.328  1.00  0.00    -0.241 NA
HETATM    8  C15 UNL     1      21.228   3.991  51.628  1.00  0.00     0.074 A 
HETATM    9  C16 UNL     1      20.788   5.182  51.277  1.00  0.00     0.058 A 
HETATM   10  C17 UNL     1      21.554   6.186  50.512  1.00  0.00     0.247 A 
ENDROOT
BRANCH   4  11
HETATM   11  N2  UNL     1      24.101   1.752  51.430  1.00  0.00    -0.340 N 
HETATM   12  H7  UNL     1      24.465   1.673  50.457  1.00  0.00     0.167 HD
BRANCH  11  13
HETATM   13  C8  UNL     1      25.104   1.276  52.315  1.00  0.00     0.035 A 
HETATM   14  C9  UNL     1      25.551   1.996  53.397  1.00  0.00     0.032 A 
HETATM   15  C10 UNL     1      26.496   1.593  54.285  1.00  0.00     0.046 A 
HETATM   16  C11 UNL     1      27.089   0.347  54.116  1.00  0.00     0.138 A 
HETATM   17  F1  UNL     1      28.040  -0.156  54.933  1.00  0.00    -0.204 F 
HETATM   18  C12 UNL     1      26.695  -0.436  53.054  1.00  0.00     0.074 A 
HETATM   19 CL1  UNL     1      27.398  -2.002  52.791  1.00  0.00    -0.081 Cl
HETATM   20  C13 UNL     1      25.734   0.056  52.213  1.00  0.00     0.056 A 
ENDBRANCH  11  13
ENDBRANCH   4  11
BRANCH   1  21
HETATM   21  C4  UNL     1      23.817   6.415  49.451  1.00  0.00     0.219 C 
BRANCH  21  22
HETATM   22  C3  UNL     1      25.052   5.690  49.247  1.00  0.00    -0.085 C 
HETATM   23  C2  UNL     1      26.095   5.096  49.087  1.00  0.00    -0.079 C 
BRANCH  23  24
HETATM   24  C1  UNL     1      27.378   4.387  48.910  1.00  0.00     0.257 C 
BRANCH  24  25
HETATM   25  O1  UNL     1      28.450   5.222  49.165  1.00  0.00    -0.389 OA
HETATM   26  H1  UNL     1      28.881   5.584  48.354  1.00  0.00     0.210 HD
ENDBRANCH  24  25
ENDBRANCH  23  24
ENDBRANCH  21  22
ENDBRANCH   1  21
BRANCH  10  27
HETATM   27  O2  UNL     1      21.666   7.327  51.316  1.00  0.00    -0.373 OA
HETATM   28  H14 UNL     1      22.369   7.219  51.995  1.00  0.00     0.212 HD
ENDBRANCH  10  27
TORSDOF 7
ENDMDL
