MODEL 1
REMARK VINA RESULT:      -7.5      0.000      0.000
REMARK  9 active torsions:
REMARK  status: ('A' for Active; 'I' for Inactive)
REMARK    1  A    between atoms: C2_2  and  C3_3 
REMARK    2  A    between atoms: C3_3  and  C4_4 
REMARK    3  A    between atoms: C4_4  and  N1_5 
REMARK    4  A    between atoms: N1_5  and  C5_6 
REMARK    5  A    between atoms: N1_5  and  C12_15 
REMARK    6  A    between atoms: C5_6  and  C6_7 
REMARK    7  A    between atoms: C10_11  and  O1_12 
REMARK    8  A    between atoms: C12_15  and  N2_17 
REMARK    9  A    between atoms: N2_17  and  C13_18 
ROOT
HETATM    1  N1  UNL     1      25.454   2.629  51.922  1.00  0.00    -0.354 N 
ENDROOT
BRANCH   1   2
HETATM    2  C4  UNL     1      26.558   2.778  51.003  1.00  0.00     0.125 C 
BRANCH   2   3
HETATM    3  C3  UNL     1      26.171   3.141  49.606  1.00  0.00     0.020 C 
BRANCH   3   4
HETATM    4  C2  UNL     1      26.340   4.625  49.316  1.00  0.00    -0.003 C 
HETATM    5  C1  UNL     1      27.670   4.892  48.633  1.00  0.00     0.005 C 
ENDBRANCH   3   4
ENDBRANCH   2   3
ENDBRANCH   1   2
BRANCH   1   6
HETATM    6  C5  UNL     1      25.936   2.543  53.284  1.00  0.00     0.164 C 
BRANCH   6   7
HETATM    7  C6  UNL     1      27.029   1.516  53.434  1.00  0.00    -0.038 A 
HETATM    8  C7  UNL     1      28.211   2.127  53.883  1.00  0.00     0.009 A 
HETATM    9  C8  UNL     1      29.371   1.418  54.110  1.00  0.00     0.003 A 
HETATM   10  C9  UNL     1      29.340   0.058  53.877  1.00  0.00     0.038 A 
HETATM   11  C10 UNL     1      28.181  -0.538  53.437  1.00  0.00     0.092 A 
HETATM   12  C11 UNL     1      27.010   0.158  53.206  1.00  0.00     0.047 A 
BRANCH  11  13
HETATM   13  O1  UNL     1      28.097  -1.903  53.188  1.00  0.00    -0.241 OA
HETATM   14 CL1  UNL     1      26.832  -2.531  52.198  1.00  0.00     0.067 Cl
ENDBRANCH  11  13
ENDBRANCH   6   7
ENDBRANCH   1   6
BRANCH   1  15
HETATM   15  C12 UNL     1      24.029   2.557  51.724  1.00  0.00     0.174 C 
HETATM   16  S1  UNL     1      23.116   3.921  51.694  1.00  0.00    -0.041 SA
BRANCH  15  17
HETATM   17  N2  UNL     1      23.340   1.321  51.546  1.00  0.00    -0.333 N 
HETATM   18  H16 UNL     1      23.082   0.704  50.758  1.00  0.00     0.168 HD
BRANCH  17  19
HETATM   19  C13 UNL     1      22.805   0.630  52.663  1.00  0.00     0.034 A 
HETATM   20  C14 UNL     1      23.497  -0.317  53.421  1.00  0.00     0.029 A 
HETATM   21  C15 UNL     1      22.966  -0.980  54.505  1.00  0.00     0.002 A 
HETATM   22  C16 UNL     1      21.668  -0.708  54.886  1.00  0.00     0.000 A 
HETATM   23  C17 UNL     1      20.948   0.219  54.166  1.00  0.00     0.002 A 
HETATM   24  C18 UNL     1      21.512   0.866  53.084  1.00  0.00     0.029 A 
ENDBRANCH  17  19
ENDBRANCH  15  17
ENDBRANCH   1  15
TORSDOF 9
ENDMDL
MODEL 2
REMARK VINA RESULT:      -7.2      2.303      5.603
REMARK  9 active torsions:
REMARK  status: ('A' for Active; 'I' for Inactive)
REMARK    1  A    between atoms: C2_2  and  C3_3 
REMARK    2  A    between atoms: C3_3  and  C4_4 
REMARK    3  A    between atoms: C4_4  and  N1_5 
REMARK    4  A    between atoms: N1_5  and  C5_6 
REMARK    5  A    between atoms: N1_5  and  C12_15 
REMARK    6  A    between atoms: C5_6  and  C6_7 
REMARK    7  A    between atoms: C10_11  and  O1_12 
REMARK    8  A    between atoms: C12_15  and  N2_17 
REMARK    9  A    between atoms: N2_17  and  C13_18 
ROOT
HETATM    1  N1  UNL     1      24.042   2.521  52.062  1.00  0.00    -0.354 N 
ENDROOT
BRANCH   1   2
HETATM    2  C4  UNL     1      23.041   3.483  52.461  1.00  0.00     0.125 C 
BRANCH   2   3
HETATM    3  C3  UNL     1      22.735   4.533  51.442  1.00  0.00     0.020 C 
BRANCH   3   4
HETATM    4  C2  UNL     1      21.241   4.723  51.224  1.00  0.00    -0.003 C 
HETATM    5  C1  UNL     1      20.450   3.654  51.958  1.00  0.00     0.005 C 
ENDBRANCH   3   4
ENDBRANCH   2   3
ENDBRANCH   1   2
BRANCH   1   6
HETATM    6  C5  UNL     1      23.418   1.341  51.505  1.00  0.00     0.164 C 
BRANCH   6   7
HETATM    7  C6  UNL     1      22.783   0.481  52.568  1.00  0.00    -0.038 A 
HETATM    8  C7  UNL     1      21.434   0.245  52.261  1.00  0.00     0.009 A 
HETATM    9  C8  UNL     1      20.614  -0.519  53.064  1.00  0.00     0.003 A 
HETATM   10  C9  UNL     1      21.168  -1.057  54.208  1.00  0.00     0.038 A 
HETATM   11  C10 UNL     1      22.491  -0.824  54.506  1.00  0.00     0.092 A 
HETATM   12  C11 UNL     1      23.325  -0.063  53.711  1.00  0.00     0.047 A 
BRANCH  11  13
HETATM   13  O1  UNL     1      23.096  -1.343  55.645  1.00  0.00    -0.241 OA
HETATM   14 CL1  UNL     1      24.809  -1.268  55.831  1.00  0.00     0.067 Cl
ENDBRANCH  11  13
ENDBRANCH   6   7
ENDBRANCH   1   6
BRANCH   1  15
HETATM   15  C12 UNL     1      25.482   2.538  52.120  1.00  0.00     0.174 C 
HETATM   16  S1  UNL     1      26.372   2.858  50.778  1.00  0.00    -0.041 SA
BRANCH  15  17
HETATM   17  N2  UNL     1      26.205   2.280  53.322  1.00  0.00    -0.333 N 
HETATM   18  H16 UNL     1      26.249   2.670  54.277  1.00  0.00     0.168 HD
BRANCH  17  19
HETATM   19  C13 UNL     1      27.161   1.234  53.373  1.00  0.00     0.034 A 
HETATM   20  C14 UNL     1      26.908  -0.096  53.028  1.00  0.00     0.029 A 
HETATM   21  C15 UNL     1      27.845  -1.102  53.082  1.00  0.00     0.002 A 
HETATM   22  C16 UNL     1      29.125  -0.803  53.502  1.00  0.00     0.000 A 
HETATM   23  C17 UNL     1      29.420   0.496  53.853  1.00  0.00     0.002 A 
HETATM   24  C18 UNL     1      28.454   1.481  53.786  1.00  0.00     0.029 A 
ENDBRANCH  17  19
ENDBRANCH  15  17
ENDBRANCH   1  15
TORSDOF 9
ENDMDL
MODEL 3
REMARK VINA RESULT:      -7.2      2.276      5.311
REMARK  9 active torsions:
REMARK  status: ('A' for Active; 'I' for Inactive)
REMARK    1  A    between atoms: C2_2  and  C3_3 
REMARK    2  A    between atoms: C3_3  and  C4_4 
REMARK    3  A    between atoms: C4_4  and  N1_5 
REMARK    4  A    between atoms: N1_5  and  C5_6 
REMARK    5  A    between atoms: N1_5  and  C12_15 
REMARK    6  A    between atoms: C5_6  and  C6_7 
REMARK    7  A    between atoms: C10_11  and  O1_12 
REMARK    8  A    between atoms: C12_15  and  N2_17 
REMARK    9  A    between atoms: N2_17  and  C13_18 
ROOT
HETATM    1  N1  UNL     1      24.128   2.490  52.082  1.00  0.00    -0.354 N 
ENDROOT
BRANCH   1   2
HETATM    2  C4  UNL     1      23.145   3.439  52.551  1.00  0.00     0.125 C 
BRANCH   2   3
HETATM    3  C3  UNL     1      23.593   4.864  52.545  1.00  0.00     0.020 C 
BRANCH   3   4
HETATM    4  C2  UNL     1      23.334   5.556  51.215  1.00  0.00    -0.003 C 
HETATM    5  C1  UNL     1      24.121   6.852  51.121  1.00  0.00     0.005 C 
ENDBRANCH   3   4
ENDBRANCH   2   3
ENDBRANCH   1   2
BRANCH   1   6
HETATM    6  C5  UNL     1      23.480   1.318  51.534  1.00  0.00     0.164 C 
BRANCH   6   7
HETATM    7  C6  UNL     1      22.861   0.459  52.608  1.00  0.00    -0.038 A 
HETATM    8  C7  UNL     1      21.484   0.312  52.379  1.00  0.00     0.009 A 
HETATM    9  C8  UNL     1      20.670  -0.430  53.208  1.00  0.00     0.003 A 
HETATM   10  C9  UNL     1      21.260  -1.038  54.298  1.00  0.00     0.038 A 
HETATM   11  C10 UNL     1      22.610  -0.892  54.520  1.00  0.00     0.092 A 
HETATM   12  C11 UNL     1      23.438  -0.153  53.698  1.00  0.00     0.047 A 
BRANCH  11  13
HETATM   13  O1  UNL     1      23.251  -1.483  55.602  1.00  0.00    -0.241 OA
HETATM   14 CL1  UNL     1      24.906  -1.130  55.933  1.00  0.00     0.067 Cl
ENDBRANCH  11  13
ENDBRANCH   6   7
ENDBRANCH   1   6
BRANCH   1  15
HETATM   15  C12 UNL     1      25.569   2.512  52.064  1.00  0.00     0.174 C 
HETATM   16  S1  UNL     1      26.387   2.808  50.672  1.00  0.00    -0.041 SA
BRANCH  15  17
HETATM   17  N2  UNL     1      26.354   2.283  53.233  1.00  0.00    -0.333 N 
HETATM   18  H16 UNL     1      26.479   2.721  54.160  1.00  0.00     0.168 HD
BRANCH  17  19
HETATM   19  C13 UNL     1      27.259   1.191  53.285  1.00  0.00     0.034 A 
HETATM   20  C14 UNL     1      28.592   1.281  53.693  1.00  0.00     0.029 A 
HETATM   21  C15 UNL     1      29.460   0.214  53.741  1.00  0.00     0.002 A 
HETATM   22  C16 UNL     1      29.008  -1.034  53.365  1.00  0.00     0.000 A 
HETATM   23  C17 UNL     1      27.700  -1.169  52.955  1.00  0.00     0.002 A 
HETATM   24  C18 UNL     1      26.856  -0.076  52.920  1.00  0.00     0.029 A 
ENDBRANCH  17  19
ENDBRANCH  15  17
ENDBRANCH   1  15
TORSDOF 9
ENDMDL
MODEL 4
REMARK VINA RESULT:      -7.0      3.101      5.901
REMARK  9 active torsions:
REMARK  status: ('A' for Active; 'I' for Inactive)
REMARK    1  A    between atoms: C2_2  and  C3_3 
REMARK    2  A    between atoms: C3_3  and  C4_4 
REMARK    3  A    between atoms: C4_4  and  N1_5 
REMARK    4  A    between atoms: N1_5  and  C5_6 
REMARK    5  A    between atoms: N1_5  and  C12_15 
REMARK    6  A    between atoms: C5_6  and  C6_7 
REMARK    7  A    between atoms: C10_11  and  O1_12 
REMARK    8  A    between atoms: C12_15  and  N2_17 
REMARK    9  A    between atoms: N2_17  and  C13_18 
ROOT
HETATM    1  N1  UNL     1      24.033   2.463  52.031  1.00  0.00    -0.354 N 
ENDROOT
BRANCH   1   2
HETATM    2  C4  UNL     1      22.999   3.357  52.498  1.00  0.00     0.125 C 
BRANCH   2   3
HETATM    3  C3  UNL     1      22.766   4.554  51.635  1.00  0.00     0.020 C 
BRANCH   3   4
HETATM    4  C2  UNL     1      21.290   4.802  51.361  1.00  0.00    -0.003 C 
HETATM    5  C1  UNL     1      20.435   3.720  51.997  1.00  0.00     0.005 C 
ENDBRANCH   3   4
ENDBRANCH   2   3
ENDBRANCH   1   2
BRANCH   1   6
HETATM    6  C5  UNL     1      23.449   1.292  51.411  1.00  0.00     0.164 C 
BRANCH   6   7
HETATM    7  C6  UNL     1      22.613   0.497  52.381  1.00  0.00    -0.038 A 
HETATM    8  C7  UNL     1      23.428  -0.064  53.378  1.00  0.00     0.009 A 
HETATM    9  C8  UNL     1      22.921  -0.839  54.399  1.00  0.00     0.003 A 
HETATM   10  C9  UNL     1      21.558  -1.056  54.416  1.00  0.00     0.038 A 
HETATM   11  C10 UNL     1      20.762  -0.505  53.438  1.00  0.00     0.092 A 
HETATM   12  C11 UNL     1      21.254   0.274  52.409  1.00  0.00     0.047 A 
BRANCH  11  13
HETATM   13  O1  UNL     1      19.385  -0.693  53.410  1.00  0.00    -0.241 OA
HETATM   14 CL1  UNL     1      18.490  -0.353  51.976  1.00  0.00     0.067 Cl
ENDBRANCH  11  13
ENDBRANCH   6   7
ENDBRANCH   1   6
BRANCH   1  15
HETATM   15  C12 UNL     1      25.471   2.535  52.072  1.00  0.00     0.174 C 
HETATM   16  S1  UNL     1      26.335   2.855  50.714  1.00  0.00    -0.041 SA
BRANCH  15  17
HETATM   17  N2  UNL     1      26.216   2.335  53.273  1.00  0.00    -0.333 N 
HETATM   18  H16 UNL     1      26.251   2.748  54.219  1.00  0.00     0.168 HD
BRANCH  17  19
HETATM   19  C13 UNL     1      27.217   1.333  53.337  1.00  0.00     0.034 A 
HETATM   20  C14 UNL     1      28.556   1.563  53.661  1.00  0.00     0.029 A 
HETATM   21  C15 UNL     1      29.518   0.581  53.721  1.00  0.00     0.002 A 
HETATM   22  C16 UNL     1      29.162  -0.723  53.448  1.00  0.00     0.000 A 
HETATM   23  C17 UNL     1      27.851  -0.997  53.123  1.00  0.00     0.002 A 
HETATM   24  C18 UNL     1      26.911   0.014  53.073  1.00  0.00     0.029 A 
ENDBRANCH  17  19
ENDBRANCH  15  17
ENDBRANCH   1  15
TORSDOF 9
ENDMDL
MODEL 5
REMARK VINA RESULT:      -7.0      1.462      5.415
REMARK  9 active torsions:
REMARK  status: ('A' for Active; 'I' for Inactive)
REMARK    1  A    between atoms: C2_2  and  C3_3 
REMARK    2  A    between atoms: C3_3  and  C4_4 
REMARK    3  A    between atoms: C4_4  and  N1_5 
REMARK    4  A    between atoms: N1_5  and  C5_6 
REMARK    5  A    between atoms: N1_5  and  C12_15 
REMARK    6  A    between atoms: C5_6  and  C6_7 
REMARK    7  A    between atoms: C10_11  and  O1_12 
REMARK    8  A    between atoms: C12_15  and  N2_17 
REMARK    9  A    between atoms: N2_17  and  C13_18 
ROOT
HETATM    1  N1  UNL     1      22.662   1.566  51.871  1.00  0.00    -0.354 N 
ENDROOT
BRANCH   1   2
HETATM    2  C4  UNL     1      21.889   0.357  52.041  1.00  0.00     0.125 C 
BRANCH   2   3
HETATM    3  C3  UNL     1      21.216   0.220  53.367  1.00  0.00     0.020 C 
BRANCH   3   4
HETATM    4  C2  UNL     1      21.364  -1.172  53.962  1.00  0.00    -0.003 C 
HETATM    5  C1  UNL     1      22.438  -1.188  55.035  1.00  0.00     0.005 C 
ENDBRANCH   3   4
ENDBRANCH   2   3
ENDBRANCH   1   2
BRANCH   1   6
HETATM    6  C5  UNL     1      23.415   1.858  53.073  1.00  0.00     0.164 C 
BRANCH   6   7
HETATM    7  C6  UNL     1      24.785   1.229  53.049  1.00  0.00    -0.038 A 
HETATM    8  C7  UNL     1      25.756   2.164  53.440  1.00  0.00     0.009 A 
HETATM    9  C8  UNL     1      27.097   1.854  53.512  1.00  0.00     0.003 A 
HETATM   10  C9  UNL     1      27.469   0.567  53.179  1.00  0.00     0.038 A 
HETATM   11  C10 UNL     1      26.516  -0.348  52.797  1.00  0.00     0.092 A 
HETATM   12  C11 UNL     1      25.168  -0.052  52.721  1.00  0.00     0.047 A 
BRANCH  11  13
HETATM   13  O1  UNL     1      26.838  -1.655  52.452  1.00  0.00    -0.241 OA
HETATM   14 CL1  UNL     1      28.353  -2.331  52.923  1.00  0.00     0.067 Cl
ENDBRANCH  11  13
ENDBRANCH   6   7
ENDBRANCH   1   6
BRANCH   1  15
HETATM   15  C12 UNL     1      22.805   2.480  50.767  1.00  0.00     0.174 C 
HETATM   16  S1  UNL     1      22.312   2.059  49.260  1.00  0.00    -0.041 SA
BRANCH  15  17
HETATM   17  N2  UNL     1      23.374   3.779  50.916  1.00  0.00    -0.333 N 
HETATM   18  H16 UNL     1      23.153   4.649  51.428  1.00  0.00     0.168 HD
BRANCH  17  19
HETATM   19  C13 UNL     1      24.571   4.120  50.234  1.00  0.00     0.034 A 
HETATM   20  C14 UNL     1      24.817   5.353  49.624  1.00  0.00     0.029 A 
HETATM   21  C15 UNL     1      25.983   5.672  48.967  1.00  0.00     0.002 A 
HETATM   22  C16 UNL     1      26.988   4.730  48.891  1.00  0.00     0.000 A 
HETATM   23  C17 UNL     1      26.788   3.500  49.478  1.00  0.00     0.002 A 
HETATM   24  C18 UNL     1      25.605   3.214  50.131  1.00  0.00     0.029 A 
ENDBRANCH  17  19
ENDBRANCH  15  17
ENDBRANCH   1  15
TORSDOF 9
ENDMDL
MODEL 6
REMARK VINA RESULT:      -7.0      2.124      6.311
REMARK  9 active torsions:
REMARK  status: ('A' for Active; 'I' for Inactive)
REMARK    1  A    between atoms: C2_2  and  C3_3 
REMARK    2  A    between atoms: C3_3  and  C4_4 
REMARK    3  A    between atoms: C4_4  and  N1_5 
REMARK    4  A    between atoms: N1_5  and  C5_6 
REMARK    5  A    between atoms: N1_5  and  C12_15 
REMARK    6  A    between atoms: C5_6  and  C6_7 
REMARK    7  A    between atoms: C10_11  and  O1_12 
REMARK    8  A    between atoms: C12_15  and  N2_17 
REMARK    9  A    between atoms: N2_17  and  C13_18 
ROOT
HETATM    1  N1  UNL     1      24.208   2.570  51.757  1.00  0.00    -0.354 N 
ENDROOT
BRANCH   1   2
HETATM    2  C4  UNL     1      25.295   2.273  52.661  1.00  0.00     0.125 C 
BRANCH   2   3
HETATM    3  C3  UNL     1      26.343   1.363  52.107  1.00  0.00     0.020 C 
BRANCH   3   4
HETATM    4  C2  UNL     1      26.680   0.215  53.047  1.00  0.00    -0.003 C 
HETATM    5  C1  UNL     1      26.833  -1.084  52.275  1.00  0.00     0.005 C 
ENDBRANCH   3   4
ENDBRANCH   2   3
ENDBRANCH   1   2
BRANCH   1   6
HETATM    6  C5  UNL     1      23.499   1.359  51.402  1.00  0.00     0.164 C 
BRANCH   6   7
HETATM    7  C6  UNL     1      22.696   0.814  52.556  1.00  0.00    -0.038 A 
HETATM    8  C7  UNL     1      21.424   1.408  52.585  1.00  0.00     0.009 A 
HETATM    9  C8  UNL     1      20.479   1.089  53.537  1.00  0.00     0.003 A 
HETATM   10  C9  UNL     1      20.826   0.148  54.485  1.00  0.00     0.038 A 
HETATM   11  C10 UNL     1      22.073  -0.432  54.454  1.00  0.00     0.092 A 
HETATM   12  C11 UNL     1      23.030  -0.124  53.506  1.00  0.00     0.047 A 
BRANCH  11  13
HETATM   13  O1  UNL     1      22.471  -1.384  55.385  1.00  0.00    -0.241 OA
HETATM   14 CL1  UNL     1      24.106  -1.438  55.931  1.00  0.00     0.067 Cl
ENDBRANCH  11  13
ENDBRANCH   6   7
ENDBRANCH   1   6
BRANCH   1  15
HETATM   15  C12 UNL     1      23.732   3.803  51.182  1.00  0.00     0.174 C 
HETATM   16  S1  UNL     1      22.964   4.919  52.108  1.00  0.00    -0.041 SA
BRANCH  15  17
HETATM   17  N2  UNL     1      23.896   4.119  49.801  1.00  0.00    -0.333 N 
HETATM   18  H16 UNL     1      23.341   4.034  48.934  1.00  0.00     0.168 HD
BRANCH  17  19
HETATM   19  C13 UNL     1      25.097   4.717  49.340  1.00  0.00     0.034 A 
HETATM   20  C14 UNL     1      25.203   6.026  48.864  1.00  0.00     0.029 A 
HETATM   21  C15 UNL     1      26.374   6.596  48.420  1.00  0.00     0.002 A 
HETATM   22  C16 UNL     1      27.532   5.845  48.436  1.00  0.00     0.000 A 
HETATM   23  C17 UNL     1      27.473   4.548  48.897  1.00  0.00     0.002 A 
HETATM   24  C18 UNL     1      26.280   4.009  49.335  1.00  0.00     0.029 A 
ENDBRANCH  17  19
ENDBRANCH  15  17
ENDBRANCH   1  15
TORSDOF 9
ENDMDL
MODEL 7
REMARK VINA RESULT:      -6.9      2.588      6.185
REMARK  9 active torsions:
REMARK  status: ('A' for Active; 'I' for Inactive)
REMARK    1  A    between atoms: C2_2  and  C3_3 
REMARK    2  A    between atoms: C3_3  and  C4_4 
REMARK    3  A    between atoms: C4_4  and  N1_5 
REMARK    4  A    between atoms: N1_5  and  C5_6 
REMARK    5  A    between atoms: N1_5  and  C12_15 
REMARK    6  A    between atoms: C5_6  and  C6_7 
REMARK    7  A    between atoms: C10_11  and  O1_12 
REMARK    8  A    between atoms: C12_15  and  N2_17 
REMARK    9  A    between atoms: N2_17  and  C13_18 
ROOT
HETATM    1  N1  UNL     1      25.128   2.023  52.600  1.00  0.00    -0.354 N 
ENDROOT
BRANCH   1   2
HETATM    2  C4  UNL     1      26.150   2.129  53.615  1.00  0.00     0.125 C 
BRANCH   2   3
HETATM    3  C3  UNL     1      27.471   1.537  53.245  1.00  0.00     0.020 C 
BRANCH   3   4
HETATM    4  C2  UNL     1      28.015   0.598  54.311  1.00  0.00    -0.003 C 
HETATM    5  C1  UNL     1      29.312  -0.044  53.851  1.00  0.00     0.005 C 
ENDBRANCH   3   4
ENDBRANCH   2   3
ENDBRANCH   1   2
BRANCH   1   6
HETATM    6  C5  UNL     1      24.834   0.634  52.319  1.00  0.00     0.164 C 
BRANCH   6   7
HETATM    7  C6  UNL     1      23.591   0.164  53.030  1.00  0.00    -0.038 A 
HETATM    8  C7  UNL     1      23.935  -0.601  54.156  1.00  0.00     0.009 A 
HETATM    9  C8  UNL     1      22.990  -1.154  54.994  1.00  0.00     0.003 A 
HETATM   10  C9  UNL     1      21.663  -0.930  54.689  1.00  0.00     0.038 A 
HETATM   11  C10 UNL     1      21.328  -0.180  53.585  1.00  0.00     0.092 A 
HETATM   12  C11 UNL     1      22.263   0.381  52.737  1.00  0.00     0.047 A 
BRANCH  11  13
HETATM   13  O1  UNL     1      20.007   0.074  53.234  1.00  0.00    -0.241 OA
HETATM   14 CL1  UNL     1      19.558   0.209  51.575  1.00  0.00     0.067 Cl
ENDBRANCH  11  13
ENDBRANCH   6   7
ENDBRANCH   1   6
BRANCH   1  15
HETATM   15  C12 UNL     1      24.389   3.014  51.859  1.00  0.00     0.174 C 
HETATM   16  S1  UNL     1      23.452   4.115  52.635  1.00  0.00    -0.041 SA
BRANCH  15  17
HETATM   17  N2  UNL     1      24.427   3.094  50.436  1.00  0.00    -0.333 N 
HETATM   18  H16 UNL     1      23.946   2.645  49.639  1.00  0.00     0.168 HD
BRANCH  17  19
HETATM   19  C13 UNL     1      25.319   3.988  49.791  1.00  0.00     0.034 A 
HETATM   20  C14 UNL     1      26.654   3.704  49.490  1.00  0.00     0.029 A 
HETATM   21  C15 UNL     1      27.510   4.580  48.863  1.00  0.00     0.002 A 
HETATM   22  C16 UNL     1      27.043   5.827  48.499  1.00  0.00     0.000 A 
HETATM   23  C17 UNL     1      25.733   6.150  48.777  1.00  0.00     0.002 A 
HETATM   24  C18 UNL     1      24.902   5.245  49.407  1.00  0.00     0.029 A 
ENDBRANCH  17  19
ENDBRANCH  15  17
ENDBRANCH   1  15
TORSDOF 9
ENDMDL
MODEL 8
REMARK VINA RESULT:      -6.9      3.098      5.072
REMARK  9 active torsions:
REMARK  status: ('A' for Active; 'I' for Inactive)
REMARK    1  A    between atoms: C2_2  and  C3_3 
REMARK    2  A    between atoms: C3_3  and  C4_4 
REMARK    3  A    between atoms: C4_4  and  N1_5 
REMARK    4  A    between atoms: N1_5  and  C5_6 
REMARK    5  A    between atoms: N1_5  and  C12_15 
REMARK    6  A    between atoms: C5_6  and  C6_7 
REMARK    7  A    between atoms: C10_11  and  O1_12 
REMARK    8  A    between atoms: C12_15  and  N2_17 
REMARK    9  A    between atoms: N2_17  and  C13_18 
ROOT
HETATM    1  N1  UNL     1      24.735   2.888  51.281  1.00  0.00    -0.354 N 
ENDROOT
BRANCH   1   2
HETATM    2  C4  UNL     1      26.006   2.531  51.867  1.00  0.00     0.125 C 
BRANCH   2   3
HETATM    3  C3  UNL     1      26.512   1.175  51.495  1.00  0.00     0.020 C 
BRANCH   3   4
HETATM    4  C2  UNL     1      27.030   0.392  52.692  1.00  0.00    -0.003 C 
HETATM    5  C1  UNL     1      26.614  -1.066  52.602  1.00  0.00     0.005 C 
ENDBRANCH   3   4
ENDBRANCH   2   3
ENDBRANCH   1   2
BRANCH   1   6
HETATM    6  C5  UNL     1      24.830   2.909  49.837  1.00  0.00     0.164 C 
BRANCH   6   7
HETATM    7  C6  UNL     1      25.731   4.013  49.345  1.00  0.00    -0.038 A 
HETATM    8  C7  UNL     1      24.992   5.190  49.146  1.00  0.00     0.009 A 
HETATM    9  C8  UNL     1      25.569   6.361  48.702  1.00  0.00     0.003 A 
HETATM   10  C9  UNL     1      26.926   6.344  48.450  1.00  0.00     0.038 A 
HETATM   11  C10 UNL     1      27.648   5.189  48.646  1.00  0.00     0.092 A 
HETATM   12  C11 UNL     1      27.084   4.009  49.092  1.00  0.00     0.047 A 
BRANCH  11  13
HETATM   13  O1  UNL     1      29.015   5.120  48.407  1.00  0.00    -0.241 OA
HETATM   14 CL1  UNL     1      29.897   6.538  47.978  1.00  0.00     0.067 Cl
ENDBRANCH  11  13
ENDBRANCH   6   7
ENDBRANCH   1   6
BRANCH   1  15
HETATM   15  C12 UNL     1      23.455   3.208  51.859  1.00  0.00     0.174 C 
HETATM   16  S1  UNL     1      23.212   4.643  52.619  1.00  0.00    -0.041 SA
BRANCH  15  17
HETATM   17  N2  UNL     1      22.344   2.315  51.808  1.00  0.00    -0.333 N 
HETATM   18  H16 UNL     1      21.509   2.178  51.215  1.00  0.00     0.168 HD
BRANCH  17  19
HETATM   19  C13 UNL     1      22.213   1.278  52.767  1.00  0.00     0.034 A 
HETATM   20  C14 UNL     1      23.220   0.369  53.101  1.00  0.00     0.029 A 
HETATM   21  C15 UNL     1      23.080  -0.633  54.034  1.00  0.00     0.002 A 
HETATM   22  C16 UNL     1      21.876  -0.769  54.695  1.00  0.00     0.000 A 
HETATM   23  C17 UNL     1      20.855   0.105  54.396  1.00  0.00     0.002 A 
HETATM   24  C18 UNL     1      21.030   1.100  53.454  1.00  0.00     0.029 A 
ENDBRANCH  17  19
ENDBRANCH  15  17
ENDBRANCH   1  15
TORSDOF 9
ENDMDL
MODEL 9
REMARK VINA RESULT:      -6.9      2.594      5.575
REMARK  9 active torsions:
REMARK  status: ('A' for Active; 'I' for Inactive)
REMARK    1  A    between atoms: C2_2  and  C3_3 
REMARK    2  A    between atoms: C3_3  and  C4_4 
REMARK    3  A    between atoms: C4_4  and  N1_5 
REMARK    4  A    between atoms: N1_5  and  C5_6 
REMARK    5  A    between atoms: N1_5  and  C12_15 
REMARK    6  A    between atoms: C5_6  and  C6_7 
REMARK    7  A    between atoms: C10_11  and  O1_12 
REMARK    8  A    between atoms: C12_15  and  N2_17 
REMARK    9  A    between atoms: N2_17  and  C13_18 
ROOT
HETATM    1  N1  UNL     1      24.071   3.651  50.903  1.00  0.00    -0.354 N 
ENDROOT
BRANCH   1   2
HETATM    2  C4  UNL     1      23.293   3.863  49.705  1.00  0.00     0.125 C 
BRANCH   2   3
HETATM    3  C3  UNL     1      23.132   2.658  48.837  1.00  0.00     0.020 C 
BRANCH   3   4
HETATM    4  C2  UNL     1      21.674   2.294  48.598  1.00  0.00    -0.003 C 
HETATM    5  C1  UNL     1      21.372   0.904  49.130  1.00  0.00     0.005 C 
ENDBRANCH   3   4
ENDBRANCH   2   3
ENDBRANCH   1   2
BRANCH   1   6
HETATM    6  C5  UNL     1      23.250   3.835  52.081  1.00  0.00     0.164 C 
BRANCH   6   7
HETATM    7  C6  UNL     1      22.366   2.643  52.346  1.00  0.00    -0.038 A 
HETATM    8  C7  UNL     1      21.014   3.011  52.256  1.00  0.00     0.009 A 
HETATM    9  C8  UNL     1      19.987   2.113  52.449  1.00  0.00     0.003 A 
HETATM   10  C9  UNL     1      20.331   0.808  52.742  1.00  0.00     0.038 A 
HETATM   11  C10 UNL     1      21.656   0.450  52.828  1.00  0.00     0.092 A 
HETATM   12  C11 UNL     1      22.697   1.338  52.637  1.00  0.00     0.047 A 
BRANCH  11  13
HETATM   13  O1  UNL     1      22.055  -0.849  53.120  1.00  0.00    -0.241 OA
HETATM   14 CL1  UNL     1      22.570  -1.265  54.713  1.00  0.00     0.067 Cl
ENDBRANCH  11  13
ENDBRANCH   6   7
ENDBRANCH   1   6
BRANCH   1  15
HETATM   15  C12 UNL     1      25.453   3.303  51.114  1.00  0.00     0.174 C 
HETATM   16  S1  UNL     1      26.518   3.301  49.865  1.00  0.00    -0.041 SA
BRANCH  15  17
HETATM   17  N2  UNL     1      25.968   2.946  52.395  1.00  0.00    -0.333 N 
HETATM   18  H16 UNL     1      26.028   3.374  53.334  1.00  0.00     0.168 HD
BRANCH  17  19
HETATM   19  C13 UNL     1      26.599   1.691  52.591  1.00  0.00     0.034 A 
HETATM   20  C14 UNL     1      26.060   0.460  52.209  1.00  0.00     0.029 A 
HETATM   21  C15 UNL     1      26.684  -0.752  52.404  1.00  0.00     0.002 A 
HETATM   22  C16 UNL     1      27.921  -0.778  53.014  1.00  0.00     0.000 A 
HETATM   23  C17 UNL     1      28.490   0.413  53.407  1.00  0.00     0.002 A 
HETATM   24  C18 UNL     1      27.836   1.611  53.196  1.00  0.00     0.029 A 
ENDBRANCH  17  19
ENDBRANCH  15  17
ENDBRANCH   1  15
TORSDOF 9
ENDMDL
