MODEL 1
REMARK VINA RESULT:      -6.9      0.000      0.000
REMARK  8 active torsions:
REMARK  status: ('A' for Active; 'I' for Inactive)
REMARK    1  A    between atoms: C2_2  and  C3_3 
REMARK    2  A    between atoms: C3_3  and  O1_4 
REMARK    3  A    between atoms: O1_4  and  C4_5 
REMARK    4  A    between atoms: C4_5  and  C5_6 
REMARK    5  A    between atoms: C5_6  and  O2_7 
REMARK    6  A    between atoms: O2_7  and  C6_8 
REMARK    7  A    between atoms: C15_20  and  N3_21 
REMARK    8  A    between atoms: N3_21  and  C16_22 
ROOT
HETATM    1  C6  UNL     1      22.851   0.502  52.510  1.00  0.00     0.285 C 
HETATM    2  C7  UNL     1      24.025   1.182  52.051  1.00  0.00     0.045 C 
HETATM    3  C8  UNL     1      25.053   1.913  52.165  1.00  0.00     0.009 C 
HETATM    4  C9  UNL     1      25.298   2.460  53.551  1.00  0.00     0.193 C 
HETATM    5  N1  UNL     1      26.579   1.861  53.859  1.00  0.00    -0.270 NA
HETATM    6  C10 UNL     1      26.951   0.789  53.143  1.00  0.00     0.126 C 
HETATM    7  C11 UNL     1      27.253   0.116  54.432  1.00  0.00     0.107 C 
HETATM    8  C12 UNL     1      25.949  -0.415  55.014  1.00  0.00    -0.021 C 
HETATM    9  C13 UNL     1      24.698  -0.570  54.552  1.00  0.00    -0.004 C 
HETATM   10  C14 UNL     1      23.241  -0.846  54.314  1.00  0.00     0.198 C 
HETATM   11  O3  UNL     1      22.632   0.379  53.899  1.00  0.00    -0.354 OA
HETATM   12  N2  UNL     1      26.741   1.181  51.776  1.00  0.00    -0.215 NA
HETATM   13  C15 UNL     1      26.266   2.381  51.523  1.00  0.00     0.138 C 
ENDROOT
BRANCH   1  14
HETATM   14  O2  UNL     1      21.750   0.787  51.767  1.00  0.00    -0.356 OA
BRANCH  14  15
HETATM   15  C5  UNL     1      20.539   0.759  52.424  1.00  0.00     0.197 C 
BRANCH  15  16
HETATM   16  C4  UNL     1      19.647   1.818  51.764  1.00  0.00     0.193 C 
BRANCH  16  17
HETATM   17  O1  UNL     1      19.800   3.015  52.458  1.00  0.00    -0.389 OA
BRANCH  17  18
HETATM   18  C3  UNL     1      19.979   4.040  51.544  1.00  0.00     0.172 C 
BRANCH  18  19
HETATM   19  C2  UNL     1      21.413   4.360  51.395  1.00  0.00     0.015 C 
HETATM   20  C1  UNL     1      22.352   4.527  52.306  1.00  0.00     0.007 C 
ENDBRANCH  18  19
ENDBRANCH  17  18
ENDBRANCH  16  17
ENDBRANCH  15  16
ENDBRANCH  14  15
ENDBRANCH   1  14
BRANCH  13  21
HETATM   21  N3  UNL     1      26.595   3.594  50.947  1.00  0.00    -0.340 N 
HETATM   22  H20 UNL     1      27.483   3.990  51.236  1.00  0.00     0.167 HD
BRANCH  21  23
HETATM   23  C16 UNL     1      25.557   3.972  50.069  1.00  0.00     0.034 A 
HETATM   24  C17 UNL     1      24.666   3.566  49.205  1.00  0.00     0.036 A 
HETATM   25  C18 UNL     1      24.173   4.940  48.972  1.00  0.00    -0.058 A 
HETATM   26  C19 UNL     1      23.118   5.538  48.112  1.00  0.00     0.048 C 
HETATM   27  C20 UNL     1      25.088   5.358  49.860  1.00  0.00     0.036 A 
ENDBRANCH  21  23
ENDBRANCH  13  21
TORSDOF 8
ENDMDL
MODEL 2
REMARK VINA RESULT:      -6.8      2.811      6.951
REMARK  8 active torsions:
REMARK  status: ('A' for Active; 'I' for Inactive)
REMARK    1  A    between atoms: C2_2  and  C3_3 
REMARK    2  A    between atoms: C3_3  and  O1_4 
REMARK    3  A    between atoms: O1_4  and  C4_5 
REMARK    4  A    between atoms: C4_5  and  C5_6 
REMARK    5  A    between atoms: C5_6  and  O2_7 
REMARK    6  A    between atoms: O2_7  and  C6_8 
REMARK    7  A    between atoms: C15_20  and  N3_21 
REMARK    8  A    between atoms: N3_21  and  C16_22 
ROOT
HETATM    1  C6  UNL     1      25.370   2.221  51.508  1.00  0.00     0.285 C 
HETATM    2  C7  UNL     1      24.055   1.659  51.413  1.00  0.00     0.045 C 
HETATM    3  C8  UNL     1      22.790   1.686  51.367  1.00  0.00     0.009 C 
HETATM    4  C9  UNL     1      22.176   3.063  51.465  1.00  0.00     0.193 C 
HETATM    5  N1  UNL     1      21.503   3.154  50.187  1.00  0.00    -0.270 NA
HETATM    6  C10 UNL     1      21.902   2.321  49.214  1.00  0.00     0.126 C 
HETATM    7  C11 UNL     1      21.988   3.507  48.325  1.00  0.00     0.107 C 
HETATM    8  C12 UNL     1      23.307   4.219  48.599  1.00  0.00    -0.021 C 
HETATM    9  C13 UNL     1      24.423   3.918  49.283  1.00  0.00    -0.004 C 
HETATM   10  C14 UNL     1      25.761   3.858  49.961  1.00  0.00     0.198 C 
HETATM   11  O3  UNL     1      25.529   3.615  51.351  1.00  0.00    -0.354 OA
HETATM   12  N2  UNL     1      21.919   1.025  49.837  1.00  0.00    -0.215 NA
HETATM   13  C15 UNL     1      21.586   0.923  51.105  1.00  0.00     0.138 C 
ENDROOT
BRANCH   1  14
HETATM   14  O2  UNL     1      26.118   1.654  52.490  1.00  0.00    -0.356 OA
BRANCH  14  15
HETATM   15  C5  UNL     1      25.783   0.367  52.853  1.00  0.00     0.197 C 
BRANCH  15  16
HETATM   16  C4  UNL     1      26.037   0.247  54.362  1.00  0.00     0.193 C 
BRANCH  16  17
HETATM   17  O1  UNL     1      27.115  -0.610  54.558  1.00  0.00    -0.389 OA
BRANCH  17  18
HETATM   18  C3  UNL     1      28.240   0.146  54.840  1.00  0.00     0.172 C 
BRANCH  18  19
HETATM   19  C2  UNL     1      29.345  -0.205  53.925  1.00  0.00     0.015 C 
HETATM   20  C1  UNL     1      29.685  -1.365  53.398  1.00  0.00     0.007 C 
ENDBRANCH  18  19
ENDBRANCH  17  18
ENDBRANCH  16  17
ENDBRANCH  15  16
ENDBRANCH  14  15
ENDBRANCH   1  14
BRANCH  13  21
HETATM   21  N3  UNL     1      20.627   0.395  51.950  1.00  0.00    -0.340 N 
HETATM   22  H20 UNL     1      19.675   0.414  51.599  1.00  0.00     0.167 HD
BRANCH  21  23
HETATM   23  C16 UNL     1      21.262  -0.050  53.129  1.00  0.00     0.034 A 
HETATM   24  C17 UNL     1      21.396   0.117  54.418  1.00  0.00     0.036 A 
HETATM   25  C18 UNL     1      22.368  -0.992  54.523  1.00  0.00    -0.058 A 
HETATM   26  C19 UNL     1      23.134  -1.604  55.640  1.00  0.00     0.048 C 
HETATM   27  C20 UNL     1      22.230  -1.164  53.200  1.00  0.00     0.036 A 
ENDBRANCH  21  23
ENDBRANCH  13  21
TORSDOF 8
ENDMDL
MODEL 3
REMARK VINA RESULT:      -6.8      2.064      4.966
REMARK  8 active torsions:
REMARK  status: ('A' for Active; 'I' for Inactive)
REMARK    1  A    between atoms: C2_2  and  C3_3 
REMARK    2  A    between atoms: C3_3  and  O1_4 
REMARK    3  A    between atoms: O1_4  and  C4_5 
REMARK    4  A    between atoms: C4_5  and  C5_6 
REMARK    5  A    between atoms: C5_6  and  O2_7 
REMARK    6  A    between atoms: O2_7  and  C6_8 
REMARK    7  A    between atoms: C15_20  and  N3_21 
REMARK    8  A    between atoms: N3_21  and  C16_22 
ROOT
HETATM    1  C6  UNL     1      24.426  -0.010  53.620  1.00  0.00     0.285 C 
HETATM    2  C7  UNL     1      24.723   1.233  52.972  1.00  0.00     0.045 C 
HETATM    3  C8  UNL     1      24.636   2.108  52.060  1.00  0.00     0.009 C 
HETATM    4  C9  UNL     1      23.710   1.754  50.921  1.00  0.00     0.193 C 
HETATM    5  N1  UNL     1      22.729   2.812  51.027  1.00  0.00    -0.270 NA
HETATM    6  C10 UNL     1      22.648   3.469  52.194  1.00  0.00     0.126 C 
HETATM    7  C11 UNL     1      21.182   3.235  52.148  1.00  0.00     0.107 C 
HETATM    8  C12 UNL     1      20.905   1.820  52.640  1.00  0.00    -0.021 C 
HETATM    9  C13 UNL     1      21.630   0.870  53.252  1.00  0.00    -0.004 C 
HETATM   10  C14 UNL     1      22.186  -0.357  53.915  1.00  0.00     0.198 C 
HETATM   11  O3  UNL     1      23.329  -0.772  53.164  1.00  0.00    -0.354 OA
HETATM   12  N2  UNL     1      24.007   3.824  52.500  1.00  0.00    -0.215 NA
HETATM   13  C15 UNL     1      24.962   3.466  51.670  1.00  0.00     0.138 C 
ENDROOT
BRANCH   1  14
HETATM   14  O2  UNL     1      25.540  -0.719  53.938  1.00  0.00    -0.356 OA
BRANCH  14  15
HETATM   15  C5  UNL     1      26.227  -1.291  52.890  1.00  0.00     0.197 C 
BRANCH  15  16
HETATM   16  C4  UNL     1      27.690  -0.848  53.018  1.00  0.00     0.193 C 
BRANCH  16  17
HETATM   17  O1  UNL     1      28.032  -0.849  54.367  1.00  0.00    -0.389 OA
BRANCH  17  18
HETATM   18  C3  UNL     1      28.865   0.229  54.616  1.00  0.00     0.172 C 
BRANCH  18  19
HETATM   19  C2  UNL     1      28.757   1.230  53.536  1.00  0.00     0.015 C 
HETATM   20  C1  UNL     1      28.666   2.544  53.591  1.00  0.00     0.007 C 
ENDBRANCH  18  19
ENDBRANCH  17  18
ENDBRANCH  16  17
ENDBRANCH  15  16
ENDBRANCH  14  15
ENDBRANCH   1  14
BRANCH  13  21
HETATM   21  N3  UNL     1      25.904   3.972  50.794  1.00  0.00    -0.340 N 
HETATM   22  H20 UNL     1      26.794   3.486  50.779  1.00  0.00     0.167 HD
BRANCH  21  23
HETATM   23  C16 UNL     1      25.346   5.081  50.124  1.00  0.00     0.034 A 
HETATM   24  C17 UNL     1      25.236   6.382  50.086  1.00  0.00     0.036 A 
HETATM   25  C18 UNL     1      24.368   6.336  48.889  1.00  0.00    -0.058 A 
HETATM   26  C19 UNL     1      23.692   7.362  48.052  1.00  0.00     0.048 C 
HETATM   27  C20 UNL     1      24.481   5.000  48.928  1.00  0.00     0.036 A 
ENDBRANCH  21  23
ENDBRANCH  13  21
TORSDOF 8
ENDMDL
MODEL 4
REMARK VINA RESULT:      -6.7      2.726      5.559
REMARK  8 active torsions:
REMARK  status: ('A' for Active; 'I' for Inactive)
REMARK    1  A    between atoms: C2_2  and  C3_3 
REMARK    2  A    between atoms: C3_3  and  O1_4 
REMARK    3  A    between atoms: O1_4  and  C4_5 
REMARK    4  A    between atoms: C4_5  and  C5_6 
REMARK    5  A    between atoms: C5_6  and  O2_7 
REMARK    6  A    between atoms: O2_7  and  C6_8 
REMARK    7  A    between atoms: C15_20  and  N3_21 
REMARK    8  A    between atoms: N3_21  and  C16_22 
ROOT
HETATM    1  C6  UNL     1      24.549   0.551  53.231  1.00  0.00     0.285 C 
HETATM    2  C7  UNL     1      23.686   1.451  52.526  1.00  0.00     0.045 C 
HETATM    3  C8  UNL     1      22.745   1.770  51.739  1.00  0.00     0.009 C 
HETATM    4  C9  UNL     1      22.035   0.606  51.090  1.00  0.00     0.193 C 
HETATM    5  N1  UNL     1      20.694   0.784  51.604  1.00  0.00    -0.270 NA
HETATM    6  C10 UNL     1      20.544   1.541  52.702  1.00  0.00     0.126 C 
HETATM    7  C11 UNL     1      19.731   0.436  53.272  1.00  0.00     0.107 C 
HETATM    8  C12 UNL     1      20.678  -0.621  53.826  1.00  0.00    -0.021 C 
HETATM    9  C13 UNL     1      21.997  -0.677  54.073  1.00  0.00    -0.004 C 
HETATM   10  C14 UNL     1      23.412  -1.025  54.435  1.00  0.00     0.198 C 
HETATM   11  O3  UNL     1      24.217  -0.821  53.271  1.00  0.00    -0.354 OA
HETATM   12  N2  UNL     1      21.283   2.740  52.413  1.00  0.00    -0.215 NA
HETATM   13  C15 UNL     1      21.901   2.845  51.257  1.00  0.00     0.138 C 
ENDROOT
BRANCH   1  14
HETATM   14  O2  UNL     1      25.866   0.830  53.050  1.00  0.00    -0.356 OA
BRANCH  14  15
HETATM   15  C5  UNL     1      26.420   1.763  53.899  1.00  0.00     0.197 C 
BRANCH  15  16
HETATM   16  C4  UNL     1      27.815   2.093  53.353  1.00  0.00     0.193 C 
BRANCH  16  17
HETATM   17  O1  UNL     1      28.727   2.014  54.401  1.00  0.00    -0.389 OA
BRANCH  17  18
HETATM   18  C3  UNL     1      28.881   0.684  54.758  1.00  0.00     0.172 C 
BRANCH  18  19
HETATM   19  C2  UNL     1      29.567  -0.066  53.687  1.00  0.00     0.015 C 
HETATM   20  C1  UNL     1      29.523  -1.346  53.374  1.00  0.00     0.007 C 
ENDBRANCH  18  19
ENDBRANCH  17  18
ENDBRANCH  16  17
ENDBRANCH  15  16
ENDBRANCH  14  15
ENDBRANCH   1  14
BRANCH  13  21
HETATM   21  N3  UNL     1      21.901   3.554  50.070  1.00  0.00    -0.340 N 
HETATM   22  H20 UNL     1      21.023   3.557  49.562  1.00  0.00     0.167 HD
BRANCH  21  23
HETATM   23  C16 UNL     1      23.183   4.111  49.878  1.00  0.00     0.034 A 
HETATM   24  C17 UNL     1      23.964   5.135  50.098  1.00  0.00     0.036 A 
HETATM   25  C18 UNL     1      25.093   4.507  49.379  1.00  0.00    -0.058 A 
HETATM   26  C19 UNL     1      26.489   4.914  49.071  1.00  0.00     0.048 C 
HETATM   27  C20 UNL     1      24.291   3.455  49.154  1.00  0.00     0.036 A 
ENDBRANCH  21  23
ENDBRANCH  13  21
TORSDOF 8
ENDMDL
MODEL 5
REMARK VINA RESULT:      -6.7      2.337      5.382
REMARK  8 active torsions:
REMARK  status: ('A' for Active; 'I' for Inactive)
REMARK    1  A    between atoms: C2_2  and  C3_3 
REMARK    2  A    between atoms: C3_3  and  O1_4 
REMARK    3  A    between atoms: O1_4  and  C4_5 
REMARK    4  A    between atoms: C4_5  and  C5_6 
REMARK    5  A    between atoms: C5_6  and  O2_7 
REMARK    6  A    between atoms: O2_7  and  C6_8 
REMARK    7  A    between atoms: C15_20  and  N3_21 
REMARK    8  A    between atoms: N3_21  and  C16_22 
ROOT
HETATM    1  C6  UNL     1      24.977   2.235  52.345  1.00  0.00     0.285 C 
HETATM    2  C7  UNL     1      24.824   1.237  53.362  1.00  0.00     0.045 C 
HETATM    3  C8  UNL     1      24.980   0.097  53.892  1.00  0.00     0.009 C 
HETATM    4  C9  UNL     1      25.776  -0.887  53.069  1.00  0.00     0.193 C 
HETATM    5  N1  UNL     1      26.904  -1.126  53.944  1.00  0.00    -0.270 NA
HETATM    6  C10 UNL     1      27.147  -0.222  54.905  1.00  0.00     0.126 C 
HETATM    7  C11 UNL     1      28.560  -0.211  54.444  1.00  0.00     0.107 C 
HETATM    8  C12 UNL     1      28.660   0.692  53.221  1.00  0.00    -0.021 C 
HETATM    9  C13 UNL     1      27.844   1.578  52.627  1.00  0.00    -0.004 C 
HETATM   10  C14 UNL     1      27.158   2.596  51.763  1.00  0.00     0.198 C 
HETATM   11  O3  UNL     1      25.924   2.025  51.320  1.00  0.00    -0.354 OA
HETATM   12  N2  UNL     1      25.874  -0.025  55.542  1.00  0.00    -0.215 NA
HETATM   13  C15 UNL     1      24.830  -0.691  55.099  1.00  0.00     0.138 C 
ENDROOT
BRANCH   1  14
HETATM   14  O2  UNL     1      23.794   2.771  51.949  1.00  0.00    -0.356 OA
BRANCH  14  15
HETATM   15  C5  UNL     1      23.475   4.009  52.465  1.00  0.00     0.197 C 
BRANCH  15  16
HETATM   16  C4  UNL     1      23.414   4.985  51.282  1.00  0.00     0.193 C 
BRANCH  16  17
HETATM   17  O1  UNL     1      24.697   5.123  50.761  1.00  0.00    -0.389 OA
BRANCH  17  18
HETATM   18  C3  UNL     1      24.614   5.173  49.379  1.00  0.00     0.172 C 
BRANCH  18  19
HETATM   19  C2  UNL     1      25.932   5.482  48.790  1.00  0.00     0.015 C 
HETATM   20  C1  UNL     1      27.095   4.876  48.926  1.00  0.00     0.007 C 
ENDBRANCH  18  19
ENDBRANCH  17  18
ENDBRANCH  16  17
ENDBRANCH  15  16
ENDBRANCH  14  15
ENDBRANCH   1  14
BRANCH  13  21
HETATM   21  N3  UNL     1      23.919  -1.669  55.454  1.00  0.00    -0.340 N 
HETATM   22  H20 UNL     1      24.304  -2.468  55.947  1.00  0.00     0.167 HD
BRANCH  21  23
HETATM   23  C16 UNL     1      22.639  -1.272  55.014  1.00  0.00     0.034 A 
HETATM   24  C17 UNL     1      21.662  -0.415  55.151  1.00  0.00     0.036 A 
HETATM   25  C18 UNL     1      20.855  -1.072  54.101  1.00  0.00    -0.058 A 
HETATM   26  C19 UNL     1      19.517  -0.820  53.503  1.00  0.00     0.048 C 
HETATM   27  C20 UNL     1      21.858  -1.952  53.959  1.00  0.00     0.036 A 
ENDBRANCH  21  23
ENDBRANCH  13  21
TORSDOF 8
ENDMDL
MODEL 6
REMARK VINA RESULT:      -6.6      3.303      7.322
REMARK  8 active torsions:
REMARK  status: ('A' for Active; 'I' for Inactive)
REMARK    1  A    between atoms: C2_2  and  C3_3 
REMARK    2  A    between atoms: C3_3  and  O1_4 
REMARK    3  A    between atoms: O1_4  and  C4_5 
REMARK    4  A    between atoms: C4_5  and  C5_6 
REMARK    5  A    between atoms: C5_6  and  O2_7 
REMARK    6  A    between atoms: O2_7  and  C6_8 
REMARK    7  A    between atoms: C15_20  and  N3_21 
REMARK    8  A    between atoms: N3_21  and  C16_22 
ROOT
HETATM    1  C6  UNL     1      24.571   2.278  52.515  1.00  0.00     0.285 C 
HETATM    2  C7  UNL     1      23.393   1.477  52.671  1.00  0.00     0.045 C 
HETATM    3  C8  UNL     1      22.151   1.229  52.621  1.00  0.00     0.009 C 
HETATM    4  C9  UNL     1      21.292   2.368  52.126  1.00  0.00     0.193 C 
HETATM    5  N1  UNL     1      20.722   1.782  50.932  1.00  0.00    -0.270 NA
HETATM    6  C10 UNL     1      21.344   0.716  50.405  1.00  0.00     0.126 C 
HETATM    7  C11 UNL     1      21.286   1.414  49.095  1.00  0.00     0.107 C 
HETATM    8  C12 UNL     1      22.427   2.423  49.037  1.00  0.00    -0.021 C 
HETATM    9  C13 UNL     1      23.518   2.664  49.781  1.00  0.00    -0.004 C 
HETATM   10  C14 UNL     1      24.784   3.161  50.417  1.00  0.00     0.198 C 
HETATM   11  O3  UNL     1      24.486   3.480  51.779  1.00  0.00    -0.354 OA
HETATM   12  N2  UNL     1      21.545  -0.169  51.520  1.00  0.00    -0.215 NA
HETATM   13  C15 UNL     1      21.132   0.203  52.712  1.00  0.00     0.138 C 
ENDROOT
BRANCH   1  14
HETATM   14  O2  UNL     1      25.325   2.334  53.642  1.00  0.00    -0.356 OA
BRANCH  14  15
HETATM   15  C5  UNL     1      26.603   1.826  53.554  1.00  0.00     0.197 C 
BRANCH  15  16
HETATM   16  C4  UNL     1      26.709   0.695  54.586  1.00  0.00     0.193 C 
BRANCH  16  17
HETATM   17  O1  UNL     1      28.016   0.656  55.061  1.00  0.00    -0.389 OA
BRANCH  17  18
HETATM   18  C3  UNL     1      28.884   0.713  53.983  1.00  0.00     0.172 C 
BRANCH  18  19
HETATM   19  C2  UNL     1      29.648  -0.546  53.864  1.00  0.00     0.015 C 
HETATM   20  C1  UNL     1      29.333  -1.687  53.284  1.00  0.00     0.007 C 
ENDBRANCH  18  19
ENDBRANCH  17  18
ENDBRANCH  16  17
ENDBRANCH  15  16
ENDBRANCH  14  15
ENDBRANCH   1  14
BRANCH  13  21
HETATM   21  N3  UNL     1      20.218  -0.103  53.703  1.00  0.00    -0.340 N 
HETATM   22  H20 UNL     1      20.563  -0.029  54.655  1.00  0.00     0.167 HD
BRANCH  21  23
HETATM   23  C16 UNL     1      18.994  -0.453  53.095  1.00  0.00     0.034 A 
HETATM   24  C17 UNL     1      18.113  -0.150  52.180  1.00  0.00     0.036 A 
HETATM   25  C18 UNL     1      17.256  -1.302  52.535  1.00  0.00    -0.058 A 
HETATM   26  C19 UNL     1      15.962  -1.833  52.032  1.00  0.00     0.048 C 
HETATM   27  C20 UNL     1      18.161  -1.614  53.475  1.00  0.00     0.036 A 
ENDBRANCH  21  23
ENDBRANCH  13  21
TORSDOF 8
ENDMDL
MODEL 7
REMARK VINA RESULT:      -6.1      1.219      2.178
REMARK  8 active torsions:
REMARK  status: ('A' for Active; 'I' for Inactive)
REMARK    1  A    between atoms: C2_2  and  C3_3 
REMARK    2  A    between atoms: C3_3  and  O1_4 
REMARK    3  A    between atoms: O1_4  and  C4_5 
REMARK    4  A    between atoms: C4_5  and  C5_6 
REMARK    5  A    between atoms: C5_6  and  O2_7 
REMARK    6  A    between atoms: O2_7  and  C6_8 
REMARK    7  A    between atoms: C15_20  and  N3_21 
REMARK    8  A    between atoms: N3_21  and  C16_22 
ROOT
HETATM    1  C6  UNL     1      23.158   0.442  52.377  1.00  0.00     0.285 C 
HETATM    2  C7  UNL     1      24.314   1.166  51.938  1.00  0.00     0.045 C 
HETATM    3  C8  UNL     1      25.295   1.959  52.063  1.00  0.00     0.009 C 
HETATM    4  C9  UNL     1      25.444   2.579  53.432  1.00  0.00     0.193 C 
HETATM    5  N1  UNL     1      26.740   2.067  53.823  1.00  0.00    -0.270 NA
HETATM    6  C10 UNL     1      27.203   0.987  53.175  1.00  0.00     0.126 C 
HETATM    7  C11 UNL     1      27.481   0.390  54.507  1.00  0.00     0.107 C 
HETATM    8  C12 UNL     1      26.181  -0.187  55.055  1.00  0.00    -0.021 C 
HETATM    9  C13 UNL     1      24.963  -0.433  54.546  1.00  0.00    -0.004 C 
HETATM   10  C14 UNL     1      23.536  -0.800  54.258  1.00  0.00     0.198 C 
HETATM   11  O3  UNL     1      22.882   0.369  53.759  1.00  0.00    -0.354 OA
HETATM   12  N2  UNL     1      27.035   1.306  51.783  1.00  0.00    -0.215 NA
HETATM   13  C15 UNL     1      26.508   2.464  51.454  1.00  0.00     0.138 C 
ENDROOT
BRANCH   1  14
HETATM   14  O2  UNL     1      22.079   0.632  51.574  1.00  0.00    -0.356 OA
BRANCH  14  15
HETATM   15  C5  UNL     1      20.866   0.192  52.057  1.00  0.00     0.197 C 
BRANCH  15  16
HETATM   16  C4  UNL     1      20.038   1.440  52.393  1.00  0.00     0.193 C 
BRANCH  16  17
HETATM   17  O1  UNL     1      18.889   1.427  51.609  1.00  0.00    -0.389 OA
BRANCH  17  18
HETATM   18  C3  UNL     1      18.590   0.116  51.276  1.00  0.00     0.172 C 
BRANCH  18  19
HETATM   19  C2  UNL     1      17.487  -0.394  52.116  1.00  0.00     0.015 C 
HETATM   20  C1  UNL     1      17.430  -1.445  52.910  1.00  0.00     0.007 C 
ENDBRANCH  18  19
ENDBRANCH  17  18
ENDBRANCH  16  17
ENDBRANCH  15  16
ENDBRANCH  14  15
ENDBRANCH   1  14
BRANCH  13  21
HETATM   21  N3  UNL     1      26.798   3.668  50.837  1.00  0.00    -0.340 N 
HETATM   22  H20 UNL     1      27.720   4.045  51.024  1.00  0.00     0.167 HD
BRANCH  21  23
HETATM   23  C16 UNL     1      25.678   4.064  50.075  1.00  0.00     0.034 A 
HETATM   24  C17 UNL     1      24.802   3.713  49.172  1.00  0.00     0.036 A 
HETATM   25  C18 UNL     1      24.132   5.030  49.219  1.00  0.00    -0.058 A 
HETATM   26  C19 UNL     1      22.969   5.635  48.518  1.00  0.00     0.048 C 
HETATM   27  C20 UNL     1      25.032   5.391  50.147  1.00  0.00     0.036 A 
ENDBRANCH  21  23
ENDBRANCH  13  21
TORSDOF 8
ENDMDL
MODEL 8
REMARK VINA RESULT:      -6.1      1.710      5.261
REMARK  8 active torsions:
REMARK  status: ('A' for Active; 'I' for Inactive)
REMARK    1  A    between atoms: C2_2  and  C3_3 
REMARK    2  A    between atoms: C3_3  and  O1_4 
REMARK    3  A    between atoms: O1_4  and  C4_5 
REMARK    4  A    between atoms: C4_5  and  C5_6 
REMARK    5  A    between atoms: C5_6  and  O2_7 
REMARK    6  A    between atoms: O2_7  and  C6_8 
REMARK    7  A    between atoms: C15_20  and  N3_21 
REMARK    8  A    between atoms: N3_21  and  C16_22 
ROOT
HETATM    1  C6  UNL     1      21.133   1.880  51.431  1.00  0.00     0.285 C 
HETATM    2  C7  UNL     1      22.515   2.251  51.356  1.00  0.00     0.045 C 
HETATM    3  C8  UNL     1      23.535   2.804  50.848  1.00  0.00     0.009 C 
HETATM    4  C9  UNL     1      23.285   3.532  49.549  1.00  0.00     0.193 C 
HETATM    5  N1  UNL     1      23.633   4.886  49.923  1.00  0.00    -0.270 NA
HETATM    6  C10 UNL     1      23.651   5.184  51.231  1.00  0.00     0.126 C 
HETATM    7  C11 UNL     1      22.813   6.366  50.906  1.00  0.00     0.107 C 
HETATM    8  C12 UNL     1      21.366   5.908  50.774  1.00  0.00    -0.021 C 
HETATM    9  C13 UNL     1      20.698   4.779  51.063  1.00  0.00    -0.004 C 
HETATM   10  C14 UNL     1      19.714   3.665  51.271  1.00  0.00     0.198 C 
HETATM   11  O3  UNL     1      20.208   2.518  50.576  1.00  0.00    -0.354 OA
HETATM   12  N2  UNL     1      24.433   4.134  51.827  1.00  0.00    -0.215 NA
HETATM   13  C15 UNL     1      24.917   3.185  51.057  1.00  0.00     0.138 C 
ENDROOT
BRANCH   1  14
HETATM   14  O2  UNL     1      20.952   0.544  51.596  1.00  0.00    -0.356 OA
BRANCH  14  15
HETATM   15  C5  UNL     1      19.715   0.141  52.050  1.00  0.00     0.197 C 
BRANCH  15  16
HETATM   16  C4  UNL     1      19.893  -0.296  53.510  1.00  0.00     0.193 C 
BRANCH  16  17
HETATM   17  O1  UNL     1      20.947  -1.203  53.570  1.00  0.00    -0.389 OA
BRANCH  17  18
HETATM   18  C3  UNL     1      21.603  -1.044  54.779  1.00  0.00     0.172 C 
BRANCH  18  19
HETATM   19  C2  UNL     1      23.053  -0.862  54.563  1.00  0.00     0.015 C 
HETATM   20  C1  UNL     1      23.726  -0.567  53.468  1.00  0.00     0.007 C 
ENDBRANCH  18  19
ENDBRANCH  17  18
ENDBRANCH  16  17
ENDBRANCH  15  16
ENDBRANCH  14  15
ENDBRANCH   1  14
BRANCH  13  21
HETATM   21  N3  UNL     1      26.101   2.657  50.576  1.00  0.00    -0.340 N 
HETATM   22  H20 UNL     1      26.408   3.016  49.678  1.00  0.00     0.167 HD
BRANCH  21  23
HETATM   23  C16 UNL     1      26.587   1.718  51.510  1.00  0.00     0.034 A 
HETATM   24  C17 UNL     1      26.658   0.457  51.843  1.00  0.00     0.036 A 
HETATM   25  C18 UNL     1      27.456   0.756  53.051  1.00  0.00    -0.058 A 
HETATM   26  C19 UNL     1      28.051  -0.066  54.138  1.00  0.00     0.048 C 
HETATM   27  C20 UNL     1      27.384   2.052  52.710  1.00  0.00     0.036 A 
ENDBRANCH  21  23
ENDBRANCH  13  21
TORSDOF 8
ENDMDL
MODEL 9
REMARK VINA RESULT:      -6.0      3.360      6.698
REMARK  8 active torsions:
REMARK  status: ('A' for Active; 'I' for Inactive)
REMARK    1  A    between atoms: C2_2  and  C3_3 
REMARK    2  A    between atoms: C3_3  and  O1_4 
REMARK    3  A    between atoms: O1_4  and  C4_5 
REMARK    4  A    between atoms: C4_5  and  C5_6 
REMARK    5  A    between atoms: C5_6  and  O2_7 
REMARK    6  A    between atoms: O2_7  and  C6_8 
REMARK    7  A    between atoms: C15_20  and  N3_21 
REMARK    8  A    between atoms: N3_21  and  C16_22 
ROOT
HETATM    1  C6  UNL     1      25.344   3.333  50.779  1.00  0.00     0.285 C 
HETATM    2  C7  UNL     1      25.803   4.527  50.135  1.00  0.00     0.045 C 
HETATM    3  C8  UNL     1      25.721   5.523  49.356  1.00  0.00     0.009 C 
HETATM    4  C9  UNL     1      24.424   5.628  48.590  1.00  0.00     0.193 C 
HETATM    5  N1  UNL     1      23.916   6.890  49.084  1.00  0.00    -0.270 NA
HETATM    6  C10 UNL     1      24.417   7.351  50.240  1.00  0.00     0.126 C 
HETATM    7  C11 UNL     1      23.016   7.551  50.690  1.00  0.00     0.107 C 
HETATM    8  C12 UNL     1      22.470   6.213  51.172  1.00  0.00    -0.021 C 
HETATM    9  C13 UNL     1      23.007   5.013  51.445  1.00  0.00    -0.004 C 
HETATM   10  C14 UNL     1      23.321   3.591  51.810  1.00  0.00     0.198 C 
HETATM   11  O3  UNL     1      23.977   2.993  50.690  1.00  0.00    -0.354 OA
HETATM   12  N2  UNL     1      25.842   7.255  50.076  1.00  0.00    -0.215 NA
HETATM   13  C15 UNL     1      26.323   6.777  48.949  1.00  0.00     0.138 C 
ENDROOT
BRANCH   1  14
HETATM   14  O2  UNL     1      26.214   2.297  50.655  1.00  0.00    -0.356 OA
BRANCH  14  15
HETATM   15  C5  UNL     1      26.860   1.895  51.805  1.00  0.00     0.197 C 
BRANCH  15  16
HETATM   16  C4  UNL     1      26.247   0.550  52.216  1.00  0.00     0.193 C 
BRANCH  16  17
HETATM   17  O1  UNL     1      27.283  -0.333  52.507  1.00  0.00    -0.389 OA
BRANCH  17  18
HETATM   18  C3  UNL     1      27.563  -0.261  53.861  1.00  0.00     0.172 C 
BRANCH  18  19
HETATM   19  C2  UNL     1      29.022  -0.219  54.088  1.00  0.00     0.015 C 
HETATM   20  C1  UNL     1      29.981  -1.008  53.646  1.00  0.00     0.007 C 
ENDBRANCH  18  19
ENDBRANCH  17  18
ENDBRANCH  16  17
ENDBRANCH  15  16
ENDBRANCH  14  15
ENDBRANCH   1  14
BRANCH  13  21
HETATM   21  N3  UNL     1      27.055   7.127  47.830  1.00  0.00    -0.340 N 
HETATM   22  H20 UNL     1      26.517   7.490  47.050  1.00  0.00     0.167 HD
BRANCH  21  23
HETATM   23  C16 UNL     1      28.420   6.876  48.087  1.00  0.00     0.034 A 
HETATM   24  C17 UNL     1      29.588   7.398  48.347  1.00  0.00     0.036 A 
HETATM   25  C18 UNL     1      30.238   6.071  48.407  1.00  0.00    -0.058 A 
HETATM   26  C19 UNL     1      31.625   5.600  48.657  1.00  0.00     0.048 C 
HETATM   27  C20 UNL     1      29.038   5.534  48.141  1.00  0.00     0.036 A 
ENDBRANCH  21  23
ENDBRANCH  13  21
TORSDOF 8
ENDMDL
