MODEL 1
REMARK VINA RESULT:      -8.5      0.000      0.000
REMARK  4 active torsions:
REMARK  status: ('A' for Active; 'I' for Inactive)
REMARK    1  A    between atoms: C10_10  and  O1_11 
REMARK    2  A    between atoms: C10_10  and  C12_15 
REMARK    3  A    between atoms: O1_11  and  C11_12 
REMARK       I    between atoms: C11_12  and  N1_13 
REMARK    4  A    between atoms: C17_20  and  C18_21 
ROOT
HETATM    1  C18 UNL     1      21.585   0.971  49.415  1.00  0.00     0.133 C 
HETATM    2  C19 UNL     1      22.076   1.648  48.240  1.00  0.00     0.059 C 
HETATM    3  N2  UNL     1      22.471   2.204  47.314  1.00  0.00    -0.197 NA
ENDROOT
BRANCH   1   4
HETATM    4  C17 UNL     1      21.593   1.947  50.573  1.00  0.00     0.035 C 
HETATM    5  C12 UNL     1      22.355   1.336  51.692  1.00  0.00    -0.019 C 
HETATM    6  C13 UNL     1      21.687   0.640  52.786  1.00  0.00     0.006 C 
HETATM    7  C14 UNL     1      20.538   1.152  53.266  1.00  0.00    -0.026 C 
HETATM    8  C15 UNL     1      20.135   2.396  52.560  1.00  0.00     0.028 C 
HETATM    9  C16 UNL     1      20.221   2.272  51.056  1.00  0.00     0.014 C 
BRANCH   5  10
HETATM   10  C10 UNL     1      23.696   1.421  51.702  1.00  0.00     0.090 C 
HETATM   11  C2  UNL     1      24.529   0.616  52.538  1.00  0.00    -0.043 A 
HETATM   12  C1  UNL     1      25.872   0.656  52.592  1.00  0.00     0.055 A 
HETATM   13  C3  UNL     1      24.919  -0.402  53.548  1.00  0.00     0.055 A 
HETATM   14  C4  UNL     1      26.405  -0.457  53.698  1.00  0.00     0.003 A 
HETATM   15  C5  UNL     1      27.177  -1.309  52.916  1.00  0.00    -0.012 A 
HETATM   16  C9  UNL     1      27.073   0.341  54.622  1.00  0.00    -0.012 A 
HETATM   17  C6  UNL     1      28.546  -1.354  53.061  1.00  0.00    -0.003 A 
HETATM   18  C7  UNL     1      29.195  -0.566  53.972  1.00  0.00    -0.001 A 
HETATM   19  C8  UNL     1      28.456   0.297  54.769  1.00  0.00    -0.003 A 
BRANCH  10  20
HETATM   20  O1  UNL     1      24.374   2.308  50.893  1.00  0.00    -0.261 OA
BRANCH  20  21
HETATM   21  C11 UNL     1      24.498   3.623  51.319  1.00  0.00     0.363 C 
HETATM   22  N1  UNL     1      25.647   4.311  50.826  1.00  0.00    -0.345 N 
HETATM   23  H10 UNL     1      26.477   4.661  50.304  1.00  0.00     0.161 HD
HETATM   24  H11 UNL     1      26.267   5.100  51.025  1.00  0.00     0.161 HD
HETATM   25  O2  UNL     1      23.952   4.516  52.024  1.00  0.00    -0.238 OA
ENDBRANCH  20  21
ENDBRANCH  10  20
ENDBRANCH   5  10
ENDBRANCH   1   4
TORSDOF 4
ENDMDL
MODEL 2
REMARK VINA RESULT:      -8.4      2.027      2.905
REMARK  4 active torsions:
REMARK  status: ('A' for Active; 'I' for Inactive)
REMARK    1  A    between atoms: C10_10  and  O1_11 
REMARK    2  A    between atoms: C10_10  and  C12_15 
REMARK    3  A    between atoms: O1_11  and  C11_12 
REMARK       I    between atoms: C11_12  and  N1_13 
REMARK    4  A    between atoms: C17_20  and  C18_21 
ROOT
HETATM    1  C18 UNL     1      21.385   0.456  54.032  1.00  0.00     0.133 C 
HETATM    2  C19 UNL     1      21.589  -0.843  54.627  1.00  0.00     0.059 C 
HETATM    3  N2  UNL     1      21.757  -1.884  55.082  1.00  0.00    -0.197 NA
ENDROOT
BRANCH   1   4
HETATM    4  C17 UNL     1      21.714   0.367  52.557  1.00  0.00     0.035 C 
HETATM    5  C12 UNL     1      22.304   1.663  52.134  1.00  0.00    -0.019 C 
HETATM    6  C13 UNL     1      21.501   2.702  51.498  1.00  0.00     0.006 C 
HETATM    7  C14 UNL     1      20.565   2.334  50.604  1.00  0.00    -0.026 C 
HETATM    8  C15 UNL     1      20.515   0.861  50.413  1.00  0.00     0.028 C 
HETATM    9  C16 UNL     1      20.510   0.099  51.719  1.00  0.00     0.014 C 
BRANCH   5  10
HETATM   10  C10 UNL     1      23.612   1.891  52.339  1.00  0.00     0.090 C 
HETATM   11  C2  UNL     1      24.509   0.910  52.863  1.00  0.00    -0.043 A 
HETATM   12  C1  UNL     1      25.824   1.081  53.089  1.00  0.00     0.055 A 
HETATM   13  C3  UNL     1      24.992  -0.387  53.403  1.00  0.00     0.055 A 
HETATM   14  C4  UNL     1      26.458  -0.326  53.694  1.00  0.00     0.003 A 
HETATM   15  C5  UNL     1      27.398  -0.670  52.730  1.00  0.00    -0.012 A 
HETATM   16  C9  UNL     1      26.936   0.075  54.938  1.00  0.00    -0.012 A 
HETATM   17  C6  UNL     1      28.746  -0.612  53.006  1.00  0.00    -0.003 A 
HETATM   18  C7  UNL     1      29.208  -0.216  54.231  1.00  0.00    -0.001 A 
HETATM   19  C8  UNL     1      28.298   0.135  55.218  1.00  0.00    -0.003 A 
BRANCH  10  20
HETATM   20  O1  UNL     1      24.191   3.111  52.054  1.00  0.00    -0.261 OA
BRANCH  20  21
HETATM   21  C11 UNL     1      24.758   3.292  50.801  1.00  0.00     0.363 C 
HETATM   22  N1  UNL     1      26.079   3.832  50.810  1.00  0.00    -0.345 N 
HETATM   23  H10 UNL     1      27.050   4.145  51.023  1.00  0.00     0.161 HD
HETATM   24  H11 UNL     1      26.749   4.345  50.231  1.00  0.00     0.161 HD
HETATM   25  O2  UNL     1      24.549   3.157  49.564  1.00  0.00    -0.238 OA
ENDBRANCH  20  21
ENDBRANCH  10  20
ENDBRANCH   5  10
ENDBRANCH   1   4
TORSDOF 4
ENDMDL
MODEL 3
REMARK VINA RESULT:      -8.3      1.486      2.114
REMARK  4 active torsions:
REMARK  status: ('A' for Active; 'I' for Inactive)
REMARK    1  A    between atoms: C10_10  and  O1_11 
REMARK    2  A    between atoms: C10_10  and  C12_15 
REMARK    3  A    between atoms: O1_11  and  C11_12 
REMARK       I    between atoms: C11_12  and  N1_13 
REMARK    4  A    between atoms: C17_20  and  C18_21 
ROOT
HETATM    1  C18 UNL     1      22.144   3.843  52.371  1.00  0.00     0.133 C 
HETATM    2  C19 UNL     1      21.169   4.408  51.471  1.00  0.00     0.059 C 
HETATM    3  N2  UNL     1      20.386   4.840  50.748  1.00  0.00    -0.197 NA
ENDROOT
BRANCH   1   4
HETATM    4  C17 UNL     1      22.122   2.337  52.222  1.00  0.00     0.035 C 
HETATM    5  C12 UNL     1      22.923   1.975  51.024  1.00  0.00    -0.019 C 
HETATM    6  C13 UNL     1      22.298   1.727  49.729  1.00  0.00     0.006 C 
HETATM    7  C14 UNL     1      21.133   1.054  49.697  1.00  0.00    -0.026 C 
HETATM    8  C15 UNL     1      20.667   0.665  51.053  1.00  0.00     0.028 C 
HETATM    9  C16 UNL     1      20.742   1.801  52.048  1.00  0.00     0.014 C 
BRANCH   5  10
HETATM   10  C10 UNL     1      24.258   1.874  51.129  1.00  0.00     0.090 C 
HETATM   11  C2  UNL     1      24.912   1.057  52.101  1.00  0.00    -0.043 A 
HETATM   12  C1  UNL     1      26.241   0.916  52.253  1.00  0.00     0.055 A 
HETATM   13  C3  UNL     1      25.086   0.110  53.233  1.00  0.00     0.055 A 
HETATM   14  C4  UNL     1      26.537  -0.134  53.500  1.00  0.00     0.003 A 
HETATM   15  C5  UNL     1      27.222  -1.165  52.868  1.00  0.00    -0.012 A 
HETATM   16  C9  UNL     1      27.256   0.659  54.390  1.00  0.00    -0.012 A 
HETATM   17  C6  UNL     1      28.559  -1.383  53.120  1.00  0.00    -0.003 A 
HETATM   18  C7  UNL     1      29.258  -0.599  53.996  1.00  0.00    -0.001 A 
HETATM   19  C8  UNL     1      28.606   0.440  54.646  1.00  0.00    -0.003 A 
BRANCH  10  20
HETATM   20  O1  UNL     1      25.107   2.566  50.290  1.00  0.00    -0.261 OA
BRANCH  20  21
HETATM   21  C11 UNL     1      25.262   3.930  50.491  1.00  0.00     0.363 C 
HETATM   22  N1  UNL     1      26.558   4.442  50.185  1.00  0.00    -0.345 N 
HETATM   23  H10 UNL     1      27.519   4.635  49.833  1.00  0.00     0.161 HD
HETATM   24  H11 UNL     1      27.192   5.219  50.388  1.00  0.00     0.161 HD
HETATM   25  O2  UNL     1      24.661   4.975  50.867  1.00  0.00    -0.238 OA
ENDBRANCH  20  21
ENDBRANCH  10  20
ENDBRANCH   5  10
ENDBRANCH   1   4
TORSDOF 4
ENDMDL
MODEL 4
REMARK VINA RESULT:      -8.3      2.626      3.632
REMARK  4 active torsions:
REMARK  status: ('A' for Active; 'I' for Inactive)
REMARK    1  A    between atoms: C10_10  and  O1_11 
REMARK    2  A    between atoms: C10_10  and  C12_15 
REMARK    3  A    between atoms: O1_11  and  C11_12 
REMARK       I    between atoms: C11_12  and  N1_13 
REMARK    4  A    between atoms: C17_20  and  C18_21 
ROOT
HETATM    1  C18 UNL     1      22.654   3.382  51.615  1.00  0.00     0.133 C 
HETATM    2  C19 UNL     1      23.286   4.311  52.519  1.00  0.00     0.059 C 
HETATM    3  N2  UNL     1      23.780   5.043  53.255  1.00  0.00    -0.197 NA
ENDROOT
BRANCH   1   4
HETATM    4  C17 UNL     1      21.668   2.541  52.399  1.00  0.00     0.035 C 
HETATM    5  C12 UNL     1      22.056   1.114  52.253  1.00  0.00    -0.019 C 
HETATM    6  C13 UNL     1      21.423   0.244  51.268  1.00  0.00     0.006 C 
HETATM    7  C14 UNL     1      20.098   0.362  51.062  1.00  0.00    -0.026 C 
HETATM    8  C15 UNL     1      19.485   1.410  51.919  1.00  0.00     0.028 C 
HETATM    9  C16 UNL     1      20.268   2.704  51.917  1.00  0.00     0.014 C 
BRANCH   5  10
HETATM   10  C10 UNL     1      23.013   0.605  53.046  1.00  0.00     0.090 C 
HETATM   11  C2  UNL     1      24.404   0.642  52.723  1.00  0.00    -0.043 A 
HETATM   12  C1  UNL     1      25.405   0.151  53.475  1.00  0.00     0.055 A 
HETATM   13  C3  UNL     1      25.650   0.925  51.964  1.00  0.00     0.055 A 
HETATM   14  C4  UNL     1      26.847   0.424  52.707  1.00  0.00     0.003 A 
HETATM   15  C5  UNL     1      27.522   1.233  53.614  1.00  0.00    -0.012 A 
HETATM   16  C9  UNL     1      27.332  -0.867  52.519  1.00  0.00    -0.012 A 
HETATM   17  C6  UNL     1      28.624   0.764  54.294  1.00  0.00    -0.003 A 
HETATM   18  C7  UNL     1      29.095  -0.506  54.103  1.00  0.00    -0.001 A 
HETATM   19  C8  UNL     1      28.446  -1.342  53.205  1.00  0.00    -0.003 A 
BRANCH  10  20
HETATM   20  O1  UNL     1      22.715  -0.002  54.249  1.00  0.00    -0.261 OA
BRANCH  20  21
HETATM   21  C11 UNL     1      21.465  -0.587  54.397  1.00  0.00     0.363 C 
HETATM   22  N1  UNL     1      20.505   0.209  55.090  1.00  0.00    -0.345 N 
HETATM   23  H10 UNL     1      19.933   0.960  55.532  1.00  0.00     0.161 HD
HETATM   24  H11 UNL     1      19.639   0.147  55.631  1.00  0.00     0.161 HD
HETATM   25  O2  UNL     1      20.794  -1.625  54.141  1.00  0.00    -0.238 OA
ENDBRANCH  20  21
ENDBRANCH  10  20
ENDBRANCH   5  10
ENDBRANCH   1   4
TORSDOF 4
ENDMDL
MODEL 5
REMARK VINA RESULT:      -8.1      1.854      2.439
REMARK  4 active torsions:
REMARK  status: ('A' for Active; 'I' for Inactive)
REMARK    1  A    between atoms: C10_10  and  O1_11 
REMARK    2  A    between atoms: C10_10  and  C12_15 
REMARK    3  A    between atoms: O1_11  and  C11_12 
REMARK       I    between atoms: C11_12  and  N1_13 
REMARK    4  A    between atoms: C17_20  and  C18_21 
ROOT
HETATM    1  C18 UNL     1      22.078   1.058  52.147  1.00  0.00     0.133 C 
HETATM    2  C19 UNL     1      20.795   0.658  51.623  1.00  0.00     0.059 C 
HETATM    3  N2  UNL     1      19.774   0.354  51.191  1.00  0.00    -0.197 NA
ENDROOT
BRANCH   1   4
HETATM    4  C17 UNL     1      22.593   2.221  51.326  1.00  0.00     0.035 C 
HETATM    5  C12 UNL     1      23.864   2.692  51.933  1.00  0.00    -0.019 C 
HETATM    6  C13 UNL     1      23.903   3.824  52.854  1.00  0.00     0.006 C 
HETATM    7  C14 UNL     1      23.119   4.887  52.597  1.00  0.00    -0.026 C 
HETATM    8  C15 UNL     1      22.314   4.711  51.361  1.00  0.00     0.028 C 
HETATM    9  C16 UNL     1      21.634   3.362  51.290  1.00  0.00     0.014 C 
BRANCH   5  10
HETATM   10  C10 UNL     1      25.012   2.064  51.632  1.00  0.00     0.090 C 
HETATM   11  C2  UNL     1      25.660   1.143  52.512  1.00  0.00    -0.043 A 
HETATM   12  C1  UNL     1      26.806   0.485  52.265  1.00  0.00     0.055 A 
HETATM   13  C3  UNL     1      25.913   0.315  53.719  1.00  0.00     0.055 A 
HETATM   14  C4  UNL     1      27.172  -0.476  53.565  1.00  0.00     0.003 A 
HETATM   15  C5  UNL     1      27.159  -1.750  53.009  1.00  0.00    -0.012 A 
HETATM   16  C9  UNL     1      28.403   0.031  53.971  1.00  0.00    -0.012 A 
HETATM   17  C6  UNL     1      28.324  -2.472  52.870  1.00  0.00    -0.003 A 
HETATM   18  C7  UNL     1      29.530  -1.966  53.272  1.00  0.00    -0.001 A 
HETATM   19  C8  UNL     1      29.581  -0.697  53.832  1.00  0.00    -0.003 A 
BRANCH  10  20
HETATM   20  O1  UNL     1      25.660   2.268  50.431  1.00  0.00    -0.261 OA
BRANCH  20  21
HETATM   21  C11 UNL     1      25.752   3.565  49.947  1.00  0.00     0.363 C 
HETATM   22  N1  UNL     1      27.004   4.209  50.183  1.00  0.00    -0.345 N 
HETATM   23  H10 UNL     1      27.994   4.471  50.371  1.00  0.00     0.161 HD
HETATM   24  H11 UNL     1      27.438   5.132  50.263  1.00  0.00     0.161 HD
HETATM   25  O2  UNL     1      25.117   4.467  49.334  1.00  0.00    -0.238 OA
ENDBRANCH  20  21
ENDBRANCH  10  20
ENDBRANCH   5  10
ENDBRANCH   1   4
TORSDOF 4
ENDMDL
MODEL 6
REMARK VINA RESULT:      -7.9      2.704      4.912
REMARK  4 active torsions:
REMARK  status: ('A' for Active; 'I' for Inactive)
REMARK    1  A    between atoms: C10_10  and  O1_11 
REMARK    2  A    between atoms: C10_10  and  C12_15 
REMARK    3  A    between atoms: O1_11  and  C11_12 
REMARK       I    between atoms: C11_12  and  N1_13 
REMARK    4  A    between atoms: C17_20  and  C18_21 
ROOT
HETATM    1  C18 UNL     1      20.806   2.057  52.021  1.00  0.00     0.133 C 
HETATM    2  C19 UNL     1      19.938   0.979  51.617  1.00  0.00     0.059 C 
HETATM    3  N2  UNL     1      19.252   0.108  51.311  1.00  0.00    -0.197 NA
ENDROOT
BRANCH   1   4
HETATM    4  C17 UNL     1      21.568   1.625  53.257  1.00  0.00     0.035 C 
HETATM    5  C12 UNL     1      22.924   1.186  52.838  1.00  0.00    -0.019 C 
HETATM    6  C13 UNL     1      23.242  -0.221  52.620  1.00  0.00     0.006 C 
HETATM    7  C14 UNL     1      22.727  -1.134  53.465  1.00  0.00    -0.026 C 
HETATM    8  C15 UNL     1      21.884  -0.515  54.520  1.00  0.00     0.028 C 
HETATM    9  C16 UNL     1      20.905   0.498  53.971  1.00  0.00     0.014 C 
BRANCH   5  10
HETATM   10  C10 UNL     1      23.887   2.104  52.651  1.00  0.00     0.090 C 
HETATM   11  C2  UNL     1      24.214   2.652  51.373  1.00  0.00    -0.043 A 
HETATM   12  C1  UNL     1      25.165   3.571  51.126  1.00  0.00     0.055 A 
HETATM   13  C3  UNL     1      24.164   2.894  49.908  1.00  0.00     0.055 A 
HETATM   14  C4  UNL     1      25.183   3.911  49.504  1.00  0.00     0.003 A 
HETATM   15  C5  UNL     1      24.876   5.266  49.479  1.00  0.00    -0.012 A 
HETATM   16  C9  UNL     1      26.473   3.541  49.137  1.00  0.00    -0.012 A 
HETATM   17  C6  UNL     1      25.821   6.197  49.105  1.00  0.00    -0.003 A 
HETATM   18  C7  UNL     1      27.087   5.826  48.747  1.00  0.00    -0.001 A 
HETATM   19  C8  UNL     1      27.429   4.480  48.760  1.00  0.00    -0.003 A 
BRANCH  10  20
HETATM   20  O1  UNL     1      24.642   2.588  53.698  1.00  0.00    -0.261 OA
BRANCH  20  21
HETATM   21  C11 UNL     1      25.781   1.886  54.068  1.00  0.00     0.363 C 
HETATM   22  N1  UNL     1      26.995   2.633  54.011  1.00  0.00    -0.345 N 
HETATM   23  H10 UNL     1      27.747   3.353  53.988  1.00  0.00     0.161 HD
HETATM   24  H11 UNL     1      28.009   2.526  53.928  1.00  0.00     0.161 HD
HETATM   25  O2  UNL     1      26.195   0.761  54.463  1.00  0.00    -0.238 OA
ENDBRANCH  20  21
ENDBRANCH  10  20
ENDBRANCH   5  10
ENDBRANCH   1   4
TORSDOF 4
ENDMDL
MODEL 7
REMARK VINA RESULT:      -7.8      1.662      2.138
REMARK  4 active torsions:
REMARK  status: ('A' for Active; 'I' for Inactive)
REMARK    1  A    between atoms: C10_10  and  O1_11 
REMARK    2  A    between atoms: C10_10  and  C12_15 
REMARK    3  A    between atoms: O1_11  and  C11_12 
REMARK       I    between atoms: C11_12  and  N1_13 
REMARK    4  A    between atoms: C17_20  and  C18_21 
ROOT
HETATM    1  C18 UNL     1      21.177   1.417  51.242  1.00  0.00     0.133 C 
HETATM    2  C19 UNL     1      19.884   0.782  51.160  1.00  0.00     0.059 C 
HETATM    3  N2  UNL     1      18.855   0.272  51.116  1.00  0.00    -0.197 NA
ENDROOT
BRANCH   1   4
HETATM    4  C17 UNL     1      21.674   1.318  52.668  1.00  0.00     0.035 C 
HETATM    5  C12 UNL     1      22.694   0.240  52.731  1.00  0.00    -0.019 C 
HETATM    6  C13 UNL     1      22.356  -1.113  53.163  1.00  0.00     0.006 C 
HETATM    7  C14 UNL     1      21.494  -1.264  54.185  1.00  0.00    -0.026 C 
HETATM    8  C15 UNL     1      21.016   0.038  54.719  1.00  0.00     0.028 C 
HETATM    9  C16 UNL     1      20.584   0.996  53.632  1.00  0.00     0.014 C 
BRANCH   5  10
HETATM   10  C10 UNL     1      23.963   0.510  52.383  1.00  0.00     0.090 C 
HETATM   11  C2  UNL     1      25.094   0.113  53.161  1.00  0.00    -0.043 A 
HETATM   12  C1  UNL     1      26.383   0.354  52.863  1.00  0.00     0.055 A 
HETATM   13  C3  UNL     1      25.879  -0.495  54.266  1.00  0.00     0.055 A 
HETATM   14  C4  UNL     1      27.344  -0.295  54.046  1.00  0.00     0.003 A 
HETATM   15  C5  UNL     1      28.100  -1.225  53.342  1.00  0.00    -0.012 A 
HETATM   16  C9  UNL     1      28.007   0.825  54.537  1.00  0.00    -0.012 A 
HETATM   17  C6  UNL     1      29.450  -1.034  53.144  1.00  0.00    -0.003 A 
HETATM   18  C7  UNL     1      30.094   0.070  53.630  1.00  0.00    -0.001 A 
HETATM   19  C8  UNL     1      29.371   1.020  54.338  1.00  0.00    -0.003 A 
BRANCH  10  20
HETATM   20  O1  UNL     1      24.268   1.202  51.230  1.00  0.00    -0.261 OA
BRANCH  20  21
HETATM   21  C11 UNL     1      24.353   2.586  51.297  1.00  0.00     0.363 C 
HETATM   22  N1  UNL     1      24.329   3.254  50.037  1.00  0.00    -0.345 N 
HETATM   23  H10 UNL     1      24.211   3.556  49.047  1.00  0.00     0.161 HD
HETATM   24  H11 UNL     1      24.600   4.126  49.576  1.00  0.00     0.161 HD
HETATM   25  O2  UNL     1      24.452   3.558  52.096  1.00  0.00    -0.238 OA
ENDBRANCH  20  21
ENDBRANCH  10  20
ENDBRANCH   5  10
ENDBRANCH   1   4
TORSDOF 4
ENDMDL
MODEL 8
REMARK VINA RESULT:      -7.7      2.525      3.260
REMARK  4 active torsions:
REMARK  status: ('A' for Active; 'I' for Inactive)
REMARK    1  A    between atoms: C10_10  and  O1_11 
REMARK    2  A    between atoms: C10_10  and  C12_15 
REMARK    3  A    between atoms: O1_11  and  C11_12 
REMARK       I    between atoms: C11_12  and  N1_13 
REMARK    4  A    between atoms: C17_20  and  C18_21 
ROOT
HETATM    1  C18 UNL     1      21.566   0.790  49.824  1.00  0.00     0.133 C 
HETATM    2  C19 UNL     1      20.139   1.000  49.814  1.00  0.00     0.059 C 
HETATM    3  N2  UNL     1      19.005   1.186  49.812  1.00  0.00    -0.197 NA
ENDROOT
BRANCH   1   4
HETATM    4  C17 UNL     1      22.238   2.064  50.290  1.00  0.00     0.035 C 
HETATM    5  C12 UNL     1      22.039   2.185  51.757  1.00  0.00    -0.019 C 
HETATM    6  C13 UNL     1      20.968   3.000  52.322  1.00  0.00     0.006 C 
HETATM    7  C14 UNL     1      20.685   4.181  51.742  1.00  0.00    -0.026 C 
HETATM    8  C15 UNL     1      21.557   4.459  50.572  1.00  0.00     0.028 C 
HETATM    9  C16 UNL     1      21.676   3.279  49.634  1.00  0.00     0.014 C 
BRANCH   5  10
HETATM   10  C10 UNL     1      22.862   1.530  52.592  1.00  0.00     0.090 C 
HETATM   11  C2  UNL     1      24.264   1.382  52.359  1.00  0.00    -0.043 A 
HETATM   12  C1  UNL     1      25.135   0.739  53.157  1.00  0.00     0.055 A 
HETATM   13  C3  UNL     1      25.585   1.508  51.691  1.00  0.00     0.055 A 
HETATM   14  C4  UNL     1      26.650   0.828  52.490  1.00  0.00     0.003 A 
HETATM   15  C5  UNL     1      27.366   1.514  53.465  1.00  0.00    -0.012 A 
HETATM   16  C9  UNL     1      26.966  -0.512  52.291  1.00  0.00    -0.012 A 
HETATM   17  C6  UNL     1      28.346   0.881  54.198  1.00  0.00    -0.003 A 
HETATM   18  C7  UNL     1      28.650  -0.437  53.995  1.00  0.00    -0.001 A 
HETATM   19  C8  UNL     1      27.955  -1.153  53.030  1.00  0.00    -0.003 A 
BRANCH  10  20
HETATM   20  O1  UNL     1      22.403   0.942  53.752  1.00  0.00    -0.261 OA
BRANCH  20  21
HETATM   21  C11 UNL     1      21.744  -0.275  53.656  1.00  0.00     0.363 C 
HETATM   22  N1  UNL     1      20.418  -0.286  54.182  1.00  0.00    -0.345 N 
HETATM   23  H10 UNL     1      19.460  -0.075  54.531  1.00  0.00     0.161 HD
HETATM   24  H11 UNL     1      19.698  -0.911  54.555  1.00  0.00     0.161 HD
HETATM   25  O2  UNL     1      21.866  -1.466  53.255  1.00  0.00    -0.238 OA
ENDBRANCH  20  21
ENDBRANCH  10  20
ENDBRANCH   5  10
ENDBRANCH   1   4
TORSDOF 4
ENDMDL
MODEL 9
REMARK VINA RESULT:      -7.7      2.100      6.404
REMARK  4 active torsions:
REMARK  status: ('A' for Active; 'I' for Inactive)
REMARK    1  A    between atoms: C10_10  and  O1_11 
REMARK    2  A    between atoms: C10_10  and  C12_15 
REMARK    3  A    between atoms: O1_11  and  C11_12 
REMARK       I    between atoms: C11_12  and  N1_13 
REMARK    4  A    between atoms: C17_20  and  C18_21 
ROOT
HETATM    1  C18 UNL     1      26.944   2.326  51.940  1.00  0.00     0.133 C 
HETATM    2  C19 UNL     1      27.808   2.378  53.094  1.00  0.00     0.059 C 
HETATM    3  N2  UNL     1      28.491   2.400  54.018  1.00  0.00    -0.197 NA
ENDROOT
BRANCH   1   4
HETATM    4  C17 UNL     1      26.198   1.008  51.956  1.00  0.00     0.035 C 
HETATM    5  C12 UNL     1      25.193   1.056  53.049  1.00  0.00    -0.019 C 
HETATM    6  C13 UNL     1      25.459   0.479  54.363  1.00  0.00     0.006 C 
HETATM    7  C14 UNL     1      26.124  -0.690  54.428  1.00  0.00    -0.026 C 
HETATM    8  C15 UNL     1      26.486  -1.211  53.084  1.00  0.00     0.028 C 
HETATM    9  C16 UNL     1      27.099  -0.155  52.191  1.00  0.00     0.014 C 
BRANCH   5  10
HETATM   10  C10 UNL     1      24.006   1.644  52.830  1.00  0.00     0.090 C 
HETATM   11  C2  UNL     1      22.902   0.983  52.209  1.00  0.00    -0.043 A 
HETATM   12  C1  UNL     1      21.693   1.520  51.965  1.00  0.00     0.055 A 
HETATM   13  C3  UNL     1      22.112  -0.093  51.558  1.00  0.00     0.055 A 
HETATM   14  C4  UNL     1      20.732   0.383  51.236  1.00  0.00     0.003 A 
HETATM   15  C5  UNL     1      19.691   0.243  52.147  1.00  0.00    -0.012 A 
HETATM   16  C9  UNL     1      20.435   0.984  50.016  1.00  0.00    -0.012 A 
HETATM   17  C6  UNL     1      18.422   0.685  51.843  1.00  0.00    -0.003 A 
HETATM   18  C7  UNL     1      18.139   1.274  50.642  1.00  0.00    -0.001 A 
HETATM   19  C8  UNL     1      19.154   1.431  49.708  1.00  0.00    -0.003 A 
BRANCH  10  20
HETATM   20  O1  UNL     1      23.765   2.953  53.195  1.00  0.00    -0.261 OA
BRANCH  20  21
HETATM   21  C11 UNL     1      23.886   3.938  52.225  1.00  0.00     0.363 C 
HETATM   22  N1  UNL     1      23.791   5.277  52.710  1.00  0.00    -0.345 N 
HETATM   23  H10 UNL     1      23.782   6.162  53.258  1.00  0.00     0.161 HD
HETATM   24  H11 UNL     1      23.570   6.232  52.417  1.00  0.00     0.161 HD
HETATM   25  O2  UNL     1      24.059   4.129  50.990  1.00  0.00    -0.238 OA
ENDBRANCH  20  21
ENDBRANCH  10  20
ENDBRANCH   5  10
ENDBRANCH   1   4
TORSDOF 4
ENDMDL
