MODEL 1
REMARK VINA RESULT:      -7.7      0.000      0.000
REMARK  6 active torsions:
REMARK  status: ('A' for Active; 'I' for Inactive)
REMARK    1  A    between atoms: C4_5  and  N2_6 
REMARK    2  A    between atoms: N2_6  and  C5_7 
REMARK    3  A    between atoms: C5_7  and  C6_8 
REMARK    4  A    between atoms: C8_11  and  C9_12 
REMARK    5  A    between atoms: C10_13  and  N3_14 
REMARK    6  A    between atoms: C11_15  and  N4_16 
ROOT
HETATM    1  N1  UNL     1      27.617  -2.841  52.734  1.00  0.00    -0.191 NA
HETATM    2  C1  UNL     1      27.783  -1.706  52.888  1.00  0.00     0.102 C 
HETATM    3  C2  UNL     1      27.974  -0.299  53.101  1.00  0.00     0.085 A 
HETATM    4  C3  UNL     1      27.146   0.580  52.458  1.00  0.00     0.054 A 
HETATM    5  C4  UNL     1      27.249   1.971  52.598  1.00  0.00     0.029 A 
HETATM    6  C14 UNL     1      28.268   2.342  53.447  1.00  0.00     0.032 A 
HETATM    7  C15 UNL     1      29.119   1.503  54.110  1.00  0.00     0.046 A 
HETATM    8  C16 UNL     1      28.972   0.149  53.936  1.00  0.00     0.137 A 
HETATM    9  F1  UNL     1      29.742  -0.788  54.528  1.00  0.00    -0.204 F 
ENDROOT
BRANCH   5  10
HETATM   10  N2  UNL     1      26.395   2.872  51.928  1.00  0.00    -0.386 N 
HETATM   11  H2  UNL     1      25.821   3.490  52.580  1.00  0.00     0.160 HD
BRANCH  10  12
HETATM   12  C5  UNL     1      26.218   3.046  50.523  1.00  0.00     0.156 C 
BRANCH  12  13
HETATM   13  C6  UNL     1      24.754   3.064  50.174  1.00  0.00    -0.038 C 
HETATM   14  C7  UNL     1      23.985   3.597  49.208  1.00  0.00     0.140 C 
HETATM   15  O1  UNL     1      22.648   3.232  49.460  1.00  0.00    -0.353 OA
HETATM   16  C8  UNL     1      22.744   1.958  50.117  1.00  0.00     0.155 C 
HETATM   17  C13 UNL     1      23.842   2.314  51.098  1.00  0.00     0.074 C 
BRANCH  16  18
HETATM   18  C9  UNL     1      21.496   1.521  50.733  1.00  0.00     0.016 C 
HETATM   19  C10 UNL     1      21.295   0.371  51.330  1.00  0.00     0.053 C 
BRANCH  19  20
HETATM   20  N3  UNL     1      20.000   0.132  51.871  1.00  0.00    -0.277 NA
HETATM   21  C11 UNL     1      19.955  -0.254  53.113  1.00  0.00     0.334 C 
BRANCH  21  22
HETATM   22  N4  UNL     1      21.145  -0.420  53.870  1.00  0.00    -0.248 NA
HETATM   23  C12 UNL     1      21.301  -1.568  54.483  1.00  0.00     0.201 C 
HETATM   24 CL1  UNL     1      22.867  -1.323  55.269  1.00  0.00    -0.076 Cl
ENDBRANCH  21  22
ENDBRANCH  19  20
ENDBRANCH  16  18
ENDBRANCH  12  13
ENDBRANCH  10  12
ENDBRANCH   5  10
TORSDOF 6
ENDMDL
MODEL 2
REMARK VINA RESULT:      -7.0      3.425      6.486
REMARK  6 active torsions:
REMARK  status: ('A' for Active; 'I' for Inactive)
REMARK    1  A    between atoms: C4_5  and  N2_6 
REMARK    2  A    between atoms: N2_6  and  C5_7 
REMARK    3  A    between atoms: C5_7  and  C6_8 
REMARK    4  A    between atoms: C8_11  and  C9_12 
REMARK    5  A    between atoms: C10_13  and  N3_14 
REMARK    6  A    between atoms: C11_15  and  N4_16 
ROOT
HETATM    1  N1  UNL     1      21.357   1.010  50.629  1.00  0.00    -0.191 NA
HETATM    2  C1  UNL     1      21.698   0.506  51.613  1.00  0.00     0.102 C 
HETATM    3  C2  UNL     1      22.118  -0.097  52.846  1.00  0.00     0.085 A 
HETATM    4  C3  UNL     1      23.458  -0.207  53.098  1.00  0.00     0.054 A 
HETATM    5  C4  UNL     1      23.972  -0.779  54.271  1.00  0.00     0.029 A 
HETATM    6  C14 UNL     1      22.981  -1.211  55.125  1.00  0.00     0.032 A 
HETATM    7  C15 UNL     1      21.634  -1.123  54.917  1.00  0.00     0.046 A 
HETATM    8  C16 UNL     1      21.187  -0.553  53.751  1.00  0.00     0.137 A 
HETATM    9  F1  UNL     1      19.887  -0.404  53.420  1.00  0.00    -0.204 F 
ENDROOT
BRANCH   5  10
HETATM   10  N2  UNL     1      25.355  -0.895  54.522  1.00  0.00    -0.386 N 
HETATM   11  H2  UNL     1      25.779  -1.816  54.193  1.00  0.00     0.160 HD
BRANCH  10  12
HETATM   12  C5  UNL     1      26.224   0.048  55.147  1.00  0.00     0.156 C 
BRANCH  12  13
HETATM   13  C6  UNL     1      26.986   0.831  54.111  1.00  0.00    -0.038 C 
HETATM   14  C7  UNL     1      28.248   0.869  53.647  1.00  0.00     0.140 C 
HETATM   15  O1  UNL     1      28.316   1.855  52.643  1.00  0.00    -0.353 OA
HETATM   16  C8  UNL     1      27.002   1.865  52.063  1.00  0.00     0.155 C 
HETATM   17  C13 UNL     1      26.207   1.862  53.352  1.00  0.00     0.074 C 
BRANCH  16  18
HETATM   18  C9  UNL     1      26.753   3.012  51.196  1.00  0.00     0.016 C 
HETATM   19  C10 UNL     1      26.059   2.998  50.084  1.00  0.00     0.053 C 
BRANCH  19  20
HETATM   20  N3  UNL     1      25.929   4.227  49.378  1.00  0.00    -0.277 NA
HETATM   21  C11 UNL     1      24.861   4.927  49.629  1.00  0.00     0.334 C 
BRANCH  21  22
HETATM   22  N4  UNL     1      23.890   4.471  50.559  1.00  0.00    -0.248 NA
HETATM   23  C12 UNL     1      23.365   5.369  51.356  1.00  0.00     0.201 C 
HETATM   24 CL1  UNL     1      22.251   4.373  52.304  1.00  0.00    -0.076 Cl
ENDBRANCH  21  22
ENDBRANCH  19  20
ENDBRANCH  16  18
ENDBRANCH  12  13
ENDBRANCH  10  12
ENDBRANCH   5  10
TORSDOF 6
ENDMDL
MODEL 3
REMARK VINA RESULT:      -7.0      4.906      7.754
REMARK  6 active torsions:
REMARK  status: ('A' for Active; 'I' for Inactive)
REMARK    1  A    between atoms: C4_5  and  N2_6 
REMARK    2  A    between atoms: N2_6  and  C5_7 
REMARK    3  A    between atoms: C5_7  and  C6_8 
REMARK    4  A    between atoms: C8_11  and  C9_12 
REMARK    5  A    between atoms: C10_13  and  N3_14 
REMARK    6  A    between atoms: C11_15  and  N4_16 
ROOT
HETATM    1  N1  UNL     1      27.782   0.220  55.045  1.00  0.00    -0.191 NA
HETATM    2  C1  UNL     1      26.794   0.545  54.536  1.00  0.00     0.102 C 
HETATM    3  C2  UNL     1      25.578   0.937  53.884  1.00  0.00     0.085 A 
HETATM    4  C3  UNL     1      25.489   2.202  53.369  1.00  0.00     0.054 A 
HETATM    5  C4  UNL     1      24.346   2.682  52.713  1.00  0.00     0.029 A 
HETATM    6  C14 UNL     1      23.340   1.745  52.651  1.00  0.00     0.032 A 
HETATM    7  C15 UNL     1      23.382   0.473  53.150  1.00  0.00     0.046 A 
HETATM    8  C16 UNL     1      24.526   0.055  53.782  1.00  0.00     0.137 A 
HETATM    9  F1  UNL     1      24.702  -1.170  54.319  1.00  0.00    -0.204 F 
ENDROOT
BRANCH   5  10
HETATM   10  N2  UNL     1      24.258   3.990  52.189  1.00  0.00    -0.386 N 
HETATM   11  H2  UNL     1      24.273   4.755  52.932  1.00  0.00     0.160 HD
BRANCH  10  12
HETATM   12  C5  UNL     1      24.156   4.392  50.824  1.00  0.00     0.156 C 
BRANCH  12  13
HETATM   13  C6  UNL     1      25.500   4.320  50.150  1.00  0.00    -0.038 C 
HETATM   14  C7  UNL     1      26.337   3.351  49.740  1.00  0.00     0.140 C 
HETATM   15  O1  UNL     1      27.469   3.963  49.167  1.00  0.00    -0.353 OA
HETATM   16  C8  UNL     1      26.972   5.195  48.623  1.00  0.00     0.155 C 
HETATM   17  C13 UNL     1      26.147   5.630  49.817  1.00  0.00     0.074 C 
BRANCH  16  18
HETATM   18  C9  UNL     1      28.021   6.131  48.234  1.00  0.00     0.016 C 
HETATM   19  C10 UNL     1      29.287   5.836  48.059  1.00  0.00     0.053 C 
BRANCH  19  20
HETATM   20  N3  UNL     1      30.158   6.896  47.678  1.00  0.00    -0.277 NA
HETATM   21  C11 UNL     1      31.415   6.587  47.539  1.00  0.00     0.334 C 
BRANCH  21  22
HETATM   22  N4  UNL     1      31.871   5.261  47.760  1.00  0.00    -0.248 NA
HETATM   23  C12 UNL     1      32.474   4.667  46.759  1.00  0.00     0.201 C 
HETATM   24 CL1  UNL     1      32.851   3.094  47.476  1.00  0.00    -0.076 Cl
ENDBRANCH  21  22
ENDBRANCH  19  20
ENDBRANCH  16  18
ENDBRANCH  12  13
ENDBRANCH  10  12
ENDBRANCH   5  10
TORSDOF 6
ENDMDL
MODEL 4
REMARK VINA RESULT:      -6.9      5.312      8.149
REMARK  6 active torsions:
REMARK  status: ('A' for Active; 'I' for Inactive)
REMARK    1  A    between atoms: C4_5  and  N2_6 
REMARK    2  A    between atoms: N2_6  and  C5_7 
REMARK    3  A    between atoms: C5_7  and  C6_8 
REMARK    4  A    between atoms: C8_11  and  C9_12 
REMARK    5  A    between atoms: C10_13  and  N3_14 
REMARK    6  A    between atoms: C11_15  and  N4_16 
ROOT
HETATM    1  N1  UNL     1      28.994  -0.216  54.554  1.00  0.00    -0.191 NA
HETATM    2  C1  UNL     1      28.126   0.245  53.944  1.00  0.00     0.102 C 
HETATM    3  C2  UNL     1      27.053   0.801  53.169  1.00  0.00     0.085 A 
HETATM    4  C3  UNL     1      27.311   1.886  52.376  1.00  0.00     0.054 A 
HETATM    5  C4  UNL     1      26.335   2.502  51.581  1.00  0.00     0.029 A 
HETATM    6  C14 UNL     1      25.104   1.894  51.691  1.00  0.00     0.032 A 
HETATM    7  C15 UNL     1      24.799   0.812  52.467  1.00  0.00     0.046 A 
HETATM    8  C16 UNL     1      25.794   0.248  53.225  1.00  0.00     0.137 A 
HETATM    9  F1  UNL     1      25.631  -0.820  54.033  1.00  0.00    -0.204 F 
ENDROOT
BRANCH   5  10
HETATM   10  N2  UNL     1      26.606   3.625  50.771  1.00  0.00    -0.386 N 
HETATM   11  H2  UNL     1      27.275   4.327  51.214  1.00  0.00     0.160 HD
BRANCH  10  12
HETATM   12  C5  UNL     1      26.103   3.920  49.468  1.00  0.00     0.156 C 
BRANCH  12  13
HETATM   13  C6  UNL     1      26.825   5.103  48.879  1.00  0.00    -0.038 C 
HETATM   14  C7  UNL     1      26.537   6.388  48.606  1.00  0.00     0.140 C 
HETATM   15  O1  UNL     1      27.682   6.983  48.042  1.00  0.00    -0.353 OA
HETATM   16  C8  UNL     1      28.782   6.275  48.635  1.00  0.00     0.155 C 
HETATM   17  C13 UNL     1      28.245   4.871  48.457  1.00  0.00     0.074 C 
BRANCH  16  18
HETATM   18  C9  UNL     1      30.062   6.525  47.980  1.00  0.00     0.016 C 
HETATM   19  C10 UNL     1      30.771   5.644  47.318  1.00  0.00     0.053 C 
BRANCH  19  20
HETATM   20  N3  UNL     1      31.999   6.087  46.748  1.00  0.00    -0.277 NA
HETATM   21  C11 UNL     1      32.818   5.158  46.349  1.00  0.00     0.334 C 
BRANCH  21  22
HETATM   22  N4  UNL     1      32.486   3.784  46.483  1.00  0.00    -0.248 NA
HETATM   23  C12 UNL     1      33.408   2.998  46.985  1.00  0.00     0.201 C 
HETATM   24 CL1  UNL     1      32.573   1.438  46.961  1.00  0.00    -0.076 Cl
ENDBRANCH  21  22
ENDBRANCH  19  20
ENDBRANCH  16  18
ENDBRANCH  12  13
ENDBRANCH  10  12
ENDBRANCH   5  10
TORSDOF 6
ENDMDL
MODEL 5
REMARK VINA RESULT:      -6.9      2.926      4.727
REMARK  6 active torsions:
REMARK  status: ('A' for Active; 'I' for Inactive)
REMARK    1  A    between atoms: C4_5  and  N2_6 
REMARK    2  A    between atoms: N2_6  and  C5_7 
REMARK    3  A    between atoms: C5_7  and  C6_8 
REMARK    4  A    between atoms: C8_11  and  C9_12 
REMARK    5  A    between atoms: C10_13  and  N3_14 
REMARK    6  A    between atoms: C11_15  and  N4_16 
ROOT
HETATM    1  N1  UNL     1      26.850   3.198  50.499  1.00  0.00    -0.191 NA
HETATM    2  C1  UNL     1      26.960   2.539  51.444  1.00  0.00     0.102 C 
HETATM    3  C2  UNL     1      27.112   1.707  52.604  1.00  0.00     0.085 A 
HETATM    4  C3  UNL     1      26.186   0.726  52.833  1.00  0.00     0.054 A 
HETATM    5  C4  UNL     1      26.244  -0.139  53.934  1.00  0.00     0.029 A 
HETATM    6  C14 UNL     1      27.327   0.112  54.746  1.00  0.00     0.032 A 
HETATM    7  C15 UNL     1      28.276   1.078  54.560  1.00  0.00     0.046 A 
HETATM    8  C16 UNL     1      28.170   1.897  53.463  1.00  0.00     0.137 A 
HETATM    9  F1  UNL     1      29.034   2.887  53.160  1.00  0.00    -0.204 F 
ENDROOT
BRANCH   5  10
HETATM   10  N2  UNL     1      25.282  -1.145  54.168  1.00  0.00    -0.386 N 
HETATM   11  H2  UNL     1      25.375  -1.990  53.525  1.00  0.00     0.160 HD
BRANCH  10  12
HETATM   12  C5  UNL     1      24.233  -1.160  55.135  1.00  0.00     0.156 C 
BRANCH  12  13
HETATM   13  C6  UNL     1      22.918  -0.802  54.493  1.00  0.00    -0.038 C 
HETATM   14  C7  UNL     1      21.683  -0.476  54.912  1.00  0.00     0.140 C 
HETATM   15  O1  UNL     1      20.881  -0.250  53.776  1.00  0.00    -0.353 OA
HETATM   16  C8  UNL     1      21.797   0.238  52.784  1.00  0.00     0.155 C 
HETATM   17  C13 UNL     1      22.895  -0.783  52.995  1.00  0.00     0.074 C 
BRANCH  16  18
HETATM   18  C9  UNL     1      21.240   0.265  51.435  1.00  0.00     0.016 C 
HETATM   19  C10 UNL     1      20.569   1.255  50.900  1.00  0.00     0.053 C 
BRANCH  19  20
HETATM   20  N3  UNL     1      20.108   1.087  49.564  1.00  0.00    -0.277 NA
HETATM   21  C11 UNL     1      20.667   1.840  48.661  1.00  0.00     0.334 C 
BRANCH  21  22
HETATM   22  N4  UNL     1      21.680   2.771  49.011  1.00  0.00    -0.248 NA
HETATM   23  C12 UNL     1      22.813   2.688  48.357  1.00  0.00     0.201 C 
HETATM   24 CL1  UNL     1      23.735   3.999  49.107  1.00  0.00    -0.076 Cl
ENDBRANCH  21  22
ENDBRANCH  19  20
ENDBRANCH  16  18
ENDBRANCH  12  13
ENDBRANCH  10  12
ENDBRANCH   5  10
TORSDOF 6
ENDMDL
MODEL 6
REMARK VINA RESULT:      -6.8      3.561      6.161
REMARK  6 active torsions:
REMARK  status: ('A' for Active; 'I' for Inactive)
REMARK    1  A    between atoms: C4_5  and  N2_6 
REMARK    2  A    between atoms: N2_6  and  C5_7 
REMARK    3  A    between atoms: C5_7  and  C6_8 
REMARK    4  A    between atoms: C8_11  and  C9_12 
REMARK    5  A    between atoms: C10_13  and  N3_14 
REMARK    6  A    between atoms: C11_15  and  N4_16 
ROOT
HETATM    1  N1  UNL     1      26.212  -0.701  54.315  1.00  0.00    -0.191 NA
HETATM    2  C1  UNL     1      25.065  -0.691  54.162  1.00  0.00     0.102 C 
HETATM    3  C2  UNL     1      23.644  -0.704  53.967  1.00  0.00     0.085 A 
HETATM    4  C3  UNL     1      23.143  -0.273  52.768  1.00  0.00     0.054 A 
HETATM    5  C4  UNL     1      21.773  -0.246  52.476  1.00  0.00     0.029 A 
HETATM    6  C14 UNL     1      21.001  -0.697  53.524  1.00  0.00     0.032 A 
HETATM    7  C15 UNL     1      21.453  -1.136  54.736  1.00  0.00     0.046 A 
HETATM    8  C16 UNL     1      22.806  -1.141  54.967  1.00  0.00     0.137 A 
HETATM    9  F1  UNL     1      23.386  -1.547  56.116  1.00  0.00    -0.204 F 
ENDROOT
BRANCH   5  10
HETATM   10  N2  UNL     1      21.263   0.205  51.240  1.00  0.00    -0.386 N 
HETATM   11  H2  UNL     1      21.953   0.124  50.432  1.00  0.00     0.160 HD
BRANCH  10  12
HETATM   12  C5  UNL     1      19.970   0.739  50.956  1.00  0.00     0.156 C 
BRANCH  12  13
HETATM   13  C6  UNL     1      19.969   2.235  51.129  1.00  0.00    -0.038 C 
HETATM   14  C7  UNL     1      19.117   3.164  51.599  1.00  0.00     0.140 C 
HETATM   15  O1  UNL     1      19.735   4.424  51.480  1.00  0.00    -0.353 OA
HETATM   16  C8  UNL     1      21.138   4.149  51.614  1.00  0.00     0.155 C 
HETATM   17  C13 UNL     1      21.204   2.956  50.682  1.00  0.00     0.074 C 
BRANCH  16  18
HETATM   18  C9  UNL     1      21.994   5.267  51.234  1.00  0.00     0.016 C 
HETATM   19  C10 UNL     1      23.224   5.466  51.641  1.00  0.00     0.053 C 
BRANCH  19  20
HETATM   20  N3  UNL     1      23.896   6.623  51.153  1.00  0.00    -0.277 NA
HETATM   21  C11 UNL     1      24.972   6.412  50.451  1.00  0.00     0.334 C 
BRANCH  21  22
HETATM   22  N4  UNL     1      25.433   5.093  50.197  1.00  0.00    -0.248 NA
HETATM   23  C12 UNL     1      26.372   4.958  49.293  1.00  0.00     0.201 C 
HETATM   24 CL1  UNL     1      26.616   3.205  49.318  1.00  0.00    -0.076 Cl
ENDBRANCH  21  22
ENDBRANCH  19  20
ENDBRANCH  16  18
ENDBRANCH  12  13
ENDBRANCH  10  12
ENDBRANCH   5  10
TORSDOF 6
ENDMDL
MODEL 7
REMARK VINA RESULT:      -6.6      4.626      7.445
REMARK  6 active torsions:
REMARK  status: ('A' for Active; 'I' for Inactive)
REMARK    1  A    between atoms: C4_5  and  N2_6 
REMARK    2  A    between atoms: N2_6  and  C5_7 
REMARK    3  A    between atoms: C5_7  and  C6_8 
REMARK    4  A    between atoms: C8_11  and  C9_12 
REMARK    5  A    between atoms: C10_13  and  N3_14 
REMARK    6  A    between atoms: C11_15  and  N4_16 
ROOT
HETATM    1  N1  UNL     1      26.294  -0.955  54.377  1.00  0.00    -0.191 NA
HETATM    2  C1  UNL     1      25.181  -0.674  54.227  1.00  0.00     0.102 C 
HETATM    3  C2  UNL     1      23.799  -0.344  54.025  1.00  0.00     0.085 A 
HETATM    4  C3  UNL     1      23.481   0.601  53.089  1.00  0.00     0.054 A 
HETATM    5  C4  UNL     1      22.163   0.994  52.815  1.00  0.00     0.029 A 
HETATM    6  C14 UNL     1      21.241   0.325  53.590  1.00  0.00     0.032 A 
HETATM    7  C15 UNL     1      21.511  -0.624  54.535  1.00  0.00     0.046 A 
HETATM    8  C16 UNL     1      22.819  -0.971  54.761  1.00  0.00     0.137 A 
HETATM    9  F1  UNL     1      23.224  -1.890  55.662  1.00  0.00    -0.204 F 
ENDROOT
BRANCH   5  10
HETATM   10  N2  UNL     1      21.842   1.975  51.853  1.00  0.00    -0.386 N 
HETATM   11  H2  UNL     1      21.568   1.575  50.903  1.00  0.00     0.160 HD
BRANCH  10  12
HETATM   12  C5  UNL     1      21.840   3.394  52.000  1.00  0.00     0.156 C 
BRANCH  12  13
HETATM   13  C6  UNL     1      23.107   3.983  51.439  1.00  0.00    -0.038 C 
HETATM   14  C7  UNL     1      24.125   3.560  50.668  1.00  0.00     0.140 C 
HETATM   15  O1  UNL     1      25.024   4.632  50.503  1.00  0.00    -0.353 OA
HETATM   16  C8  UNL     1      24.198   5.805  50.569  1.00  0.00     0.155 C 
HETATM   17  C13 UNL     1      23.383   5.415  51.785  1.00  0.00     0.074 C 
BRANCH  16  18
HETATM   18  C9  UNL     1      24.952   7.045  50.714  1.00  0.00     0.016 C 
HETATM   19  C10 UNL     1      25.990   7.402  49.996  1.00  0.00     0.053 C 
BRANCH  19  20
HETATM   20  N3  UNL     1      26.590   8.659  50.292  1.00  0.00    -0.277 NA
HETATM   21  C11 UNL     1      27.694   8.934  49.661  1.00  0.00     0.334 C 
BRANCH  21  22
HETATM   22  N4  UNL     1      28.253   8.018  48.731  1.00  0.00    -0.248 NA
HETATM   23  C12 UNL     1      29.551   8.068  48.557  1.00  0.00     0.201 C 
HETATM   24 CL1  UNL     1      29.782   6.792  47.354  1.00  0.00    -0.076 Cl
ENDBRANCH  21  22
ENDBRANCH  19  20
ENDBRANCH  16  18
ENDBRANCH  12  13
ENDBRANCH  10  12
ENDBRANCH   5  10
TORSDOF 6
ENDMDL
MODEL 8
REMARK VINA RESULT:      -6.6      4.098      7.896
REMARK  6 active torsions:
REMARK  status: ('A' for Active; 'I' for Inactive)
REMARK    1  A    between atoms: C4_5  and  N2_6 
REMARK    2  A    between atoms: N2_6  and  C5_7 
REMARK    3  A    between atoms: C5_7  and  C6_8 
REMARK    4  A    between atoms: C8_11  and  C9_12 
REMARK    5  A    between atoms: C10_13  and  N3_14 
REMARK    6  A    between atoms: C11_15  and  N4_16 
ROOT
HETATM    1  N1  UNL     1      16.259  -1.028  52.712  1.00  0.00    -0.191 NA
HETATM    2  C1  UNL     1      17.342  -0.673  52.510  1.00  0.00     0.102 C 
HETATM    3  C2  UNL     1      18.690  -0.255  52.249  1.00  0.00     0.085 A 
HETATM    4  C3  UNL     1      19.619  -0.379  53.245  1.00  0.00     0.054 A 
HETATM    5  C4  UNL     1      20.960  -0.001  53.092  1.00  0.00     0.029 A 
HETATM    6  C14 UNL     1      21.227   0.504  51.839  1.00  0.00     0.032 A 
HETATM    7  C15 UNL     1      20.334   0.648  50.815  1.00  0.00     0.046 A 
HETATM    8  C16 UNL     1      19.033   0.260  51.020  1.00  0.00     0.137 A 
HETATM    9  F1  UNL     1      18.053   0.347  50.097  1.00  0.00    -0.204 F 
ENDROOT
BRANCH   5  10
HETATM   10  N2  UNL     1      21.913  -0.127  54.126  1.00  0.00    -0.386 N 
HETATM   11  H2  UNL     1      21.833   0.622  54.881  1.00  0.00     0.160 HD
BRANCH  10  12
HETATM   12  C5  UNL     1      22.938  -1.109  54.271  1.00  0.00     0.156 C 
BRANCH  12  13
HETATM   13  C6  UNL     1      24.295  -0.490  54.065  1.00  0.00    -0.038 C 
HETATM   14  C7  UNL     1      25.467  -0.463  54.723  1.00  0.00     0.140 C 
HETATM   15  O1  UNL     1      26.371   0.319  53.977  1.00  0.00    -0.353 OA
HETATM   16  C8  UNL     1      25.956   0.141  52.614  1.00  0.00     0.155 C 
HETATM   17  C13 UNL     1      24.468   0.332  52.824  1.00  0.00     0.074 C 
BRANCH  16  18
HETATM   18  C9  UNL     1      26.566   1.088  51.687  1.00  0.00     0.016 C 
HETATM   19  C10 UNL     1      26.290   2.366  51.601  1.00  0.00     0.053 C 
BRANCH  19  20
HETATM   20  N3  UNL     1      26.999   3.125  50.626  1.00  0.00    -0.277 NA
HETATM   21  C11 UNL     1      26.274   3.802  49.783  1.00  0.00     0.334 C 
BRANCH  21  22
HETATM   22  N4  UNL     1      24.856   3.772  49.849  1.00  0.00    -0.248 NA
HETATM   23  C12 UNL     1      24.209   4.590  49.055  1.00  0.00     0.201 C 
HETATM   24 CL1  UNL     1      22.532   4.212  49.473  1.00  0.00    -0.076 Cl
ENDBRANCH  21  22
ENDBRANCH  19  20
ENDBRANCH  16  18
ENDBRANCH  12  13
ENDBRANCH  10  12
ENDBRANCH   5  10
TORSDOF 6
ENDMDL
MODEL 9
REMARK VINA RESULT:      -6.6      3.066      4.350
REMARK  6 active torsions:
REMARK  status: ('A' for Active; 'I' for Inactive)
REMARK    1  A    between atoms: C4_5  and  N2_6 
REMARK    2  A    between atoms: N2_6  and  C5_7 
REMARK    3  A    between atoms: C5_7  and  C6_8 
REMARK    4  A    between atoms: C8_11  and  C9_12 
REMARK    5  A    between atoms: C10_13  and  N3_14 
REMARK    6  A    between atoms: C11_15  and  N4_16 
ROOT
HETATM    1  N1  UNL     1      29.592   2.129  54.951  1.00  0.00    -0.191 NA
HETATM    2  C1  UNL     1      28.873   1.318  54.544  1.00  0.00     0.102 C 
HETATM    3  C2  UNL     1      27.981   0.325  54.018  1.00  0.00     0.085 A 
HETATM    4  C3  UNL     1      26.649   0.415  54.319  1.00  0.00     0.054 A 
HETATM    5  C4  UNL     1      25.696  -0.502  53.856  1.00  0.00     0.029 A 
HETATM    6  C14 UNL     1      26.251  -1.490  53.073  1.00  0.00     0.032 A 
HETATM    7  C15 UNL     1      27.571  -1.622  52.746  1.00  0.00     0.046 A 
HETATM    8  C16 UNL     1      28.460  -0.694  53.227  1.00  0.00     0.137 A 
HETATM    9  F1  UNL     1      29.787  -0.705  52.982  1.00  0.00    -0.204 F 
ENDROOT
BRANCH   5  10
HETATM   10  N2  UNL     1      24.324  -0.407  54.175  1.00  0.00    -0.386 N 
HETATM   11  H2  UNL     1      24.132  -0.228  55.208  1.00  0.00     0.160 HD
BRANCH  10  12
HETATM   12  C5  UNL     1      23.201  -0.519  53.302  1.00  0.00     0.156 C 
BRANCH  12  13
HETATM   13  C6  UNL     1      22.992   0.766  52.544  1.00  0.00    -0.038 C 
HETATM   14  C7  UNL     1      23.342   2.055  52.692  1.00  0.00     0.140 C 
HETATM   15  O1  UNL     1      22.816   2.780  51.604  1.00  0.00    -0.353 OA
HETATM   16  C8  UNL     1      22.791   1.833  50.524  1.00  0.00     0.155 C 
HETATM   17  C13 UNL     1      22.189   0.669  51.282  1.00  0.00     0.074 C 
BRANCH  16  18
HETATM   18  C9  UNL     1      22.013   2.278  49.373  1.00  0.00     0.016 C 
HETATM   19  C10 UNL     1      20.750   2.006  49.147  1.00  0.00     0.053 C 
BRANCH  19  20
HETATM   20  N3  UNL     1      20.168   2.536  47.961  1.00  0.00    -0.277 NA
HETATM   21  C11 UNL     1      19.006   3.106  48.093  1.00  0.00     0.334 C 
BRANCH  21  22
HETATM   22  N4  UNL     1      18.370   3.185  49.361  1.00  0.00    -0.248 NA
HETATM   23  C12 UNL     1      18.284   4.373  49.908  1.00  0.00     0.201 C 
HETATM   24 CL1  UNL     1      17.449   3.991  51.420  1.00  0.00    -0.076 Cl
ENDBRANCH  21  22
ENDBRANCH  19  20
ENDBRANCH  16  18
ENDBRANCH  12  13
ENDBRANCH  10  12
ENDBRANCH   5  10
TORSDOF 6
ENDMDL
