MODEL 1
REMARK VINA RESULT:      -7.9      0.000      0.000
REMARK  0 active torsions:
REMARK  status: ('A' for Active; 'I' for Inactive)
ROOT
HETATM    1  F1  UNL     1      32.854   5.300  49.220  1.00  0.00    -0.205 F 
HETATM    2  C1  UNL     1      32.098   5.054  48.091  1.00  0.00     0.136 C 
HETATM    3  C2  UNL     1      31.290   5.790  48.799  1.00  0.00     0.023 C 
HETATM    4  C3  UNL     1      30.009   6.008  48.071  1.00  0.00     0.089 C 
HETATM    5  C4  UNL     1      29.972   7.435  47.594  1.00  0.00     0.039 C 
HETATM    6  C5  UNL     1      30.308   7.572  46.295  1.00  0.00     0.041 C 
HETATM    7  C6  UNL     1      31.125   8.638  45.737  1.00  0.00    -0.003 C 
HETATM    8  C7  UNL     1      31.767   9.195  44.754  1.00  0.00     0.146 C 
HETATM    9  O1  UNL     1      31.567   8.312  43.716  1.00  0.00    -0.362 OA
HETATM   10  C8  UNL     1      32.480   8.168  42.633  1.00  0.00     0.174 C 
HETATM   11  C9  UNL     1      32.589   6.651  42.438  1.00  0.00     0.029 C 
HETATM   12  C10 UNL     1      33.189   6.085  43.728  1.00  0.00     0.028 C 
HETATM   13  C11 UNL     1      33.217   4.589  43.709  1.00  0.00     0.167 C 
HETATM   14  O2  UNL     1      33.705   3.988  44.818  1.00  0.00    -0.391 OA
HETATM   15  C12 UNL     1      35.038   4.109  45.142  1.00  0.00     0.173 C 
HETATM   16  C13 UNL     1      35.134   3.383  46.533  1.00  0.00     0.084 C 
HETATM   17  C14 UNL     1      34.415   4.315  47.428  1.00  0.00     0.033 C 
HETATM   18  C15 UNL     1      33.070   4.292  47.368  1.00  0.00     0.094 C 
HETATM   19 CL1  UNL     1      31.622   3.571  46.645  1.00  0.00    -0.079 Cl
HETATM   20  N1  UNL     1      34.777   5.338  48.387  1.00  0.00    -0.370 N 
HETATM   21  C16 UNL     1      34.616   6.656  47.818  1.00  0.00     0.290 C 
HETATM   22  O3  UNL     1      34.626   7.718  48.740  1.00  0.00    -0.364 OA
HETATM   23  C17 UNL     1      33.729   8.776  48.353  1.00  0.00     0.162 C 
HETATM   24  C18 UNL     1      32.556   9.211  47.788  1.00  0.00     0.065 C 
HETATM   25  C19 UNL     1      31.232   9.190  47.119  1.00  0.00    -0.007 C 
HETATM   26  C20 UNL     1      30.346   9.700  47.994  1.00  0.00     0.094 C 
HETATM   27  N2  UNL     1      29.665   8.628  48.371  1.00  0.00    -0.250 NA
HETATM   28  H18 UNL     1      35.129   5.347  49.391  1.00  0.00     0.161 HD
ENDROOT
TORSDOF 0
ENDMDL
MODEL 2
REMARK VINA RESULT:      -7.8      9.912     12.603
REMARK  0 active torsions:
REMARK  status: ('A' for Active; 'I' for Inactive)
ROOT
HETATM    1  F1  UNL     1      21.876   4.556  49.436  1.00  0.00    -0.205 F 
HETATM    2  C1  UNL     1      22.350   4.408  50.725  1.00  0.00     0.136 C 
HETATM    3  C2  UNL     1      21.065   4.290  50.896  1.00  0.00     0.023 C 
HETATM    4  C3  UNL     1      20.750   4.048  52.333  1.00  0.00     0.089 C 
HETATM    5  C4  UNL     1      20.325   2.613  52.490  1.00  0.00     0.039 C 
HETATM    6  C5  UNL     1      21.308   1.813  52.951  1.00  0.00     0.041 C 
HETATM    7  C6  UNL     1      21.584   0.458  52.500  1.00  0.00    -0.003 C 
HETATM    8  C7  UNL     1      22.307  -0.620  52.488  1.00  0.00     0.146 C 
HETATM    9  O1  UNL     1      23.344  -0.306  53.338  1.00  0.00    -0.362 OA
HETATM   10  C8  UNL     1      24.637  -0.892  53.237  1.00  0.00     0.174 C 
HETATM   11  C9  UNL     1      25.597   0.289  53.417  1.00  0.00     0.029 C 
HETATM   12  C10 UNL     1      25.344   1.243  52.246  1.00  0.00     0.028 C 
HETATM   13  C11 UNL     1      26.130   2.507  52.388  1.00  0.00     0.167 C 
HETATM   14  O2  UNL     1      25.956   3.431  51.416  1.00  0.00    -0.391 OA
HETATM   15  C12 UNL     1      26.397   3.182  50.136  1.00  0.00     0.173 C 
HETATM   16  C13 UNL     1      25.885   4.432  49.332  1.00  0.00     0.084 C 
HETATM   17  C14 UNL     1      24.422   4.213  49.304  1.00  0.00     0.033 C 
HETATM   18  C15 UNL     1      23.747   4.504  50.431  1.00  0.00     0.094 C 
HETATM   19 CL1  UNL     1      23.815   5.106  52.097  1.00  0.00    -0.079 Cl
HETATM   20  N1  UNL     1      23.456   3.706  48.352  1.00  0.00    -0.370 N 
HETATM   21  C16 UNL     1      23.082   2.348  48.675  1.00  0.00     0.290 C 
HETATM   22  O3  UNL     1      21.930   1.869  48.026  1.00  0.00    -0.364 OA
HETATM   23  C17 UNL     1      21.167   0.982  48.868  1.00  0.00     0.162 C 
HETATM   24  C18 UNL     1      20.691   0.608  50.099  1.00  0.00     0.065 C 
HETATM   25  C19 UNL     1      20.434   0.608  51.561  1.00  0.00    -0.007 C 
HETATM   26  C20 UNL     1      19.109   0.779  51.722  1.00  0.00     0.094 C 
HETATM   27  N2  UNL     1      19.032   2.024  52.168  1.00  0.00    -0.250 NA
HETATM   28  H18 UNL     1      22.968   4.088  47.488  1.00  0.00     0.161 HD
ENDROOT
TORSDOF 0
ENDMDL
MODEL 3
REMARK VINA RESULT:      -7.5      2.170      5.059
REMARK  0 active torsions:
REMARK  status: ('A' for Active; 'I' for Inactive)
ROOT
HETATM    1  F1  UNL     1      32.647   7.184  49.495  1.00  0.00    -0.205 F 
HETATM    2  C1  UNL     1      33.723   7.280  48.634  1.00  0.00     0.136 C 
HETATM    3  C2  UNL     1      33.908   6.105  49.166  1.00  0.00     0.023 C 
HETATM    4  C3  UNL     1      35.126   5.461  48.599  1.00  0.00     0.089 C 
HETATM    5  C4  UNL     1      34.692   4.348  47.685  1.00  0.00     0.039 C 
HETATM    6  C5  UNL     1      34.714   4.690  46.380  1.00  0.00     0.041 C 
HETATM    7  C6  UNL     1      33.720   4.316  45.386  1.00  0.00    -0.003 C 
HETATM    8  C7  UNL     1      33.212   4.381  44.192  1.00  0.00     0.146 C 
HETATM    9  O1  UNL     1      34.051   5.264  43.548  1.00  0.00    -0.362 OA
HETATM   10  C8  UNL     1      33.634   6.076  42.456  1.00  0.00     0.174 C 
HETATM   11  C9  UNL     1      34.235   7.452  42.764  1.00  0.00     0.029 C 
HETATM   12  C10 UNL     1      33.590   7.930  44.068  1.00  0.00     0.028 C 
HETATM   13  C11 UNL     1      34.201   9.209  44.546  1.00  0.00     0.167 C 
HETATM   14  O2  UNL     1      33.719   9.703  45.709  1.00  0.00    -0.391 OA
HETATM   15  C12 UNL     1      32.428  10.176  45.778  1.00  0.00     0.173 C 
HETATM   16  C13 UNL     1      32.256  10.521  47.302  1.00  0.00     0.084 C 
HETATM   17  C14 UNL     1      32.227   9.182  47.929  1.00  0.00     0.033 C 
HETATM   18  C15 UNL     1      33.412   8.559  48.075  1.00  0.00     0.094 C 
HETATM   19 CL1  UNL     1      35.169   8.625  47.851  1.00  0.00    -0.079 Cl
HETATM   20  N1  UNL     1      31.212   8.278  48.429  1.00  0.00    -0.370 N 
HETATM   21  C16 UNL     1      30.957   7.217  47.482  1.00  0.00     0.290 C 
HETATM   22  O3  UNL     1      30.240   6.118  47.985  1.00  0.00    -0.364 OA
HETATM   23  C17 UNL     1      30.676   4.876  47.401  1.00  0.00     0.162 C 
HETATM   24  C18 UNL     1      31.663   4.065  46.899  1.00  0.00     0.065 C 
HETATM   25  C19 UNL     1      33.003   3.589  46.474  1.00  0.00    -0.007 C 
HETATM   26  C20 UNL     1      33.302   2.529  47.247  1.00  0.00     0.094 C 
HETATM   27  N2  UNL     1      34.232   3.016  48.054  1.00  0.00    -0.250 NA
HETATM   28  H18 UNL     1      30.619   8.215  49.310  1.00  0.00     0.161 HD
ENDROOT
TORSDOF 0
ENDMDL
MODEL 4
REMARK VINA RESULT:      -7.5      8.284     11.111
REMARK  0 active torsions:
REMARK  status: ('A' for Active; 'I' for Inactive)
ROOT
HETATM    1  F1  UNL     1      20.394   5.298  49.798  1.00  0.00    -0.205 F 
HETATM    2  C1  UNL     1      21.513   5.894  50.344  1.00  0.00     0.136 C 
HETATM    3  C2  UNL     1      21.261   4.953  51.208  1.00  0.00     0.023 C 
HETATM    4  C3  UNL     1      22.267   4.970  52.307  1.00  0.00     0.089 C 
HETATM    5  C4  UNL     1      23.176   3.783  52.137  1.00  0.00     0.039 C 
HETATM    6  C5  UNL     1      24.352   4.090  51.552  1.00  0.00     0.041 C 
HETATM    7  C6  UNL     1      25.044   3.284  50.560  1.00  0.00    -0.003 C 
HETATM    8  C7  UNL     1      26.001   3.095  49.701  1.00  0.00     0.146 C 
HETATM    9  O1  UNL     1      26.716   4.269  49.773  1.00  0.00    -0.362 OA
HETATM   10  C8  UNL     1      27.483   4.780  48.688  1.00  0.00     0.174 C 
HETATM   11  C9  UNL     1      27.152   6.276  48.669  1.00  0.00     0.029 C 
HETATM   12  C10 UNL     1      25.654   6.390  48.371  1.00  0.00     0.028 C 
HETATM   13  C11 UNL     1      25.183   7.807  48.462  1.00  0.00     0.167 C 
HETATM   14  O2  UNL     1      23.863   8.012  48.243  1.00  0.00    -0.391 OA
HETATM   15  C12 UNL     1      23.330   7.810  46.990  1.00  0.00     0.173 C 
HETATM   16  C13 UNL     1      21.791   8.033  47.217  1.00  0.00     0.084 C 
HETATM   17  C14 UNL     1      21.412   6.846  48.013  1.00  0.00     0.033 C 
HETATM   18  C15 UNL     1      21.735   6.867  49.320  1.00  0.00     0.094 C 
HETATM   19 CL1  UNL     1      22.468   7.766  50.660  1.00  0.00    -0.079 Cl
HETATM   20  N1  UNL     1      20.782   5.568  47.755  1.00  0.00    -0.370 N 
HETATM   21  C16 UNL     1      21.766   4.512  47.698  1.00  0.00     0.290 C 
HETATM   22  O3  UNL     1      21.255   3.204  47.775  1.00  0.00    -0.364 OA
HETATM   23  C17 UNL     1      22.138   2.322  48.493  1.00  0.00     0.162 C 
HETATM   24  C18 UNL     1      23.041   2.082  49.499  1.00  0.00     0.065 C 
HETATM   25  C19 UNL     1      23.924   2.305  50.671  1.00  0.00    -0.007 C 
HETATM   26  C20 UNL     1      23.461   1.519  51.660  1.00  0.00     0.094 C 
HETATM   27  N2  UNL     1      22.906   2.394  52.486  1.00  0.00    -0.250 NA
HETATM   28  H18 UNL     1      19.785   5.230  47.599  1.00  0.00     0.161 HD
ENDROOT
TORSDOF 0
ENDMDL
MODEL 5
REMARK VINA RESULT:      -7.4      1.602      2.099
REMARK  0 active torsions:
REMARK  status: ('A' for Active; 'I' for Inactive)
ROOT
HETATM    1  F1  UNL     1      32.836   8.008  49.277  1.00  0.00    -0.205 F 
HETATM    2  C1  UNL     1      32.108   7.175  48.449  1.00  0.00     0.136 C 
HETATM    3  C2  UNL     1      31.371   8.250  48.465  1.00  0.00     0.023 C 
HETATM    4  C3  UNL     1      30.165   8.068  47.610  1.00  0.00     0.089 C 
HETATM    5  C4  UNL     1      30.338   8.896  46.365  1.00  0.00     0.039 C 
HETATM    6  C5  UNL     1      30.749   8.178  45.300  1.00  0.00     0.041 C 
HETATM    7  C6  UNL     1      31.724   8.608  44.310  1.00  0.00    -0.003 C 
HETATM    8  C7  UNL     1      32.478   8.391  43.275  1.00  0.00     0.146 C 
HETATM    9  O1  UNL     1      32.213   7.074  42.970  1.00  0.00    -0.362 OA
HETATM   10  C8  UNL     1      33.148   6.225  42.314  1.00  0.00     0.174 C 
HETATM   11  C9  UNL     1      33.066   4.908  43.093  1.00  0.00     0.029 C 
HETATM   12  C10 UNL     1      33.526   5.213  44.521  1.00  0.00     0.028 C 
HETATM   13  C11 UNL     1      33.358   4.027  45.417  1.00  0.00     0.167 C 
HETATM   14  O2  UNL     1      33.711   4.202  46.712  1.00  0.00    -0.391 OA
HETATM   15  C12 UNL     1      35.032   4.398  47.049  1.00  0.00     0.173 C 
HETATM   16  C13 UNL     1      34.967   4.678  48.594  1.00  0.00     0.084 C 
HETATM   17  C14 UNL     1      34.336   6.014  48.648  1.00  0.00     0.033 C 
HETATM   18  C15 UNL     1      33.004   6.061  48.457  1.00  0.00     0.094 C 
HETATM   19 CL1  UNL     1      31.509   5.158  48.156  1.00  0.00    -0.079 Cl
HETATM   20  N1  UNL     1      34.784   7.380  48.824  1.00  0.00    -0.370 N 
HETATM   21  C16 UNL     1      34.824   8.075  47.558  1.00  0.00     0.290 C 
HETATM   22  O3  UNL     1      34.930   9.474  47.640  1.00  0.00    -0.364 OA
HETATM   23  C17 UNL     1      34.199  10.133  46.588  1.00  0.00     0.162 C 
HETATM   24  C18 UNL     1      33.121  10.214  45.743  1.00  0.00     0.065 C 
HETATM   25  C19 UNL     1      31.838   9.884  45.074  1.00  0.00    -0.007 C 
HETATM   26  C20 UNL     1      30.987  10.890  45.349  1.00  0.00     0.094 C 
HETATM   27  N2  UNL     1      30.155  10.333  46.216  1.00  0.00    -0.250 NA
HETATM   28  H18 UNL     1      35.088   7.980  49.649  1.00  0.00     0.161 HD
ENDROOT
TORSDOF 0
ENDMDL
MODEL 6
REMARK VINA RESULT:      -7.2      3.556      5.661
REMARK  0 active torsions:
REMARK  status: ('A' for Active; 'I' for Inactive)
ROOT
HETATM    1  F1  UNL     1      30.559  11.546  45.739  1.00  0.00    -0.205 F 
HETATM    2  C1  UNL     1      31.411  11.297  46.797  1.00  0.00     0.136 C 
HETATM    3  C2  UNL     1      30.259  11.394  47.397  1.00  0.00     0.023 C 
HETATM    4  C3  UNL     1      30.416  11.184  48.864  1.00  0.00     0.089 C 
HETATM    5  C4  UNL     1      29.840   9.839  49.214  1.00  0.00     0.039 C 
HETATM    6  C5  UNL     1      30.776   8.877  49.349  1.00  0.00     0.041 C 
HETATM    7  C6  UNL     1      30.655   7.503  48.887  1.00  0.00    -0.003 C 
HETATM    8  C7  UNL     1      31.144   6.318  48.676  1.00  0.00     0.146 C 
HETATM    9  O1  UNL     1      32.444   6.438  49.113  1.00  0.00    -0.362 OA
HETATM   10  C8  UNL     1      33.511   5.644  48.605  1.00  0.00     0.174 C 
HETATM   11  C9  UNL     1      34.655   6.644  48.402  1.00  0.00     0.029 C 
HETATM   12  C10 UNL     1      34.180   7.647  47.347  1.00  0.00     0.028 C 
HETATM   13  C11 UNL     1      35.165   8.758  47.164  1.00  0.00     0.167 C 
HETATM   14  O2  UNL     1      34.825   9.715  46.270  1.00  0.00    -0.391 OA
HETATM   15  C12 UNL     1      34.758   9.417  44.928  1.00  0.00     0.173 C 
HETATM   16  C13 UNL     1      34.216  10.750  44.294  1.00  0.00     0.084 C 
HETATM   17  C14 UNL     1      32.816  10.781  44.769  1.00  0.00     0.033 C 
HETATM   18  C15 UNL     1      32.621  11.162  46.045  1.00  0.00     0.094 C 
HETATM   19 CL1  UNL     1      33.348  11.715  47.564  1.00  0.00    -0.079 Cl
HETATM   20  N1  UNL     1      31.514  10.460  44.221  1.00  0.00    -0.370 N 
HETATM   21  C16 UNL     1      31.054   9.180  44.707  1.00  0.00     0.290 C 
HETATM   22  O3  UNL     1      29.689   8.912  44.505  1.00  0.00    -0.364 OA
HETATM   23  C17 UNL     1      29.122   8.153  45.590  1.00  0.00     0.162 C 
HETATM   24  C18 UNL     1      29.038   7.842  46.924  1.00  0.00     0.065 C 
HETATM   25  C19 UNL     1      29.296   7.861  48.386  1.00  0.00    -0.007 C 
HETATM   26  C20 UNL     1      28.152   8.249  48.977  1.00  0.00     0.094 C 
HETATM   27  N2  UNL     1      28.436   9.481  49.372  1.00  0.00    -0.250 NA
HETATM   28  H18 UNL     1      30.832  10.935  43.557  1.00  0.00     0.161 HD
ENDROOT
TORSDOF 0
ENDMDL
MODEL 7
REMARK VINA RESULT:      -7.2      7.808     10.131
REMARK  0 active torsions:
REMARK  status: ('A' for Active; 'I' for Inactive)
ROOT
HETATM    1  F1  UNL     1      24.202   5.644  51.456  1.00  0.00    -0.205 F 
HETATM    2  C1  UNL     1      24.689   5.355  50.197  1.00  0.00     0.136 C 
HETATM    3  C2  UNL     1      23.957   4.308  50.449  1.00  0.00     0.023 C 
HETATM    4  C3  UNL     1      23.990   3.359  49.300  1.00  0.00     0.089 C 
HETATM    5  C4  UNL     1      22.658   3.413  48.602  1.00  0.00     0.039 C 
HETATM    6  C5  UNL     1      22.668   4.181  47.493  1.00  0.00     0.041 C 
HETATM    7  C6  UNL     1      21.606   5.082  47.074  1.00  0.00    -0.003 C 
HETATM    8  C7  UNL     1      21.123   5.999  46.290  1.00  0.00     0.146 C 
HETATM    9  O1  UNL     1      22.160   6.232  45.414  1.00  0.00    -0.362 OA
HETATM   10  C8  UNL     1      22.351   7.477  44.750  1.00  0.00     0.174 C 
HETATM   11  C9  UNL     1      23.858   7.734  44.868  1.00  0.00     0.029 C 
HETATM   12  C10 UNL     1      24.166   7.867  46.362  1.00  0.00     0.028 C 
HETATM   13  C11 UNL     1      25.636   7.985  46.611  1.00  0.00     0.167 C 
HETATM   14  O2  UNL     1      26.016   8.079  47.906  1.00  0.00    -0.391 OA
HETATM   15  C12 UNL     1      25.699   9.200  48.640  1.00  0.00     0.173 C 
HETATM   16  C13 UNL     1      26.207   8.836  50.083  1.00  0.00     0.084 C 
HETATM   17  C14 UNL     1      25.245   7.794  50.504  1.00  0.00     0.033 C 
HETATM   18  C15 UNL     1      25.429   6.562  49.993  1.00  0.00     0.094 C 
HETATM   19 CL1  UNL     1      26.405   5.509  48.953  1.00  0.00    -0.079 Cl
HETATM   20  N1  UNL     1      24.064   7.732  51.338  1.00  0.00    -0.370 N 
HETATM   21  C16 UNL     1      22.866   7.710  50.531  1.00  0.00     0.290 C 
HETATM   22  O3  UNL     1      21.691   7.331  51.203  1.00  0.00    -0.364 OA
HETATM   23  C17 UNL     1      20.806   6.572  50.357  1.00  0.00     0.162 C 
HETATM   24  C18 UNL     1      20.591   5.655  49.360  1.00  0.00     0.065 C 
HETATM   25  C19 UNL     1      20.856   4.658  48.292  1.00  0.00    -0.007 C 
HETATM   26  C20 UNL     1      20.331   3.492  48.711  1.00  0.00     0.094 C 
HETATM   27  N2  UNL     1      21.410   2.783  49.010  1.00  0.00    -0.250 NA
HETATM   28  H18 UNL     1      23.873   7.703  52.384  1.00  0.00     0.161 HD
ENDROOT
TORSDOF 0
ENDMDL
MODEL 8
REMARK VINA RESULT:      -7.1      7.992     10.106
REMARK  0 active torsions:
REMARK  status: ('A' for Active; 'I' for Inactive)
ROOT
HETATM    1  F1  UNL     1      20.663   4.598  49.671  1.00  0.00    -0.205 F 
HETATM    2  C1  UNL     1      21.680   4.237  48.810  1.00  0.00     0.136 C 
HETATM    3  C2  UNL     1      20.945   5.000  48.053  1.00  0.00     0.023 C 
HETATM    4  C3  UNL     1      21.542   5.117  46.692  1.00  0.00     0.089 C 
HETATM    5  C4  UNL     1      22.117   6.499  46.545  1.00  0.00     0.039 C 
HETATM    6  C5  UNL     1      23.452   6.544  46.733  1.00  0.00     0.041 C 
HETATM    7  C6  UNL     1      24.176   7.588  47.441  1.00  0.00    -0.003 C 
HETATM    8  C7  UNL     1      25.263   8.086  47.949  1.00  0.00     0.146 C 
HETATM    9  O1  UNL     1      26.203   7.118  47.676  1.00  0.00    -0.362 OA
HETATM   10  C8  UNL     1      27.366   6.918  48.472  1.00  0.00     0.174 C 
HETATM   11  C9  UNL     1      27.458   5.395  48.623  1.00  0.00     0.029 C 
HETATM   12  C10 UNL     1      26.203   4.953  49.382  1.00  0.00     0.028 C 
HETATM   13  C11 UNL     1      26.111   3.463  49.470  1.00  0.00     0.167 C 
HETATM   14  O2  UNL     1      25.021   2.968  50.099  1.00  0.00    -0.391 OA
HETATM   15  C12 UNL     1      24.856   3.159  51.452  1.00  0.00     0.173 C 
HETATM   16  C13 UNL     1      23.433   2.549  51.727  1.00  0.00     0.084 C 
HETATM   17  C14 UNL     1      22.537   3.526  51.071  1.00  0.00     0.033 C 
HETATM   18  C15 UNL     1      22.446   3.454  49.729  1.00  0.00     0.094 C 
HETATM   19 CL1  UNL     1      22.948   2.629  48.243  1.00  0.00    -0.079 Cl
HETATM   20  N1  UNL     1      21.704   4.633  51.491  1.00  0.00    -0.370 N 
HETATM   21  C16 UNL     1      22.350   5.895  51.215  1.00  0.00     0.290 C 
HETATM   22  O3  UNL     1      21.518   7.027  51.279  1.00  0.00    -0.364 OA
HETATM   23  C17 UNL     1      21.882   8.020  50.302  1.00  0.00     0.162 C 
HETATM   24  C18 UNL     1      22.345   8.370  49.059  1.00  0.00     0.065 C 
HETATM   25  C19 UNL     1      22.860   8.252  47.672  1.00  0.00    -0.007 C 
HETATM   26  C20 UNL     1      21.933   8.800  46.865  1.00  0.00     0.094 C 
HETATM   27  N2  UNL     1      21.404   7.740  46.274  1.00  0.00    -0.250 NA
HETATM   28  H18 UNL     1      20.748   4.734  51.948  1.00  0.00     0.161 HD
ENDROOT
TORSDOF 0
ENDMDL
MODEL 9
REMARK VINA RESULT:      -7.1      2.559      5.728
REMARK  0 active torsions:
REMARK  status: ('A' for Active; 'I' for Inactive)
ROOT
HETATM    1  F1  UNL     1      34.889   9.055  45.303  1.00  0.00    -0.205 F 
HETATM    2  C1  UNL     1      33.666   8.577  44.873  1.00  0.00     0.136 C 
HETATM    3  C2  UNL     1      34.476   7.637  44.477  1.00  0.00     0.023 C 
HETATM    4  C3  UNL     1      33.719   6.548  43.798  1.00  0.00     0.089 C 
HETATM    5  C4  UNL     1      33.691   5.351  44.708  1.00  0.00     0.039 C 
HETATM    6  C5  UNL     1      32.535   5.227  45.391  1.00  0.00     0.041 C 
HETATM    7  C6  UNL     1      32.408   4.822  46.782  1.00  0.00    -0.003 C 
HETATM    8  C7  UNL     1      31.708   4.622  47.858  1.00  0.00     0.146 C 
HETATM    9  O1  UNL     1      30.438   4.991  47.473  1.00  0.00    -0.362 OA
HETATM   10  C8  UNL     1      29.461   5.479  48.387  1.00  0.00     0.174 C 
HETATM   11  C9  UNL     1      28.833   6.672  47.658  1.00  0.00     0.029 C 
HETATM   12  C10 UNL     1      29.948   7.703  47.461  1.00  0.00     0.028 C 
HETATM   13  C11 UNL     1      29.485   8.861  46.635  1.00  0.00     0.167 C 
HETATM   14  O2  UNL     1      30.407   9.818  46.379  1.00  0.00    -0.391 OA
HETATM   15  C12 UNL     1      30.887  10.607  47.399  1.00  0.00     0.173 C 
HETATM   16  C13 UNL     1      31.998  11.466  46.692  1.00  0.00     0.084 C 
HETATM   17  C14 UNL     1      33.053  10.463  46.429  1.00  0.00     0.033 C 
HETATM   18  C15 UNL     1      32.852   9.636  45.386  1.00  0.00     0.094 C 
HETATM   19 CL1  UNL     1      31.802   9.163  44.038  1.00  0.00    -0.079 Cl
HETATM   20  N1  UNL     1      34.306  10.073  47.041  1.00  0.00    -0.370 N 
HETATM   21  C16 UNL     1      34.145   8.866  47.817  1.00  0.00     0.290 C 
HETATM   22  O3  UNL     1      35.338   8.221  48.187  1.00  0.00    -0.364 OA
HETATM   23  C17 UNL     1      35.196   6.788  48.195  1.00  0.00     0.162 C 
HETATM   24  C18 UNL     1      34.671   5.629  47.681  1.00  0.00     0.065 C 
HETATM   25  C19 UNL     1      33.895   4.707  46.815  1.00  0.00    -0.007 C 
HETATM   26  C20 UNL     1      34.788   3.921  46.186  1.00  0.00     0.094 C 
HETATM   27  N2  UNL     1      34.755   4.384  44.946  1.00  0.00    -0.250 NA
HETATM   28  H18 UNL     1      35.297  10.460  47.055  1.00  0.00     0.161 HD
ENDROOT
TORSDOF 0
ENDMDL
