MODEL 1
REMARK VINA RESULT:      -8.7      0.000      0.000
REMARK  6 active torsions:
REMARK  status: ('A' for Active; 'I' for Inactive)
REMARK    1  A    between atoms: C2_2  and  C3_3 
REMARK    2  A    between atoms: C3_3  and  C4_4 
REMARK    3  A    between atoms: C4_4  and  C5_5 
REMARK    4  A    between atoms: C5_5  and  C6_6 
REMARK    5  A    between atoms: C8_8  and  C9_9 
REMARK    6  A    between atoms: C10_10  and  C12_13 
REMARK       I    between atoms: C12_13  and  N2_14 
ROOT
HETATM    1  C9  UNL     1      26.373  -0.002  52.834  1.00  0.00     0.039 C 
HETATM    2  C10 UNL     1      27.646   0.042  53.161  1.00  0.00     0.112 C 
HETATM    3  C11 UNL     1      28.521  -1.134  53.288  1.00  0.00     0.105 C 
HETATM    4  N1  UNL     1      29.187  -2.058  53.394  1.00  0.00    -0.191 NA
ENDROOT
BRANCH   2   5
HETATM    5  C12 UNL     1      28.404   1.285  53.456  1.00  0.00     0.260 C 
HETATM    6  N2  UNL     1      29.232   2.093  54.283  1.00  0.00    -0.365 N 
HETATM    7  H10 UNL     1      30.284   2.062  54.211  1.00  0.00     0.159 HD
HETATM    8  H11 UNL     1      28.829   2.754  55.014  1.00  0.00     0.159 HD
HETATM    9  O1  UNL     1      28.397   2.214  52.588  1.00  0.00    -0.267 OA
ENDBRANCH   2   5
BRANCH   1  10
HETATM   10  C8  UNL     1      25.077   0.648  52.558  1.00  0.00    -0.038 C 
HETATM   11  C7  UNL     1      25.267   1.665  51.498  1.00  0.00     0.015 C 
HETATM   12  C6  UNL     1      24.627   2.599  50.779  1.00  0.00    -0.062 C 
HETATM   13  C18 UNL     1      23.327   2.476  51.533  1.00  0.00     0.010 A 
HETATM   14  C17 UNL     1      23.832   3.411  52.409  1.00  0.00    -0.031 A 
HETATM   15  C19 UNL     1      22.874   1.593  50.623  1.00  0.00     0.035 A 
HETATM   16  C15 UNL     1      22.436   1.573  52.196  1.00  0.00    -0.004 A 
HETATM   17  C16 UNL     1      22.983   2.538  52.998  1.00  0.00     0.035 A 
HETATM   18  C20 UNL     1      22.015   0.712  51.212  1.00  0.00    -0.035 A 
HETATM   19  C14 UNL     1      22.567   0.581  53.350  1.00  0.00     0.043 C 
HETATM   20  C13 UNL     1      24.055   0.212  53.289  1.00  0.00    -0.014 C 
BRANCH  12  21
HETATM   21  C5  UNL     1      24.694   3.623  49.746  1.00  0.00     0.062 C 
BRANCH  21  22
HETATM   22  C4  UNL     1      26.077   4.058  49.530  1.00  0.00    -0.023 C 
BRANCH  22  23
HETATM   23  C3  UNL     1      27.243   4.339  48.926  1.00  0.00    -0.008 C 
BRANCH  23  24
HETATM   24  C2  UNL     1      27.594   5.667  48.512  1.00  0.00    -0.027 C 
HETATM   25  C1  UNL     1      28.827   6.035  48.144  1.00  0.00     0.031 C 
ENDBRANCH  23  24
ENDBRANCH  22  23
ENDBRANCH  21  22
ENDBRANCH  12  21
ENDBRANCH   1  10
TORSDOF 6
ENDMDL
MODEL 2
REMARK VINA RESULT:      -8.7      1.703      4.795
REMARK  6 active torsions:
REMARK  status: ('A' for Active; 'I' for Inactive)
REMARK    1  A    between atoms: C2_2  and  C3_3 
REMARK    2  A    between atoms: C3_3  and  C4_4 
REMARK    3  A    between atoms: C4_4  and  C5_5 
REMARK    4  A    between atoms: C5_5  and  C6_6 
REMARK    5  A    between atoms: C8_8  and  C9_9 
REMARK    6  A    between atoms: C10_10  and  C12_13 
REMARK       I    between atoms: C12_13  and  N2_14 
ROOT
HETATM    1  C9  UNL     1      26.500   0.514  52.433  1.00  0.00     0.039 C 
HETATM    2  C10 UNL     1      27.611   0.254  53.089  1.00  0.00     0.112 C 
HETATM    3  C11 UNL     1      28.244  -1.071  53.175  1.00  0.00     0.105 C 
HETATM    4  N1  UNL     1      28.718  -2.109  53.244  1.00  0.00    -0.191 NA
ENDROOT
BRANCH   2   5
HETATM    5  C12 UNL     1      28.402   1.256  53.846  1.00  0.00     0.260 C 
HETATM    6  N2  UNL     1      29.083   2.500  53.965  1.00  0.00    -0.365 N 
HETATM    7  H10 UNL     1      28.590   3.370  54.301  1.00  0.00     0.159 HD
HETATM    8  H11 UNL     1      30.112   2.608  53.713  1.00  0.00     0.159 HD
HETATM    9  O1  UNL     1      28.709   0.995  55.052  1.00  0.00    -0.267 OA
ENDBRANCH   2   5
BRANCH   1  10
HETATM   10  C8  UNL     1      25.445   1.438  51.976  1.00  0.00    -0.038 C 
HETATM   11  C7  UNL     1      24.154   1.027  52.578  1.00  0.00     0.015 C 
HETATM   12  C6  UNL     1      22.848   1.328  52.626  1.00  0.00    -0.062 C 
HETATM   13  C18 UNL     1      22.921   2.399  51.568  1.00  0.00     0.010 A 
HETATM   14  C17 UNL     1      22.718   1.397  50.644  1.00  0.00    -0.031 A 
HETATM   15  C19 UNL     1      23.081   3.338  52.519  1.00  0.00     0.035 A 
HETATM   16  C15 UNL     1      23.717   3.454  51.019  1.00  0.00    -0.004 A 
HETATM   17  C16 UNL     1      23.467   2.416  50.164  1.00  0.00     0.035 A 
HETATM   18  C20 UNL     1      23.833   4.369  52.037  1.00  0.00    -0.035 A 
HETATM   19  C14 UNL     1      25.127   3.552  50.439  1.00  0.00     0.043 C 
HETATM   20  C13 UNL     1      25.848   2.399  51.150  1.00  0.00    -0.014 C 
BRANCH  12  21
HETATM   21  C5  UNL     1      21.529   1.019  53.160  1.00  0.00     0.062 C 
BRANCH  21  22
HETATM   22  C4  UNL     1      21.503  -0.325  53.743  1.00  0.00    -0.023 C 
BRANCH  22  23
HETATM   23  C3  UNL     1      21.881  -1.440  54.390  1.00  0.00    -0.008 C 
BRANCH  23  24
HETATM   24  C2  UNL     1      22.857  -1.424  55.443  1.00  0.00    -0.027 C 
HETATM   25  C1  UNL     1      24.163  -1.215  55.248  1.00  0.00     0.031 C 
ENDBRANCH  23  24
ENDBRANCH  22  23
ENDBRANCH  21  22
ENDBRANCH  12  21
ENDBRANCH   1  10
TORSDOF 6
ENDMDL
MODEL 3
REMARK VINA RESULT:      -8.1      1.800      2.423
REMARK  6 active torsions:
REMARK  status: ('A' for Active; 'I' for Inactive)
REMARK    1  A    between atoms: C2_2  and  C3_3 
REMARK    2  A    between atoms: C3_3  and  C4_4 
REMARK    3  A    between atoms: C4_4  and  C5_5 
REMARK    4  A    between atoms: C5_5  and  C6_6 
REMARK    5  A    between atoms: C8_8  and  C9_9 
REMARK    6  A    between atoms: C10_10  and  C12_13 
REMARK       I    between atoms: C12_13  and  N2_14 
ROOT
HETATM    1  C9  UNL     1      25.397   1.920  53.008  1.00  0.00     0.039 C 
HETATM    2  C10 UNL     1      26.381   1.429  53.731  1.00  0.00     0.112 C 
HETATM    3  C11 UNL     1      27.696   2.066  53.901  1.00  0.00     0.105 C 
HETATM    4  N1  UNL     1      28.718   2.565  54.015  1.00  0.00    -0.191 NA
ENDROOT
BRANCH   2   5
HETATM    5  C12 UNL     1      26.321   0.153  54.489  1.00  0.00     0.260 C 
HETATM    6  N2  UNL     1      25.655  -0.795  55.314  1.00  0.00    -0.365 N 
HETATM    7  H10 UNL     1      25.098  -1.591  54.902  1.00  0.00     0.159 HD
HETATM    8  H11 UNL     1      25.682  -0.738  56.377  1.00  0.00     0.159 HD
HETATM    9  O1  UNL     1      27.346  -0.597  54.487  1.00  0.00    -0.267 OA
ENDBRANCH   2   5
BRANCH   1  10
HETATM   10  C8  UNL     1      24.029   1.859  52.460  1.00  0.00    -0.038 C 
HETATM   11  C7  UNL     1      23.988   2.615  51.186  1.00  0.00     0.015 C 
HETATM   12  C6  UNL     1      23.175   3.001  50.192  1.00  0.00    -0.062 C 
HETATM   13  C18 UNL     1      21.919   2.474  50.839  1.00  0.00     0.010 A 
HETATM   14  C17 UNL     1      21.822   3.693  51.473  1.00  0.00    -0.031 A 
HETATM   15  C19 UNL     1      22.048   1.317  50.163  1.00  0.00     0.035 A 
HETATM   16  C15 UNL     1      21.363   1.428  51.641  1.00  0.00    -0.004 A 
HETATM   17  C16 UNL     1      21.306   2.676  52.199  1.00  0.00     0.035 A 
HETATM   18  C20 UNL     1      21.525   0.289  50.892  1.00  0.00    -0.035 A 
HETATM   19  C14 UNL     1      21.661   0.855  53.026  1.00  0.00     0.043 C 
HETATM   20  C13 UNL     1      23.152   1.177  53.192  1.00  0.00    -0.014 C 
BRANCH  12  21
HETATM   21  C5  UNL     1      23.018   3.713  48.932  1.00  0.00     0.062 C 
BRANCH  21  22
HETATM   22  C4  UNL     1      23.991   4.803  48.822  1.00  0.00    -0.023 C 
BRANCH  22  23
HETATM   23  C3  UNL     1      25.034   5.609  49.080  1.00  0.00    -0.008 C 
BRANCH  23  24
HETATM   24  C2  UNL     1      26.395   5.160  48.985  1.00  0.00    -0.027 C 
HETATM   25  C1  UNL     1      26.806   3.941  49.347  1.00  0.00     0.031 C 
ENDBRANCH  23  24
ENDBRANCH  22  23
ENDBRANCH  21  22
ENDBRANCH  12  21
ENDBRANCH   1  10
TORSDOF 6
ENDMDL
MODEL 4
REMARK VINA RESULT:      -7.9      3.620      5.371
REMARK  6 active torsions:
REMARK  status: ('A' for Active; 'I' for Inactive)
REMARK    1  A    between atoms: C2_2  and  C3_3 
REMARK    2  A    between atoms: C3_3  and  C4_4 
REMARK    3  A    between atoms: C4_4  and  C5_5 
REMARK    4  A    between atoms: C5_5  and  C6_6 
REMARK    5  A    between atoms: C8_8  and  C9_9 
REMARK    6  A    between atoms: C10_10  and  C12_13 
REMARK       I    between atoms: C12_13  and  N2_14 
ROOT
HETATM    1  C9  UNL     1      22.363   0.481  52.398  1.00  0.00     0.039 C 
HETATM    2  C10 UNL     1      21.258   1.154  52.160  1.00  0.00     0.112 C 
HETATM    3  C11 UNL     1      19.994   0.558  51.701  1.00  0.00     0.105 C 
HETATM    4  N1  UNL     1      19.022   0.082  51.331  1.00  0.00    -0.191 NA
ENDROOT
BRANCH   2   5
HETATM    5  C12 UNL     1      21.110   2.623  52.317  1.00  0.00     0.260 C 
HETATM    6  N2  UNL     1      21.607   3.955  52.264  1.00  0.00    -0.365 N 
HETATM    7  H10 UNL     1      21.524   4.542  51.390  1.00  0.00     0.159 HD
HETATM    8  H11 UNL     1      22.090   4.413  53.095  1.00  0.00     0.159 HD
HETATM    9  O1  UNL     1      19.987   3.079  52.699  1.00  0.00    -0.267 OA
ENDBRANCH   2   5
BRANCH   1  10
HETATM   10  C8  UNL     1      23.778   0.405  52.810  1.00  0.00    -0.038 C 
HETATM   11  C7  UNL     1      24.581   1.285  51.930  1.00  0.00     0.015 C 
HETATM   12  C6  UNL     1      25.832   1.704  51.681  1.00  0.00    -0.062 C 
HETATM   13  C18 UNL     1      26.481   0.767  52.668  1.00  0.00     0.010 A 
HETATM   14  C17 UNL     1      26.524  -0.159  51.649  1.00  0.00    -0.031 A 
HETATM   15  C19 UNL     1      26.444   1.725  53.613  1.00  0.00     0.035 A 
HETATM   16  C15 UNL     1      26.348   0.128  53.942  1.00  0.00    -0.004 A 
HETATM   17  C16 UNL     1      26.400  -0.723  52.872  1.00  0.00     0.035 A 
HETATM   18  C20 UNL     1      26.321   1.159  54.848  1.00  0.00    -0.035 A 
HETATM   19  C14 UNL     1      25.311  -0.791  54.586  1.00  0.00     0.043 C 
HETATM   20  C13 UNL     1      24.030  -0.405  53.835  1.00  0.00    -0.014 C 
BRANCH  12  21
HETATM   21  C5  UNL     1      26.719   2.534  50.880  1.00  0.00     0.062 C 
BRANCH  21  22
HETATM   22  C4  UNL     1      25.980   3.629  50.246  1.00  0.00    -0.023 C 
BRANCH  22  23
HETATM   23  C3  UNL     1      25.148   4.300  49.433  1.00  0.00    -0.008 C 
BRANCH  23  24
HETATM   24  C2  UNL     1      23.749   3.993  49.341  1.00  0.00    -0.027 C 
HETATM   25  C1  UNL     1      23.267   2.839  48.865  1.00  0.00     0.031 C 
ENDBRANCH  23  24
ENDBRANCH  22  23
ENDBRANCH  21  22
ENDBRANCH  12  21
ENDBRANCH   1  10
TORSDOF 6
ENDMDL
MODEL 5
REMARK VINA RESULT:      -7.9      3.476      6.439
REMARK  6 active torsions:
REMARK  status: ('A' for Active; 'I' for Inactive)
REMARK    1  A    between atoms: C2_2  and  C3_3 
REMARK    2  A    between atoms: C3_3  and  C4_4 
REMARK    3  A    between atoms: C4_4  and  C5_5 
REMARK    4  A    between atoms: C5_5  and  C6_6 
REMARK    5  A    between atoms: C8_8  and  C9_9 
REMARK    6  A    between atoms: C10_10  and  C12_13 
REMARK       I    between atoms: C12_13  and  N2_14 
ROOT
HETATM    1  C9  UNL     1      24.641   2.393  51.312  1.00  0.00     0.039 C 
HETATM    2  C10 UNL     1      23.918   3.486  51.198  1.00  0.00     0.112 C 
HETATM    3  C11 UNL     1      23.352   3.990  49.936  1.00  0.00     0.105 C 
HETATM    4  N1  UNL     1      22.928   4.376  48.947  1.00  0.00    -0.191 NA
ENDROOT
BRANCH   2   5
HETATM    5  C12 UNL     1      23.558   4.387  52.322  1.00  0.00     0.260 C 
HETATM    6  N2  UNL     1      23.888   5.235  53.415  1.00  0.00    -0.365 N 
HETATM    7  H10 UNL     1      24.032   6.273  53.285  1.00  0.00     0.159 HD
HETATM    8  H11 UNL     1      24.012   4.862  54.404  1.00  0.00     0.159 HD
HETATM    9  O1  UNL     1      22.327   4.611  52.545  1.00  0.00    -0.267 OA
ENDBRANCH   2   5
BRANCH   1  10
HETATM   10  C8  UNL     1      25.416   1.424  52.109  1.00  0.00    -0.038 C 
HETATM   11  C7  UNL     1      24.485   0.653  52.966  1.00  0.00     0.015 C 
HETATM   12  C6  UNL     1      24.430  -0.310  53.899  1.00  0.00    -0.062 C 
HETATM   13  C18 UNL     1      25.926  -0.429  54.049  1.00  0.00     0.010 A 
HETATM   14  C17 UNL     1      25.837   0.572  54.991  1.00  0.00    -0.031 A 
HETATM   15  C19 UNL     1      25.944  -1.429  53.147  1.00  0.00     0.035 A 
HETATM   16  C15 UNL     1      27.181  -0.386  53.364  1.00  0.00    -0.004 A 
HETATM   17  C16 UNL     1      27.012   0.578  54.321  1.00  0.00     0.035 A 
HETATM   18  C20 UNL     1      27.128  -1.428  52.471  1.00  0.00    -0.035 A 
HETATM   19  C14 UNL     1      27.902   0.645  52.496  1.00  0.00     0.043 C 
HETATM   20  C13 UNL     1      26.731   1.445  51.909  1.00  0.00    -0.014 C 
BRANCH  12  21
HETATM   21  C5  UNL     1      23.612  -1.128  54.782  1.00  0.00     0.062 C 
BRANCH  21  22
HETATM   22  C4  UNL     1      22.194  -0.777  54.656  1.00  0.00    -0.023 C 
BRANCH  22  23
HETATM   23  C3  UNL     1      21.049  -0.077  54.687  1.00  0.00    -0.008 C 
BRANCH  23  24
HETATM   24  C2  UNL     1      20.436   0.448  53.499  1.00  0.00    -0.027 C 
HETATM   25  C1  UNL     1      20.878   0.205  52.260  1.00  0.00     0.031 C 
ENDBRANCH  23  24
ENDBRANCH  22  23
ENDBRANCH  21  22
ENDBRANCH  12  21
ENDBRANCH   1  10
TORSDOF 6
ENDMDL
MODEL 6
REMARK VINA RESULT:      -7.8      2.218      5.176
REMARK  6 active torsions:
REMARK  status: ('A' for Active; 'I' for Inactive)
REMARK    1  A    between atoms: C2_2  and  C3_3 
REMARK    2  A    between atoms: C3_3  and  C4_4 
REMARK    3  A    between atoms: C4_4  and  C5_5 
REMARK    4  A    between atoms: C5_5  and  C6_6 
REMARK    5  A    between atoms: C8_8  and  C9_9 
REMARK    6  A    between atoms: C10_10  and  C12_13 
REMARK       I    between atoms: C12_13  and  N2_14 
ROOT
HETATM    1  C9  UNL     1      25.652   2.254  52.368  1.00  0.00     0.039 C 
HETATM    2  C10 UNL     1      26.645   1.539  52.850  1.00  0.00     0.112 C 
HETATM    3  C11 UNL     1      27.794   2.087  53.588  1.00  0.00     0.105 C 
HETATM    4  N1  UNL     1      28.688   2.528  54.149  1.00  0.00    -0.191 NA
ENDROOT
BRANCH   2   5
HETATM    5  C12 UNL     1      26.766   0.064  52.727  1.00  0.00     0.260 C 
HETATM    6  N2  UNL     1      26.958  -1.237  53.269  1.00  0.00    -0.365 N 
HETATM    7  H10 UNL     1      26.144  -1.830  53.587  1.00  0.00     0.159 HD
HETATM    8  H11 UNL     1      27.926  -1.664  53.386  1.00  0.00     0.159 HD
HETATM    9  O1  UNL     1      26.660  -0.455  51.571  1.00  0.00    -0.267 OA
ENDBRANCH   2   5
BRANCH   1  10
HETATM   10  C8  UNL     1      24.374   2.384  51.644  1.00  0.00    -0.038 C 
HETATM   11  C7  UNL     1      23.277   1.905  52.517  1.00  0.00     0.015 C 
HETATM   12  C6  UNL     1      21.951   1.706  52.565  1.00  0.00    -0.062 C 
HETATM   13  C18 UNL     1      21.715   2.050  51.116  1.00  0.00     0.010 A 
HETATM   14  C17 UNL     1      21.965   0.724  50.837  1.00  0.00    -0.031 A 
HETATM   15  C19 UNL     1      21.446   3.325  51.455  1.00  0.00     0.035 A 
HETATM   16  C15 UNL     1      22.115   2.892  50.030  1.00  0.00    -0.004 A 
HETATM   17  C16 UNL     1      22.328   1.554  49.833  1.00  0.00     0.035 A 
HETATM   18  C20 UNL     1      21.808   4.165  50.443  1.00  0.00    -0.035 A 
HETATM   19  C14 UNL     1      23.434   3.177  49.315  1.00  0.00     0.043 C 
HETATM   20  C13 UNL     1      24.465   2.875  50.411  1.00  0.00    -0.014 C 
BRANCH  12  21
HETATM   21  C5  UNL     1      20.797   1.262  53.333  1.00  0.00     0.062 C 
BRANCH  21  22
HETATM   22  C4  UNL     1      21.160   0.172  54.242  1.00  0.00    -0.023 C 
BRANCH  22  23
HETATM   23  C3  UNL     1      21.423  -1.058  54.714  1.00  0.00    -0.008 C 
BRANCH  23  24
HETATM   24  C2  UNL     1      22.703  -1.416  55.255  1.00  0.00    -0.027 C 
HETATM   25  C1  UNL     1      23.865  -0.913  54.823  1.00  0.00     0.031 C 
ENDBRANCH  23  24
ENDBRANCH  22  23
ENDBRANCH  21  22
ENDBRANCH  12  21
ENDBRANCH   1  10
TORSDOF 6
ENDMDL
MODEL 7
REMARK VINA RESULT:      -7.4      3.437      6.101
REMARK  6 active torsions:
REMARK  status: ('A' for Active; 'I' for Inactive)
REMARK    1  A    between atoms: C2_2  and  C3_3 
REMARK    2  A    between atoms: C3_3  and  C4_4 
REMARK    3  A    between atoms: C4_4  and  C5_5 
REMARK    4  A    between atoms: C5_5  and  C6_6 
REMARK    5  A    between atoms: C8_8  and  C9_9 
REMARK    6  A    between atoms: C10_10  and  C12_13 
REMARK       I    between atoms: C12_13  and  N2_14 
ROOT
HETATM    1  C9  UNL     1      27.914   5.178  48.573  1.00  0.00     0.039 C 
HETATM    2  C10 UNL     1      29.053   5.796  48.349  1.00  0.00     0.112 C 
HETATM    3  C11 UNL     1      30.278   5.146  47.858  1.00  0.00     0.105 C 
HETATM    4  N1  UNL     1      31.227   4.625  47.488  1.00  0.00    -0.191 NA
ENDROOT
BRANCH   2   5
HETATM    5  C12 UNL     1      29.285   7.248  48.555  1.00  0.00     0.260 C 
HETATM    6  N2  UNL     1      29.312   8.420  49.361  1.00  0.00    -0.365 N 
HETATM    7  H10 UNL     1      30.184   8.715  49.878  1.00  0.00     0.159 HD
HETATM    8  H11 UNL     1      28.458   9.043  49.484  1.00  0.00     0.159 HD
HETATM    9  O1  UNL     1      29.669   7.944  47.564  1.00  0.00    -0.267 OA
ENDBRANCH   2   5
BRANCH   1  10
HETATM   10  C8  UNL     1      26.500   5.167  48.996  1.00  0.00    -0.038 C 
HETATM   11  C7  UNL     1      26.258   3.968  49.831  1.00  0.00     0.015 C 
HETATM   12  C6  UNL     1      25.310   3.305  50.511  1.00  0.00    -0.062 C 
HETATM   13  C18 UNL     1      24.179   4.192  50.054  1.00  0.00     0.010 A 
HETATM   14  C17 UNL     1      24.064   3.358  48.963  1.00  0.00    -0.031 A 
HETATM   15  C19 UNL     1      24.317   4.949  51.159  1.00  0.00     0.035 A 
HETATM   16  C15 UNL     1      23.798   5.531  49.724  1.00  0.00    -0.004 A 
HETATM   17  C16 UNL     1      23.711   4.636  48.693  1.00  0.00     0.035 A 
HETATM   18  C20 UNL     1      23.959   6.238  50.890  1.00  0.00    -0.035 A 
HETATM   19  C14 UNL     1      24.294   6.581  48.731  1.00  0.00     0.043 C 
HETATM   20  C13 UNL     1      25.767   6.185  48.555  1.00  0.00    -0.014 C 
BRANCH  12  21
HETATM   21  C5  UNL     1      24.957   2.164  51.342  1.00  0.00     0.062 C 
BRANCH  21  22
HETATM   22  C4  UNL     1      26.156   1.436  51.768  1.00  0.00    -0.023 C 
BRANCH  22  23
HETATM   23  C3  UNL     1      26.981   0.642  52.470  1.00  0.00    -0.008 C 
BRANCH  23  24
HETATM   24  C2  UNL     1      27.821   1.143  53.520  1.00  0.00    -0.027 C 
HETATM   25  C1  UNL     1      28.425   2.336  53.489  1.00  0.00     0.031 C 
ENDBRANCH  23  24
ENDBRANCH  22  23
ENDBRANCH  21  22
ENDBRANCH  12  21
ENDBRANCH   1  10
TORSDOF 6
ENDMDL
MODEL 8
REMARK VINA RESULT:      -7.3      2.813      5.249
REMARK  6 active torsions:
REMARK  status: ('A' for Active; 'I' for Inactive)
REMARK    1  A    between atoms: C2_2  and  C3_3 
REMARK    2  A    between atoms: C3_3  and  C4_4 
REMARK    3  A    between atoms: C4_4  and  C5_5 
REMARK    4  A    between atoms: C5_5  and  C6_6 
REMARK    5  A    between atoms: C8_8  and  C9_9 
REMARK    6  A    between atoms: C10_10  and  C12_13 
REMARK       I    between atoms: C12_13  and  N2_14 
ROOT
HETATM    1  C9  UNL     1      22.896   3.959  51.901  1.00  0.00     0.039 C 
HETATM    2  C10 UNL     1      23.872   4.654  51.358  1.00  0.00     0.112 C 
HETATM    3  C11 UNL     1      23.952   6.123  51.348  1.00  0.00     0.105 C 
HETATM    4  N1  UNL     1      23.996   7.265  51.337  1.00  0.00    -0.191 NA
ENDROOT
BRANCH   2   5
HETATM    5  C12 UNL     1      25.048   4.066  50.668  1.00  0.00     0.260 C 
HETATM    6  N2  UNL     1      26.438   4.003  50.374  1.00  0.00    -0.365 N 
HETATM    7  H10 UNL     1      27.096   3.402  50.939  1.00  0.00     0.159 HD
HETATM    8  H11 UNL     1      26.875   4.564  49.581  1.00  0.00     0.159 HD
HETATM    9  O1  UNL     1      24.858   3.081  49.887  1.00  0.00    -0.267 OA
ENDBRANCH   2   5
BRANCH   1  10
HETATM   10  C8  UNL     1      22.242   2.682  52.245  1.00  0.00    -0.038 C 
HETATM   11  C7  UNL     1      23.281   1.701  52.637  1.00  0.00     0.015 C 
HETATM   12  C6  UNL     1      23.467   0.432  53.030  1.00  0.00    -0.062 C 
HETATM   13  C18 UNL     1      22.027   0.026  52.843  1.00  0.00     0.010 A 
HETATM   14  C17 UNL     1      22.355  -0.267  51.538  1.00  0.00    -0.031 A 
HETATM   15  C19 UNL     1      21.775   0.296  54.138  1.00  0.00     0.035 A 
HETATM   16  C15 UNL     1      20.664   0.451  52.951  1.00  0.00    -0.004 A 
HETATM   17  C16 UNL     1      21.073   0.138  51.683  1.00  0.00     0.035 A 
HETATM   18  C20 UNL     1      20.482   0.703  54.289  1.00  0.00    -0.035 A 
HETATM   19  C14 UNL     1      19.844   1.602  52.371  1.00  0.00     0.043 C 
HETATM   20  C13 UNL     1      20.917   2.672  52.131  1.00  0.00    -0.014 C 
BRANCH  12  21
HETATM   21  C5  UNL     1      24.398  -0.611  53.433  1.00  0.00     0.062 C 
BRANCH  21  22
HETATM   22  C4  UNL     1      25.702  -0.427  52.789  1.00  0.00    -0.023 C 
BRANCH  22  23
HETATM   23  C3  UNL     1      26.728   0.137  52.131  1.00  0.00    -0.008 C 
BRANCH  23  24
HETATM   24  C2  UNL     1      27.204   1.457  52.434  1.00  0.00    -0.027 C 
HETATM   25  C1  UNL     1      26.959   2.094  53.584  1.00  0.00     0.031 C 
ENDBRANCH  23  24
ENDBRANCH  22  23
ENDBRANCH  21  22
ENDBRANCH  12  21
ENDBRANCH   1  10
TORSDOF 6
ENDMDL
MODEL 9
REMARK VINA RESULT:      -7.3      3.522      5.797
REMARK  6 active torsions:
REMARK  status: ('A' for Active; 'I' for Inactive)
REMARK    1  A    between atoms: C2_2  and  C3_3 
REMARK    2  A    between atoms: C3_3  and  C4_4 
REMARK    3  A    between atoms: C4_4  and  C5_5 
REMARK    4  A    between atoms: C5_5  and  C6_6 
REMARK    5  A    between atoms: C8_8  and  C9_9 
REMARK    6  A    between atoms: C10_10  and  C12_13 
REMARK       I    between atoms: C12_13  and  N2_14 
ROOT
HETATM    1  C9  UNL     1      20.890   1.046  52.716  1.00  0.00     0.039 C 
HETATM    2  C10 UNL     1      20.676  -0.069  53.380  1.00  0.00     0.112 C 
HETATM    3  C11 UNL     1      19.415  -0.826  53.366  1.00  0.00     0.105 C 
HETATM    4  N1  UNL     1      18.424  -1.397  53.356  1.00  0.00    -0.191 NA
ENDROOT
BRANCH   2   5
HETATM    5  C12 UNL     1      21.674  -0.742  54.250  1.00  0.00     0.260 C 
HETATM    6  N2  UNL     1      22.995  -0.932  54.743  1.00  0.00    -0.365 N 
HETATM    7  H10 UNL     1      23.350  -0.409  55.588  1.00  0.00     0.159 HD
HETATM    8  H11 UNL     1      23.682  -1.601  54.279  1.00  0.00     0.159 HD
HETATM    9  O1  UNL     1      21.273  -1.667  55.023  1.00  0.00    -0.267 OA
ENDBRANCH   2   5
BRANCH   1  10
HETATM   10  C8  UNL     1      21.748   2.176  52.311  1.00  0.00    -0.038 C 
HETATM   11  C7  UNL     1      23.109   1.665  52.024  1.00  0.00     0.015 C 
HETATM   12  C6  UNL     1      24.342   2.042  51.652  1.00  0.00    -0.062 C 
HETATM   13  C18 UNL     1      24.045   3.519  51.697  1.00  0.00     0.010 A 
HETATM   14  C17 UNL     1      24.395   3.475  53.028  1.00  0.00    -0.031 A 
HETATM   15  C19 UNL     1      23.749   3.507  50.383  1.00  0.00     0.035 A 
HETATM   16  C15 UNL     1      23.056   4.525  51.455  1.00  0.00    -0.004 A 
HETATM   17  C16 UNL     1      23.462   4.415  52.758  1.00  0.00     0.035 A 
HETATM   18  C20 UNL     1      22.810   4.457  50.106  1.00  0.00    -0.035 A 
HETATM   19  C14 UNL     1      21.634   4.782  51.951  1.00  0.00     0.043 C 
HETATM   20  C13 UNL     1      21.153   3.365  52.295  1.00  0.00    -0.014 C 
BRANCH  12  21
HETATM   21  C5  UNL     1      25.710   1.654  51.343  1.00  0.00     0.062 C 
BRANCH  21  22
HETATM   22  C4  UNL     1      26.076   0.421  52.045  1.00  0.00    -0.023 C 
BRANCH  22  23
HETATM   23  C3  UNL     1      26.009  -0.657  52.844  1.00  0.00    -0.008 C 
BRANCH  23  24
HETATM   24  C2  UNL     1      26.633  -0.696  54.136  1.00  0.00    -0.027 C 
HETATM   25  C1  UNL     1      26.511   0.268  55.055  1.00  0.00     0.031 C 
ENDBRANCH  23  24
ENDBRANCH  22  23
ENDBRANCH  21  22
ENDBRANCH  12  21
ENDBRANCH   1  10
TORSDOF 6
ENDMDL
