MODEL 1
REMARK VINA RESULT:      -8.2      0.000      0.000
REMARK  5 active torsions:
REMARK  status: ('A' for Active; 'I' for Inactive)
REMARK    1  A    between atoms: C7_9  and  N3_10 
REMARK       I    between atoms: N3_10  and  C8_11 
REMARK    2  A    between atoms: C8_11  and  C9_13 
REMARK    3  A    between atoms: C10_14  and  C11_15 
REMARK    4  A    between atoms: C11_15  and  N4_16 
REMARK    5  A    between atoms: C18_24  and  S2_25 
ROOT
HETATM    1  N1  UNL     1      25.279  -1.251  55.037  1.00  0.00    -0.191 NA
HETATM    2  C1  UNL     1      25.036  -0.482  54.179  1.00  0.00     0.102 C 
HETATM    3  C2  UNL     1      24.733   0.437  53.119  1.00  0.00     0.081 A 
HETATM    4  C3  UNL     1      23.404   0.621  52.792  1.00  0.00     0.141 A 
HETATM    5  N2  UNL     1      23.112   1.491  51.785  1.00  0.00    -0.259 NA
HETATM    6  C4  UNL     1      24.089   2.152  51.130  1.00  0.00     0.068 A 
HETATM    7  C5  UNL     1      23.805   3.047  50.097  1.00  0.00     0.035 A 
HETATM    8  C6  UNL     1      24.865   3.678  49.482  1.00  0.00     0.032 A 
HETATM    9  C7  UNL     1      26.179   3.512  49.788  1.00  0.00     0.036 A 
HETATM   10  C16 UNL     1      26.426   2.633  50.799  1.00  0.00     0.044 A 
HETATM   11  C17 UNL     1      25.423   1.963  51.462  1.00  0.00     0.014 A 
HETATM   12  C18 UNL     1      25.776   1.095  52.472  1.00  0.00     0.051 A 
ENDROOT
BRANCH  12  13
HETATM   13  S2  UNL     1      27.441   0.769  52.985  1.00  0.00    -0.017 SA
HETATM   14 CL1  UNL     1      28.337   2.509  53.789  1.00  0.00    -0.038 Cl
ENDBRANCH  12  13
BRANCH   9  15
HETATM   15  N3  UNL     1      27.259   4.157  49.156  1.00  0.00    -0.316 N 
HETATM   16  C8  UNL     1      27.433   5.508  48.811  1.00  0.00     0.301 C 
HETATM   17  O1  UNL     1      26.544   6.325  49.070  1.00  0.00    -0.258 OA
HETATM   18  H4  UNL     1      28.098   3.574  48.875  1.00  0.00     0.170 HD
BRANCH  16  19
HETATM   19  C9  UNL     1      28.631   6.000  48.155  1.00  0.00    -0.004 C 
HETATM   20  C10 UNL     1      29.643   6.402  47.624  1.00  0.00    -0.077 C 
BRANCH  20  21
HETATM   21  C11 UNL     1      30.885   6.869  46.979  1.00  0.00     0.212 C 
BRANCH  21  22
HETATM   22  N4  UNL     1      31.952   6.586  47.822  1.00  0.00    -0.401 N 
HETATM   23  C12 UNL     1      32.254   5.247  48.040  1.00  0.00     0.128 C 
HETATM   24  C13 UNL     1      33.702   4.940  47.712  1.00  0.00     0.093 C 
HETATM   25  S1  UNL     1      34.744   6.146  48.566  1.00  0.00    -0.166 SA
HETATM   26  C14 UNL     1      33.930   7.776  48.582  1.00  0.00     0.093 C 
HETATM   27  C15 UNL     1      32.403   7.600  48.659  1.00  0.00     0.128 C 
ENDBRANCH  21  22
ENDBRANCH  20  21
ENDBRANCH  16  19
ENDBRANCH   9  15
TORSDOF 5
ENDMDL
MODEL 2
REMARK VINA RESULT:      -8.2      3.077      4.136
REMARK  5 active torsions:
REMARK  status: ('A' for Active; 'I' for Inactive)
REMARK    1  A    between atoms: C7_9  and  N3_10 
REMARK       I    between atoms: N3_10  and  C8_11 
REMARK    2  A    between atoms: C8_11  and  C9_13 
REMARK    3  A    between atoms: C10_14  and  C11_15 
REMARK    4  A    between atoms: C11_15  and  N4_16 
REMARK    5  A    between atoms: C18_24  and  S2_25 
ROOT
HETATM    1  N1  UNL     1      21.157  -1.539  54.784  1.00  0.00    -0.191 NA
HETATM    2  C1  UNL     1      22.216  -1.111  54.498  1.00  0.00     0.102 C 
HETATM    3  C2  UNL     1      23.509  -0.580  54.173  1.00  0.00     0.081 A 
HETATM    4  C3  UNL     1      24.613  -1.209  54.714  1.00  0.00     0.141 A 
HETATM    5  N2  UNL     1      25.843  -0.708  54.409  1.00  0.00    -0.259 NA
HETATM    6  C4  UNL     1      25.978   0.367  53.606  1.00  0.00     0.068 A 
HETATM    7  C5  UNL     1      27.231   0.891  53.284  1.00  0.00     0.035 A 
HETATM    8  C6  UNL     1      27.276   1.992  52.454  1.00  0.00     0.032 A 
HETATM    9  C7  UNL     1      26.203   2.625  51.912  1.00  0.00     0.036 A 
HETATM   10  C16 UNL     1      24.994   2.093  52.242  1.00  0.00     0.044 A 
HETATM   11  C17 UNL     1      24.865   0.996  53.065  1.00  0.00     0.014 A 
HETATM   12  C18 UNL     1      23.598   0.532  53.339  1.00  0.00     0.051 A 
ENDROOT
BRANCH  12  13
HETATM   13  S2  UNL     1      22.103   1.250  52.711  1.00  0.00    -0.017 SA
HETATM   14 CL1  UNL     1      21.299   0.071  51.149  1.00  0.00    -0.038 Cl
ENDBRANCH  12  13
BRANCH   9  15
HETATM   15  N3  UNL     1      26.253   3.751  51.067  1.00  0.00    -0.316 N 
HETATM   16  C8  UNL     1      26.666   3.864  49.729  1.00  0.00     0.301 C 
HETATM   17  O1  UNL     1      27.062   2.862  49.125  1.00  0.00    -0.258 OA
HETATM   18  H4  UNL     1      25.940   4.685  51.457  1.00  0.00     0.170 HD
BRANCH  16  19
HETATM   19  C9  UNL     1      26.647   5.123  49.008  1.00  0.00    -0.004 C 
HETATM   20  C10 UNL     1      26.610   6.173  48.404  1.00  0.00    -0.077 C 
BRANCH  20  21
HETATM   21  C11 UNL     1      26.547   7.459  47.684  1.00  0.00     0.212 C 
BRANCH  21  22
HETATM   22  N4  UNL     1      27.785   8.080  47.783  1.00  0.00    -0.401 N 
HETATM   23  C12 UNL     1      27.800   9.411  48.184  1.00  0.00     0.128 C 
HETATM   24  C13 UNL     1      28.691   9.622  49.391  1.00  0.00     0.093 C 
HETATM   25  S1  UNL     1      30.299   8.872  49.044  1.00  0.00    -0.166 SA
HETATM   26  C14 UNL     1      30.082   7.344  48.077  1.00  0.00     0.093 C 
HETATM   27  C15 UNL     1      28.864   7.480  47.146  1.00  0.00     0.128 C 
ENDBRANCH  21  22
ENDBRANCH  20  21
ENDBRANCH  16  19
ENDBRANCH   9  15
TORSDOF 5
ENDMDL
MODEL 3
REMARK VINA RESULT:      -7.9      1.944      2.429
REMARK  5 active torsions:
REMARK  status: ('A' for Active; 'I' for Inactive)
REMARK    1  A    between atoms: C7_9  and  N3_10 
REMARK       I    between atoms: N3_10  and  C8_11 
REMARK    2  A    between atoms: C8_11  and  C9_13 
REMARK    3  A    between atoms: C10_14  and  C11_15 
REMARK    4  A    between atoms: C11_15  and  N4_16 
REMARK    5  A    between atoms: C18_24  and  S2_25 
ROOT
HETATM    1  N1  UNL     1      25.669  -0.894  55.409  1.00  0.00    -0.191 NA
HETATM    2  C1  UNL     1      25.370  -0.231  54.482  1.00  0.00     0.102 C 
HETATM    3  C2  UNL     1      25.003   0.555  53.340  1.00  0.00     0.081 A 
HETATM    4  C3  UNL     1      23.679   0.534  52.947  1.00  0.00     0.141 A 
HETATM    5  N2  UNL     1      23.327   1.279  51.862  1.00  0.00    -0.259 NA
HETATM    6  C4  UNL     1      24.240   2.013  51.193  1.00  0.00     0.068 A 
HETATM    7  C5  UNL     1      23.894   2.781  50.080  1.00  0.00     0.035 A 
HETATM    8  C6  UNL     1      24.892   3.501  49.458  1.00  0.00     0.032 A 
HETATM    9  C7  UNL     1      26.199   3.536  49.827  1.00  0.00     0.036 A 
HETATM   10  C16 UNL     1      26.508   2.777  50.916  1.00  0.00     0.044 A 
HETATM   11  C17 UNL     1      25.570   2.031  51.591  1.00  0.00     0.014 A 
HETATM   12  C18 UNL     1      25.982   1.297  52.682  1.00  0.00     0.051 A 
ENDROOT
BRANCH  12  13
HETATM   13  S2  UNL     1      27.648   1.236  53.284  1.00  0.00    -0.017 SA
HETATM   14 CL1  UNL     1      28.446  -0.715  53.097  1.00  0.00    -0.038 Cl
ENDBRANCH  12  13
BRANCH   9  15
HETATM   15  N3  UNL     1      27.215   4.270  49.188  1.00  0.00    -0.316 N 
HETATM   16  C8  UNL     1      27.251   5.618  48.794  1.00  0.00     0.301 C 
HETATM   17  O1  UNL     1      26.274   6.343  49.006  1.00  0.00    -0.258 OA
HETATM   18  H4  UNL     1      28.118   3.771  48.942  1.00  0.00     0.170 HD
BRANCH  16  19
HETATM   19  C9  UNL     1      28.401   6.212  48.138  1.00  0.00    -0.004 C 
HETATM   20  C10 UNL     1      29.366   6.688  47.581  1.00  0.00    -0.077 C 
BRANCH  20  21
HETATM   21  C11 UNL     1      30.533   7.259  46.881  1.00  0.00     0.212 C 
BRANCH  21  22
HETATM   22  N4  UNL     1      30.787   8.520  47.404  1.00  0.00    -0.401 N 
HETATM   23  C12 UNL     1      30.844   9.582  46.509  1.00  0.00     0.128 C 
HETATM   24  C13 UNL     1      29.884  10.690  46.894  1.00  0.00     0.093 C 
HETATM   25  S1  UNL     1      30.155  11.094  48.636  1.00  0.00    -0.166 SA
HETATM   26  C14 UNL     1      30.542   9.583  49.576  1.00  0.00     0.093 C 
HETATM   27  C15 UNL     1      31.318   8.594  48.687  1.00  0.00     0.128 C 
ENDBRANCH  21  22
ENDBRANCH  20  21
ENDBRANCH  16  19
ENDBRANCH   9  15
TORSDOF 5
ENDMDL
MODEL 4
REMARK VINA RESULT:      -7.9      3.688      4.724
REMARK  5 active torsions:
REMARK  status: ('A' for Active; 'I' for Inactive)
REMARK    1  A    between atoms: C7_9  and  N3_10 
REMARK       I    between atoms: N3_10  and  C8_11 
REMARK    2  A    between atoms: C8_11  and  C9_13 
REMARK    3  A    between atoms: C10_14  and  C11_15 
REMARK    4  A    between atoms: C11_15  and  N4_16 
REMARK    5  A    between atoms: C18_24  and  S2_25 
ROOT
HETATM    1  N1  UNL     1      19.650  -0.302  53.295  1.00  0.00    -0.191 NA
HETATM    2  C1  UNL     1      20.822  -0.187  53.320  1.00  0.00     0.102 C 
HETATM    3  C2  UNL     1      22.248  -0.037  53.373  1.00  0.00     0.081 A 
HETATM    4  C3  UNL     1      22.947  -0.869  54.226  1.00  0.00     0.141 A 
HETATM    5  N2  UNL     1      24.301  -0.729  54.280  1.00  0.00    -0.259 NA
HETATM    6  C4  UNL     1      24.938   0.191  53.526  1.00  0.00     0.068 A 
HETATM    7  C5  UNL     1      26.325   0.345  53.571  1.00  0.00     0.035 A 
HETATM    8  C6  UNL     1      26.892   1.310  52.766  1.00  0.00     0.032 A 
HETATM    9  C7  UNL     1      26.224   2.137  51.920  1.00  0.00     0.036 A 
HETATM   10  C16 UNL     1      24.873   1.965  51.897  1.00  0.00     0.044 A 
HETATM   11  C17 UNL     1      24.231   1.025  52.671  1.00  0.00     0.014 A 
HETATM   12  C18 UNL     1      22.860   0.927  52.576  1.00  0.00     0.051 A 
ENDROOT
BRANCH  12  13
HETATM   13  S2  UNL     1      21.849   1.934  51.525  1.00  0.00    -0.017 SA
HETATM   14 CL1  UNL     1      21.270   0.870  49.790  1.00  0.00    -0.038 Cl
ENDBRANCH  12  13
BRANCH   9  15
HETATM   15  N3  UNL     1      26.807   3.123  51.102  1.00  0.00    -0.316 N 
HETATM   16  C8  UNL     1      26.431   3.585  49.830  1.00  0.00     0.301 C 
HETATM   17  O1  UNL     1      25.441   3.101  49.271  1.00  0.00    -0.258 OA
HETATM   18  H4  UNL     1      27.670   3.625  51.457  1.00  0.00     0.170 HD
BRANCH  16  19
HETATM   19  C9  UNL     1      27.161   4.624  49.127  1.00  0.00    -0.004 C 
HETATM   20  C10 UNL     1      27.789   5.485  48.549  1.00  0.00    -0.077 C 
BRANCH  20  21
HETATM   21  C11 UNL     1      28.569   6.515  47.838  1.00  0.00     0.212 C 
BRANCH  21  22
HETATM   22  N4  UNL     1      27.955   7.745  48.034  1.00  0.00    -0.401 N 
HETATM   23  C12 UNL     1      27.039   8.161  47.074  1.00  0.00     0.128 C 
HETATM   24  C13 UNL     1      25.695   8.493  47.690  1.00  0.00     0.093 C 
HETATM   25  S1  UNL     1      25.972   9.622  49.076  1.00  0.00    -0.166 SA
HETATM   26  C14 UNL     1      27.514   9.185  49.941  1.00  0.00     0.093 C 
HETATM   27  C15 UNL     1      28.538   8.624  48.939  1.00  0.00     0.128 C 
ENDBRANCH  21  22
ENDBRANCH  20  21
ENDBRANCH  16  19
ENDBRANCH   9  15
TORSDOF 5
ENDMDL
MODEL 5
REMARK VINA RESULT:      -7.9      2.914      3.845
REMARK  5 active torsions:
REMARK  status: ('A' for Active; 'I' for Inactive)
REMARK    1  A    between atoms: C7_9  and  N3_10 
REMARK       I    between atoms: N3_10  and  C8_11 
REMARK    2  A    between atoms: C8_11  and  C9_13 
REMARK    3  A    between atoms: C10_14  and  C11_15 
REMARK    4  A    between atoms: C11_15  and  N4_16 
REMARK    5  A    between atoms: C18_24  and  S2_25 
ROOT
HETATM    1  N1  UNL     1      20.076  -0.106  53.824  1.00  0.00    -0.191 NA
HETATM    2  C1  UNL     1      21.242  -0.007  53.689  1.00  0.00     0.102 C 
HETATM    3  C2  UNL     1      22.664   0.123  53.548  1.00  0.00     0.081 A 
HETATM    4  C3  UNL     1      23.460  -0.764  54.248  1.00  0.00     0.141 A 
HETATM    5  N2  UNL     1      24.811  -0.643  54.117  1.00  0.00    -0.259 NA
HETATM    6  C4  UNL     1      25.353   0.310  53.332  1.00  0.00     0.068 A 
HETATM    7  C5  UNL     1      26.735   0.445  53.188  1.00  0.00     0.035 A 
HETATM    8  C6  UNL     1      27.203   1.446  52.364  1.00  0.00     0.032 A 
HETATM    9  C7  UNL     1      26.439   2.328  51.667  1.00  0.00     0.036 A 
HETATM   10  C16 UNL     1      25.094   2.173  51.826  1.00  0.00     0.044 A 
HETATM   11  C17 UNL     1      24.549   1.198  52.631  1.00  0.00     0.014 A 
HETATM   12  C18 UNL     1      23.177   1.122  52.725  1.00  0.00     0.051 A 
ENDROOT
BRANCH  12  13
HETATM   13  S2  UNL     1      22.048   2.199  51.884  1.00  0.00    -0.017 SA
HETATM   14 CL1  UNL     1      22.028   1.795  49.807  1.00  0.00    -0.038 Cl
ENDBRANCH  12  13
BRANCH   9  15
HETATM   15  N3  UNL     1      26.920   3.351  50.828  1.00  0.00    -0.316 N 
HETATM   16  C8  UNL     1      26.363   3.909  49.666  1.00  0.00     0.301 C 
HETATM   17  O1  UNL     1      25.279   3.491  49.246  1.00  0.00    -0.258 OA
HETATM   18  H4  UNL     1      27.848   3.803  51.070  1.00  0.00     0.170 HD
BRANCH  16  19
HETATM   19  C9  UNL     1      27.010   4.973  48.921  1.00  0.00    -0.004 C 
HETATM   20  C10 UNL     1      27.568   5.860  48.311  1.00  0.00    -0.077 C 
BRANCH  20  21
HETATM   21  C11 UNL     1      28.267   6.924  47.566  1.00  0.00     0.212 C 
BRANCH  21  22
HETATM   22  N4  UNL     1      28.928   7.737  48.477  1.00  0.00    -0.401 N 
HETATM   23  C12 UNL     1      30.216   7.365  48.846  1.00  0.00     0.128 C 
HETATM   24  C13 UNL     1      31.210   8.485  48.612  1.00  0.00     0.093 C 
HETATM   25  S1  UNL     1      30.560   9.989  49.376  1.00  0.00    -0.166 SA
HETATM   26  C14 UNL     1      28.749  10.054  49.189  1.00  0.00     0.093 C 
HETATM   27  C15 UNL     1      28.167   8.630  49.221  1.00  0.00     0.128 C 
ENDBRANCH  21  22
ENDBRANCH  20  21
ENDBRANCH  16  19
ENDBRANCH   9  15
TORSDOF 5
ENDMDL
MODEL 6
REMARK VINA RESULT:      -7.8      1.591      1.887
REMARK  5 active torsions:
REMARK  status: ('A' for Active; 'I' for Inactive)
REMARK    1  A    between atoms: C7_9  and  N3_10 
REMARK       I    between atoms: N3_10  and  C8_11 
REMARK    2  A    between atoms: C8_11  and  C9_13 
REMARK    3  A    between atoms: C10_14  and  C11_15 
REMARK    4  A    between atoms: C11_15  and  N4_16 
REMARK    5  A    between atoms: C18_24  and  S2_25 
ROOT
HETATM    1  N1  UNL     1      24.688  -1.413  55.620  1.00  0.00    -0.191 NA
HETATM    2  C1  UNL     1      24.317  -0.795  54.689  1.00  0.00     0.102 C 
HETATM    3  C2  UNL     1      23.863  -0.063  53.542  1.00  0.00     0.081 A 
HETATM    4  C3  UNL     1      22.552  -0.240  53.147  1.00  0.00     0.141 A 
HETATM    5  N2  UNL     1      22.118   0.453  52.057  1.00  0.00    -0.259 NA
HETATM    6  C4  UNL     1      22.940   1.285  51.386  1.00  0.00     0.068 A 
HETATM    7  C5  UNL     1      22.509   2.001  50.268  1.00  0.00     0.035 A 
HETATM    8  C6  UNL     1      23.418   2.830  49.644  1.00  0.00     0.032 A 
HETATM    9  C7  UNL     1      24.711   3.019  50.016  1.00  0.00     0.036 A 
HETATM   10  C16 UNL     1      25.104   2.307  51.109  1.00  0.00     0.044 A 
HETATM   11  C17 UNL     1      24.258   1.459  51.786  1.00  0.00     0.014 A 
HETATM   12  C18 UNL     1      24.750   0.785  52.882  1.00  0.00     0.051 A 
ENDROOT
BRANCH  12  13
HETATM   13  S2  UNL     1      26.411   0.922  53.488  1.00  0.00    -0.017 SA
HETATM   14 CL1  UNL     1      27.553  -0.774  52.944  1.00  0.00    -0.038 Cl
ENDBRANCH  12  13
BRANCH   9  15
HETATM   15  N3  UNL     1      25.637   3.863  49.374  1.00  0.00    -0.316 N 
HETATM   16  C8  UNL     1      25.858   5.243  49.518  1.00  0.00     0.301 C 
HETATM   17  O1  UNL     1      25.174   5.892  50.315  1.00  0.00    -0.258 OA
HETATM   18  H4  UNL     1      26.293   3.438  48.658  1.00  0.00     0.170 HD
BRANCH  16  19
HETATM   19  C9  UNL     1      26.872   5.956  48.763  1.00  0.00    -0.004 C 
HETATM   20  C10 UNL     1      27.709   6.570  48.138  1.00  0.00    -0.077 C 
BRANCH  20  21
HETATM   21  C11 UNL     1      28.732   7.332  47.397  1.00  0.00     0.212 C 
BRANCH  21  22
HETATM   22  N4  UNL     1      29.870   7.425  48.187  1.00  0.00    -0.401 N 
HETATM   23  C12 UNL     1      30.520   6.240  48.511  1.00  0.00     0.128 C 
HETATM   24  C13 UNL     1      31.983   6.277  48.115  1.00  0.00     0.093 C 
HETATM   25  S1  UNL     1      32.709   7.796  48.775  1.00  0.00    -0.166 SA
HETATM   26  C14 UNL     1      31.500   9.155  48.692  1.00  0.00     0.093 C 
HETATM   27  C15 UNL     1      30.076   8.606  48.890  1.00  0.00     0.128 C 
ENDBRANCH  21  22
ENDBRANCH  20  21
ENDBRANCH  16  19
ENDBRANCH   9  15
TORSDOF 5
ENDMDL
MODEL 7
REMARK VINA RESULT:      -7.7      5.905     11.330
REMARK  5 active torsions:
REMARK  status: ('A' for Active; 'I' for Inactive)
REMARK    1  A    between atoms: C7_9  and  N3_10 
REMARK       I    between atoms: N3_10  and  C8_11 
REMARK    2  A    between atoms: C8_11  and  C9_13 
REMARK    3  A    between atoms: C10_14  and  C11_15 
REMARK    4  A    between atoms: C11_15  and  N4_16 
REMARK    5  A    between atoms: C18_24  and  S2_25 
ROOT
HETATM    1  N1  UNL     1      28.673   2.474  52.927  1.00  0.00    -0.191 NA
HETATM    2  C1  UNL     1      27.788   1.816  53.340  1.00  0.00     0.102 C 
HETATM    3  C2  UNL     1      26.722   0.993  53.835  1.00  0.00     0.081 A 
HETATM    4  C3  UNL     1      26.976   0.219  54.949  1.00  0.00     0.141 A 
HETATM    5  N2  UNL     1      25.966  -0.564  55.422  1.00  0.00    -0.259 NA
HETATM    6  C4  UNL     1      24.758  -0.583  54.822  1.00  0.00     0.068 A 
HETATM    7  C5  UNL     1      23.715  -1.380  55.295  1.00  0.00     0.035 A 
HETATM    8  C6  UNL     1      22.513  -1.336  54.620  1.00  0.00     0.032 A 
HETATM    9  C7  UNL     1      22.242  -0.581  53.523  1.00  0.00     0.036 A 
HETATM   10  C16 UNL     1      23.278   0.186  53.083  1.00  0.00     0.044 A 
HETATM   11  C17 UNL     1      24.508   0.197  53.701  1.00  0.00     0.014 A 
HETATM   12  C18 UNL     1      25.492   1.009  53.181  1.00  0.00     0.051 A 
ENDROOT
BRANCH  12  13
HETATM   13  S2  UNL     1      25.295   2.046  51.757  1.00  0.00    -0.017 SA
HETATM   14 CL1  UNL     1      24.024   3.682  52.187  1.00  0.00    -0.038 Cl
ENDBRANCH  12  13
BRANCH   9  15
HETATM   15  N3  UNL     1      21.014  -0.541  52.835  1.00  0.00    -0.316 N 
HETATM   16  C8  UNL     1      20.099   0.512  52.672  1.00  0.00     0.301 C 
HETATM   17  O1  UNL     1      20.335   1.612  53.183  1.00  0.00    -0.258 OA
HETATM   18  H4  UNL     1      20.684  -1.421  52.345  1.00  0.00     0.170 HD
BRANCH  16  19
HETATM   19  C9  UNL     1      18.868   0.369  51.918  1.00  0.00    -0.004 C 
HETATM   20  C10 UNL     1      17.846   0.265  51.273  1.00  0.00    -0.077 C 
BRANCH  20  21
HETATM   21  C11 UNL     1      16.617   0.135  50.468  1.00  0.00     0.212 C 
BRANCH  21  22
HETATM   22  N4  UNL     1      15.688   1.058  50.930  1.00  0.00    -0.401 N 
HETATM   23  C12 UNL     1      14.530   0.559  51.515  1.00  0.00     0.128 C 
HETATM   24  C13 UNL     1      14.321   1.120  52.908  1.00  0.00     0.093 C 
HETATM   25  S1  UNL     1      14.464   2.920  52.821  1.00  0.00    -0.166 SA
HETATM   26  C14 UNL     1      15.747   3.389  51.616  1.00  0.00     0.093 C 
HETATM   27  C15 UNL     1      15.789   2.364  50.468  1.00  0.00     0.128 C 
ENDBRANCH  21  22
ENDBRANCH  20  21
ENDBRANCH  16  19
ENDBRANCH   9  15
TORSDOF 5
ENDMDL
MODEL 8
REMARK VINA RESULT:      -7.5      7.086     12.980
REMARK  5 active torsions:
REMARK  status: ('A' for Active; 'I' for Inactive)
REMARK    1  A    between atoms: C7_9  and  N3_10 
REMARK       I    between atoms: N3_10  and  C8_11 
REMARK    2  A    between atoms: C8_11  and  C9_13 
REMARK    3  A    between atoms: C10_14  and  C11_15 
REMARK    4  A    between atoms: C11_15  and  N4_16 
REMARK    5  A    between atoms: C18_24  and  S2_25 
ROOT
HETATM    1  N1  UNL     1      26.737   2.470  51.212  1.00  0.00    -0.191 NA
HETATM    2  C1  UNL     1      25.965   1.813  51.812  1.00  0.00     0.102 C 
HETATM    3  C2  UNL     1      25.033   0.992  52.531  1.00  0.00     0.081 A 
HETATM    4  C3  UNL     1      25.541   0.126  53.478  1.00  0.00     0.141 A 
HETATM    5  N2  UNL     1      24.659  -0.656  54.162  1.00  0.00    -0.259 NA
HETATM    6  C4  UNL     1      23.334  -0.586  53.922  1.00  0.00     0.068 A 
HETATM    7  C5  UNL     1      22.419  -1.380  54.615  1.00  0.00     0.035 A 
HETATM    8  C6  UNL     1      21.082  -1.242  54.305  1.00  0.00     0.032 A 
HETATM    9  C7  UNL     1      20.561  -0.397  53.378  1.00  0.00     0.036 A 
HETATM   10  C16 UNL     1      21.477   0.366  52.717  1.00  0.00     0.044 A 
HETATM   11  C17 UNL     1      22.828   0.286  52.968  1.00  0.00     0.014 A 
HETATM   12  C18 UNL     1      23.673   1.101  52.247  1.00  0.00     0.051 A 
ENDROOT
BRANCH  12  13
HETATM   13  S2  UNL     1      23.149   2.251  51.004  1.00  0.00    -0.017 SA
HETATM   14 CL1  UNL     1      22.085   1.263  49.465  1.00  0.00    -0.038 Cl
ENDBRANCH  12  13
BRANCH   9  15
HETATM   15  N3  UNL     1      19.195  -0.261  53.063  1.00  0.00    -0.316 N 
HETATM   16  C8  UNL     1      18.135  -1.170  53.213  1.00  0.00     0.301 C 
HETATM   17  O1  UNL     1      18.351  -2.289  53.689  1.00  0.00    -0.258 OA
HETATM   18  H4  UNL     1      18.865   0.654  52.643  1.00  0.00     0.170 HD
BRANCH  16  19
HETATM   19  C9  UNL     1      16.772  -0.853  52.829  1.00  0.00    -0.004 C 
HETATM   20  C10 UNL     1      15.638  -0.566  52.513  1.00  0.00    -0.077 C 
BRANCH  20  21
HETATM   21  C11 UNL     1      14.266  -0.200  52.112  1.00  0.00     0.212 C 
BRANCH  21  22
HETATM   22  N4  UNL     1      13.799   0.776  52.982  1.00  0.00    -0.401 N 
HETATM   23  C12 UNL     1      14.385   2.034  52.903  1.00  0.00     0.128 C 
HETATM   24  C13 UNL     1      13.351   3.121  52.686  1.00  0.00     0.093 C 
HETATM   25  S1  UNL     1      12.050   2.919  53.925  1.00  0.00    -0.166 SA
HETATM   26  C14 UNL     1      11.753   1.149  54.240  1.00  0.00     0.093 C 
HETATM   27  C15 UNL     1      13.067   0.362  54.088  1.00  0.00     0.128 C 
ENDBRANCH  21  22
ENDBRANCH  20  21
ENDBRANCH  16  19
ENDBRANCH   9  15
TORSDOF 5
ENDMDL
MODEL 9
REMARK VINA RESULT:      -7.4      4.875      5.965
REMARK  5 active torsions:
REMARK  status: ('A' for Active; 'I' for Inactive)
REMARK    1  A    between atoms: C7_9  and  N3_10 
REMARK       I    between atoms: N3_10  and  C8_11 
REMARK    2  A    between atoms: C8_11  and  C9_13 
REMARK    3  A    between atoms: C10_14  and  C11_15 
REMARK    4  A    between atoms: C11_15  and  N4_16 
REMARK    5  A    between atoms: C18_24  and  S2_25 
ROOT
HETATM    1  N1  UNL     1      21.211  -1.661  54.755  1.00  0.00    -0.191 NA
HETATM    2  C1  UNL     1      22.214  -1.162  54.393  1.00  0.00     0.102 C 
HETATM    3  C2  UNL     1      23.441  -0.546  53.975  1.00  0.00     0.081 A 
HETATM    4  C3  UNL     1      24.622  -1.112  54.412  1.00  0.00     0.141 A 
HETATM    5  N2  UNL     1      25.789  -0.529  54.018  1.00  0.00    -0.259 NA
HETATM    6  C4  UNL     1      25.791   0.563  53.228  1.00  0.00     0.068 A 
HETATM    7  C5  UNL     1      26.979   1.171  52.816  1.00  0.00     0.035 A 
HETATM    8  C6  UNL     1      26.887   2.284  52.007  1.00  0.00     0.032 A 
HETATM    9  C7  UNL     1      25.736   2.856  51.566  1.00  0.00     0.036 A 
HETATM   10  C16 UNL     1      24.593   2.243  51.983  1.00  0.00     0.044 A 
HETATM   11  C17 UNL     1      24.601   1.129  52.791  1.00  0.00     0.014 A 
HETATM   12  C18 UNL     1      23.392   0.581  53.158  1.00  0.00     0.051 A 
ENDROOT
BRANCH  12  13
HETATM   13  S2  UNL     1      21.809   1.212  52.668  1.00  0.00    -0.017 SA
HETATM   14 CL1  UNL     1      21.341   0.619  50.692  1.00  0.00    -0.038 Cl
ENDBRANCH  12  13
BRANCH   9  15
HETATM   15  N3  UNL     1      25.647   3.994  50.742  1.00  0.00    -0.316 N 
HETATM   16  C8  UNL     1      26.416   4.372  49.629  1.00  0.00     0.301 C 
HETATM   17  O1  UNL     1      27.338   3.644  49.248  1.00  0.00    -0.258 OA
HETATM   18  H4  UNL     1      24.895   4.711  50.955  1.00  0.00     0.170 HD
BRANCH  16  19
HETATM   19  C9  UNL     1      26.176   5.598  48.892  1.00  0.00    -0.004 C 
HETATM   20  C10 UNL     1      25.968   6.611  48.259  1.00  0.00    -0.077 C 
BRANCH  20  21
HETATM   21  C11 UNL     1      25.692   7.835  47.482  1.00  0.00     0.212 C 
BRANCH  21  22
HETATM   22  N4  UNL     1      24.333   8.107  47.558  1.00  0.00    -0.401 N 
HETATM   23  C12 UNL     1      23.527   7.623  46.535  1.00  0.00     0.128 C 
HETATM   24  C13 UNL     1      22.390   6.775  47.071  1.00  0.00     0.093 C 
HETATM   25  S1  UNL     1      21.555   7.709  48.375  1.00  0.00    -0.166 SA
HETATM   26  C14 UNL     1      22.770   8.672  49.331  1.00  0.00     0.093 C 
HETATM   27  C15 UNL     1      23.923   9.121  48.416  1.00  0.00     0.128 C 
ENDBRANCH  21  22
ENDBRANCH  20  21
ENDBRANCH  16  19
ENDBRANCH   9  15
TORSDOF 5
ENDMDL
