MODEL 1
REMARK VINA RESULT:      -7.6      0.000      0.000
REMARK  5 active torsions:
REMARK  status: ('A' for Active; 'I' for Inactive)
REMARK    1  A    between atoms: C2_2  and  C3_3 
REMARK       I    between atoms: C3_3  and  N1_5 
REMARK    2  A    between atoms: N1_5  and  C4_6 
REMARK    3  A    between atoms: C6_8  and  C7_9 
REMARK    4  A    between atoms: C12_15  and  C13_16 
REMARK    5  A    between atoms: C13_16  and  C14_17 
ROOT
HETATM    1  C14 UNL     1      23.648  -0.222  53.208  1.00  0.00     0.124 C 
HETATM    2  C15 UNL     1      23.107  -0.890  54.434  1.00  0.00     0.059 C 
HETATM    3  N2  UNL     1      22.670  -1.406  55.391  1.00  0.00    -0.197 NA
ENDROOT
BRANCH   1   4
HETATM    4  C13 UNL     1      24.907   0.410  53.604  1.00  0.00     0.021 C 
BRANCH   4   5
HETATM    5  C12 UNL     1      25.161   1.842  53.220  1.00  0.00     0.015 C 
HETATM    6  C4  UNL     1      26.452   2.122  52.435  1.00  0.00     0.093 C 
HETATM    7  C5  UNL     1      26.311   2.199  50.943  1.00  0.00     0.060 C 
HETATM    8  C6  UNL     1      25.825   3.372  50.210  1.00  0.00    -0.066 C 
HETATM    9  C8  UNL     1      24.684   4.132  50.011  1.00  0.00     0.035 C 
HETATM   10  C9  UNL     1      23.301   3.959  50.610  1.00  0.00     0.055 A 
HETATM   11  C10 UNL     1      23.126   3.147  51.897  1.00  0.00     0.037 A 
HETATM   12  N3  UNL     1      22.069   3.721  51.272  1.00  0.00    -0.356 N 
HETATM   13  C11 UNL     1      24.133   2.496  52.648  1.00  0.00     0.066 C 
HETATM   14  H18 UNL     1      21.075   3.933  51.189  1.00  0.00     0.166 HD
BRANCH   6  15
HETATM   15  N1  UNL     1      27.494   1.154  52.658  1.00  0.00    -0.352 N 
HETATM   16  C3  UNL     1      28.564   1.489  53.569  1.00  0.00     0.240 C 
HETATM   17  O1  UNL     1      28.602   2.592  54.162  1.00  0.00    -0.269 OA
HETATM   18  H4  UNL     1      27.343   0.301  52.080  1.00  0.00     0.163 HD
BRANCH  16  19
HETATM   19  C2  UNL     1      29.565   0.480  53.742  1.00  0.00     0.064 C 
HETATM   20  C1  UNL     1      29.188  -0.780  53.604  1.00  0.00     0.017 C 
ENDBRANCH  16  19
ENDBRANCH   6  15
BRANCH   8  21
HETATM   21  C7  UNL     1      26.878   4.043  49.341  1.00  0.00     0.119 C 
HETATM   22 BR1  UNL     1      26.209   5.833  49.020  1.00  0.00    -0.092 Br
ENDBRANCH   8  21
ENDBRANCH   4   5
ENDBRANCH   1   4
TORSDOF 5
ENDMDL
MODEL 2
REMARK VINA RESULT:      -7.3      2.388      5.268
REMARK  5 active torsions:
REMARK  status: ('A' for Active; 'I' for Inactive)
REMARK    1  A    between atoms: C2_2  and  C3_3 
REMARK       I    between atoms: C3_3  and  N1_5 
REMARK    2  A    between atoms: N1_5  and  C4_6 
REMARK    3  A    between atoms: C6_8  and  C7_9 
REMARK    4  A    between atoms: C12_15  and  C13_16 
REMARK    5  A    between atoms: C13_16  and  C14_17 
ROOT
HETATM    1  C14 UNL     1      28.680  -0.537  53.743  1.00  0.00     0.124 C 
HETATM    2  C15 UNL     1      29.033   0.820  54.267  1.00  0.00     0.059 C 
HETATM    3  N2  UNL     1      29.313   1.877  54.691  1.00  0.00    -0.197 NA
ENDROOT
BRANCH   1   4
HETATM    4  C13 UNL     1      27.436  -0.376  52.988  1.00  0.00     0.021 C 
BRANCH   4   5
HETATM    5  C12 UNL     1      26.295   0.383  53.609  1.00  0.00     0.015 C 
HETATM    6  C4  UNL     1      25.452   1.249  52.660  1.00  0.00     0.093 C 
HETATM    7  C5  UNL     1      24.188   0.623  52.147  1.00  0.00     0.060 C 
HETATM    8  C6  UNL     1      22.932   0.541  52.899  1.00  0.00    -0.066 C 
HETATM    9  C8  UNL     1      22.370  -0.060  54.012  1.00  0.00     0.035 C 
HETATM   10  C9  UNL     1      23.003  -1.015  55.007  1.00  0.00     0.055 A 
HETATM   11  C10 UNL     1      24.528  -1.074  55.139  1.00  0.00     0.037 A 
HETATM   12  N3  UNL     1      23.720  -1.859  55.894  1.00  0.00    -0.356 N 
HETATM   13  C11 UNL     1      25.484  -0.320  54.421  1.00  0.00     0.066 C 
HETATM   14  H18 UNL     1      23.561  -2.571  56.607  1.00  0.00     0.166 HD
BRANCH   6  15
HETATM   15  N1  UNL     1      26.155   1.681  51.480  1.00  0.00    -0.352 N 
HETATM   16  C3  UNL     1      25.827   2.968  50.913  1.00  0.00     0.240 C 
HETATM   17  O1  UNL     1      24.952   3.707  51.421  1.00  0.00    -0.269 OA
HETATM   18  H4  UNL     1      26.829   0.955  51.159  1.00  0.00     0.163 HD
BRANCH  16  19
HETATM   19  C2  UNL     1      26.565   3.333  49.742  1.00  0.00     0.064 C 
HETATM   20  C1  UNL     1      26.349   4.537  49.239  1.00  0.00     0.017 C 
ENDBRANCH  16  19
ENDBRANCH   6  15
BRANCH   8  21
HETATM   21  C7  UNL     1      21.804   1.379  52.317  1.00  0.00     0.119 C 
HETATM   22 BR1  UNL     1      22.183   1.499  50.420  1.00  0.00    -0.092 Br
ENDBRANCH   8  21
ENDBRANCH   4   5
ENDBRANCH   1   4
TORSDOF 5
ENDMDL
MODEL 3
REMARK VINA RESULT:      -7.2      3.408      4.978
REMARK  5 active torsions:
REMARK  status: ('A' for Active; 'I' for Inactive)
REMARK    1  A    between atoms: C2_2  and  C3_3 
REMARK       I    between atoms: C3_3  and  N1_5 
REMARK    2  A    between atoms: N1_5  and  C4_6 
REMARK    3  A    between atoms: C6_8  and  C7_9 
REMARK    4  A    between atoms: C12_15  and  C13_16 
REMARK    5  A    between atoms: C13_16  and  C14_17 
ROOT
HETATM    1  C14 UNL     1      27.165   2.481  52.912  1.00  0.00     0.124 C 
HETATM    2  C15 UNL     1      28.338   2.172  53.789  1.00  0.00     0.059 C 
HETATM    3  N2  UNL     1      29.261   1.944  54.476  1.00  0.00    -0.197 NA
ENDROOT
BRANCH   1   4
HETATM    4  C13 UNL     1      27.080   1.391  51.939  1.00  0.00     0.021 C 
BRANCH   4   5
HETATM    5  C12 UNL     1      25.811   0.587  51.849  1.00  0.00     0.015 C 
HETATM    6  C4  UNL     1      25.656  -0.562  52.857  1.00  0.00     0.093 C 
HETATM    7  C5  UNL     1      24.860  -0.253  54.091  1.00  0.00     0.060 C 
HETATM    8  C6  UNL     1      23.396  -0.235  54.158  1.00  0.00    -0.066 C 
HETATM    9  C8  UNL     1      22.295   0.465  53.691  1.00  0.00     0.035 C 
HETATM   10  C9  UNL     1      22.247   1.675  52.778  1.00  0.00     0.055 A 
HETATM   11  C10 UNL     1      23.447   2.001  51.882  1.00  0.00     0.037 A 
HETATM   12  N3  UNL     1      22.332   2.772  51.882  1.00  0.00    -0.356 N 
HETATM   13  C11 UNL     1      24.664   1.290  51.783  1.00  0.00     0.066 C 
HETATM   14  H18 UNL     1      21.784   3.569  51.557  1.00  0.00     0.166 HD
BRANCH   6  15
HETATM   15  N1  UNL     1      26.905  -1.087  53.344  1.00  0.00    -0.352 N 
HETATM   16  C3  UNL     1      27.447  -2.271  52.721  1.00  0.00     0.240 C 
HETATM   17  O1  UNL     1      26.859  -2.844  51.774  1.00  0.00    -0.269 OA
HETATM   18  H4  UNL     1      27.259  -0.524  54.146  1.00  0.00     0.163 HD
BRANCH  16  19
HETATM   19  C2  UNL     1      28.691  -2.736  53.257  1.00  0.00     0.064 C 
HETATM   20  C1  UNL     1      29.638  -1.836  53.460  1.00  0.00     0.017 C 
ENDBRANCH  16  19
ENDBRANCH   6  15
BRANCH   8  21
HETATM   21  C7  UNL     1      22.800  -1.335  55.022  1.00  0.00     0.119 C 
HETATM   22 BR1  UNL     1      21.019  -1.630  54.318  1.00  0.00    -0.092 Br
ENDBRANCH   8  21
ENDBRANCH   4   5
ENDBRANCH   1   4
TORSDOF 5
ENDMDL
MODEL 4
REMARK VINA RESULT:      -7.0      3.081      6.585
REMARK  5 active torsions:
REMARK  status: ('A' for Active; 'I' for Inactive)
REMARK    1  A    between atoms: C2_2  and  C3_3 
REMARK       I    between atoms: C3_3  and  N1_5 
REMARK    2  A    between atoms: N1_5  and  C4_6 
REMARK    3  A    between atoms: C6_8  and  C7_9 
REMARK    4  A    between atoms: C12_15  and  C13_16 
REMARK    5  A    between atoms: C13_16  and  C14_17 
ROOT
HETATM    1  C14 UNL     1      26.033   3.724  49.525  1.00  0.00     0.124 C 
HETATM    2  C15 UNL     1      27.265   4.402  49.011  1.00  0.00     0.059 C 
HETATM    3  N2  UNL     1      28.223   4.934  48.595  1.00  0.00    -0.197 NA
ENDROOT
BRANCH   1   4
HETATM    4  C13 UNL     1      26.490   2.561  50.286  1.00  0.00     0.021 C 
BRANCH   4   5
HETATM    5  C12 UNL     1      26.265   2.522  51.773  1.00  0.00     0.015 C 
HETATM    6  C4  UNL     1      25.068   1.694  52.263  1.00  0.00     0.093 C 
HETATM    7  C5  UNL     1      25.376   0.294  52.710  1.00  0.00     0.060 C 
HETATM    8  C6  UNL     1      25.929  -0.061  54.020  1.00  0.00    -0.066 C 
HETATM    9  C8  UNL     1      27.076   0.067  54.786  1.00  0.00     0.035 C 
HETATM   10  C9  UNL     1      28.384   0.755  54.444  1.00  0.00     0.055 A 
HETATM   11  C10 UNL     1      28.422   1.807  53.331  1.00  0.00     0.037 A 
HETATM   12  N3  UNL     1      29.536   1.470  54.025  1.00  0.00    -0.356 N 
HETATM   13  C11 UNL     1      27.344   2.252  52.531  1.00  0.00     0.066 C 
HETATM   14  H18 UNL     1      30.531   1.554  54.234  1.00  0.00     0.166 HD
BRANCH   6  15
HETATM   15  N1  UNL     1      24.018   1.548  51.289  1.00  0.00    -0.352 N 
HETATM   16  C3  UNL     1      22.891   2.449  51.348  1.00  0.00     0.240 C 
HETATM   17  O1  UNL     1      22.811   3.345  52.220  1.00  0.00    -0.269 OA
HETATM   18  H4  UNL     1      24.209   0.748  50.649  1.00  0.00     0.163 HD
BRANCH  16  19
HETATM   19  C2  UNL     1      21.885   2.246  50.349  1.00  0.00     0.064 C 
HETATM   20  C1  UNL     1      22.284   2.186  49.090  1.00  0.00     0.017 C 
ENDBRANCH  16  19
ENDBRANCH   6  15
BRANCH   8  21
HETATM   21  C7  UNL     1      24.974  -0.846  54.906  1.00  0.00     0.119 C 
HETATM   22 BR1  UNL     1      23.252  -0.735  54.023  1.00  0.00    -0.092 Br
ENDBRANCH   8  21
ENDBRANCH   4   5
ENDBRANCH   1   4
TORSDOF 5
ENDMDL
MODEL 5
REMARK VINA RESULT:      -6.9      2.909      5.054
REMARK  5 active torsions:
REMARK  status: ('A' for Active; 'I' for Inactive)
REMARK    1  A    between atoms: C2_2  and  C3_3 
REMARK       I    between atoms: C3_3  and  N1_5 
REMARK    2  A    between atoms: N1_5  and  C4_6 
REMARK    3  A    between atoms: C6_8  and  C7_9 
REMARK    4  A    between atoms: C12_15  and  C13_16 
REMARK    5  A    between atoms: C13_16  and  C14_17 
ROOT
HETATM    1  C14 UNL     1      26.103   1.546  53.599  1.00  0.00     0.124 C 
HETATM    2  C15 UNL     1      26.945   0.573  54.364  1.00  0.00     0.059 C 
HETATM    3  N2  UNL     1      27.617  -0.182  54.957  1.00  0.00    -0.197 NA
ENDROOT
BRANCH   1   4
HETATM    4  C13 UNL     1      24.996   0.775  53.031  1.00  0.00     0.021 C 
BRANCH   4   5
HETATM    5  C12 UNL     1      23.615   1.372  53.022  1.00  0.00     0.015 C 
HETATM    6  C4  UNL     1      23.134   1.963  51.688  1.00  0.00     0.093 C 
HETATM    7  C5  UNL     1      22.281   1.066  50.839  1.00  0.00     0.060 C 
HETATM    8  C6  UNL     1      20.849   0.833  51.048  1.00  0.00    -0.066 C 
HETATM    9  C8  UNL     1      19.961   0.258  51.941  1.00  0.00     0.035 C 
HETATM   10  C9  UNL     1      20.245  -0.454  53.250  1.00  0.00     0.055 A 
HETATM   11  C10 UNL     1      21.575  -0.218  53.971  1.00  0.00     0.037 A 
HETATM   12  N3  UNL     1      20.635  -1.055  54.475  1.00  0.00    -0.356 N 
HETATM   13  C11 UNL     1      22.638   0.620  53.563  1.00  0.00     0.066 C 
HETATM   14  H18 UNL     1      20.288  -1.705  55.180  1.00  0.00     0.166 HD
BRANCH   6  15
HETATM   15  N1  UNL     1      24.199   2.391  50.819  1.00  0.00    -0.352 N 
HETATM   16  C3  UNL     1      24.547   3.793  50.792  1.00  0.00     0.240 C 
HETATM   17  O1  UNL     1      23.948   4.633  51.502  1.00  0.00    -0.269 OA
HETATM   18  H4  UNL     1      24.582   1.591  50.274  1.00  0.00     0.163 HD
BRANCH  16  19
HETATM   19  C2  UNL     1      25.614   4.147  49.905  1.00  0.00     0.064 C 
HETATM   20  C1  UNL     1      26.510   3.213  49.630  1.00  0.00     0.017 C 
ENDBRANCH  16  19
ENDBRANCH   6  15
BRANCH   8  21
HETATM   21  C7  UNL     1      19.963   1.383  49.941  1.00  0.00     0.119 C 
HETATM   22 BR1  UNL     1      21.168   1.790  48.478  1.00  0.00    -0.092 Br
ENDBRANCH   8  21
ENDBRANCH   4   5
ENDBRANCH   1   4
TORSDOF 5
ENDMDL
MODEL 6
REMARK VINA RESULT:      -6.8      2.752      4.709
REMARK  5 active torsions:
REMARK  status: ('A' for Active; 'I' for Inactive)
REMARK    1  A    between atoms: C2_2  and  C3_3 
REMARK       I    between atoms: C3_3  and  N1_5 
REMARK    2  A    between atoms: N1_5  and  C4_6 
REMARK    3  A    between atoms: C6_8  and  C7_9 
REMARK    4  A    between atoms: C12_15  and  C13_16 
REMARK    5  A    between atoms: C13_16  and  C14_17 
ROOT
HETATM    1  C14 UNL     1      27.836   0.967  53.837  1.00  0.00     0.124 C 
HETATM    2  C15 UNL     1      28.008  -0.504  53.618  1.00  0.00     0.059 C 
HETATM    3  N2  UNL     1      28.155  -1.653  53.438  1.00  0.00    -0.197 NA
ENDROOT
BRANCH   1   4
HETATM    4  C13 UNL     1      26.408   1.244  53.669  1.00  0.00     0.021 C 
BRANCH   4   5
HETATM    5  C12 UNL     1      25.802   1.159  52.295  1.00  0.00     0.015 C 
HETATM    6  C4  UNL     1      24.271   1.060  52.227  1.00  0.00     0.093 C 
HETATM    7  C5  UNL     1      23.538   2.350  51.998  1.00  0.00     0.060 C 
HETATM    8  C6  UNL     1      23.375   2.997  50.692  1.00  0.00    -0.066 C 
HETATM    9  C8  UNL     1      24.099   3.631  49.696  1.00  0.00     0.035 C 
HETATM   10  C9  UNL     1      25.588   3.911  49.625  1.00  0.00     0.055 A 
HETATM   11  C10 UNL     1      26.557   3.096  50.488  1.00  0.00     0.037 A 
HETATM   12  N3  UNL     1      26.997   4.071  49.655  1.00  0.00    -0.356 N 
HETATM   13  C11 UNL     1      26.238   2.060  51.394  1.00  0.00     0.066 C 
HETATM   14  H18 UNL     1      27.736   4.634  49.233  1.00  0.00     0.166 HD
BRANCH   6  15
HETATM   15  N1  UNL     1      23.667   0.498  53.407  1.00  0.00    -0.352 N 
HETATM   16  C3  UNL     1      22.420  -0.218  53.270  1.00  0.00     0.240 C 
HETATM   17  O1  UNL     1      21.860  -0.358  52.158  1.00  0.00    -0.269 OA
HETATM   18  H4  UNL     1      24.229   0.716  54.256  1.00  0.00     0.163 HD
BRANCH  16  19
HETATM   19  C2  UNL     1      21.877  -0.751  54.483  1.00  0.00     0.064 C 
HETATM   20  C1  UNL     1      22.702  -1.412  55.278  1.00  0.00     0.017 C 
ENDBRANCH  16  19
ENDBRANCH   6  15
BRANCH   8  21
HETATM   21  C7  UNL     1      21.941   3.023  50.187  1.00  0.00     0.119 C 
HETATM   22 BR1  UNL     1      21.781   1.479  49.027  1.00  0.00    -0.092 Br
ENDBRANCH   8  21
ENDBRANCH   4   5
ENDBRANCH   1   4
TORSDOF 5
ENDMDL
MODEL 7
REMARK VINA RESULT:      -6.7      2.716      5.196
REMARK  5 active torsions:
REMARK  status: ('A' for Active; 'I' for Inactive)
REMARK    1  A    between atoms: C2_2  and  C3_3 
REMARK       I    between atoms: C3_3  and  N1_5 
REMARK    2  A    between atoms: N1_5  and  C4_6 
REMARK    3  A    between atoms: C6_8  and  C7_9 
REMARK    4  A    between atoms: C12_15  and  C13_16 
REMARK    5  A    between atoms: C13_16  and  C14_17 
ROOT
HETATM    1  C14 UNL     1      21.568   1.283  51.652  1.00  0.00     0.124 C 
HETATM    2  C15 UNL     1      20.402   2.125  52.067  1.00  0.00     0.059 C 
HETATM    3  N2  UNL     1      19.485   2.787  52.377  1.00  0.00    -0.197 NA
ENDROOT
BRANCH   1   4
HETATM    4  C13 UNL     1      22.685   1.675  52.512  1.00  0.00     0.021 C 
BRANCH   4   5
HETATM    5  C12 UNL     1      23.979   0.912  52.427  1.00  0.00     0.015 C 
HETATM    6  C4  UNL     1      25.224   1.717  52.025  1.00  0.00     0.093 C 
HETATM    7  C5  UNL     1      26.086   2.203  53.153  1.00  0.00     0.060 C 
HETATM    8  C6  UNL     1      27.069   1.381  53.867  1.00  0.00    -0.066 C 
HETATM    9  C8  UNL     1      27.161   0.295  54.721  1.00  0.00     0.035 C 
HETATM   10  C9  UNL     1      26.053  -0.562  55.304  1.00  0.00     0.055 A 
HETATM   11  C10 UNL     1      24.677  -0.587  54.631  1.00  0.00     0.037 A 
HETATM   12  N3  UNL     1      24.934  -1.315  55.745  1.00  0.00    -0.356 N 
HETATM   13  C11 UNL     1      24.272   0.118  53.474  1.00  0.00     0.066 C 
HETATM   14  H18 UNL     1      24.663  -1.967  56.482  1.00  0.00     0.166 HD
BRANCH   6  15
HETATM   15  N1  UNL     1      24.935   2.894  51.248  1.00  0.00    -0.352 N 
HETATM   16  C3  UNL     1      25.887   3.312  50.246  1.00  0.00     0.240 C 
HETATM   17  O1  UNL     1      26.948   2.677  50.042  1.00  0.00    -0.269 OA
HETATM   18  H4  UNL     1      24.036   3.329  51.547  1.00  0.00     0.163 HD
BRANCH  16  19
HETATM   19  C2  UNL     1      25.535   4.490  49.513  1.00  0.00     0.064 C 
HETATM   20  C1  UNL     1      26.520   5.291  49.143  1.00  0.00     0.017 C 
ENDBRANCH  16  19
ENDBRANCH   6  15
BRANCH   8  21
HETATM   21  C7  UNL     1      28.512   1.806  53.645  1.00  0.00     0.119 C 
HETATM   22 BR1  UNL     1      29.550   0.175  53.782  1.00  0.00    -0.092 Br
ENDBRANCH   8  21
ENDBRANCH   4   5
ENDBRANCH   1   4
TORSDOF 5
ENDMDL
MODEL 8
REMARK VINA RESULT:      -6.7      1.670      2.044
REMARK  5 active torsions:
REMARK  status: ('A' for Active; 'I' for Inactive)
REMARK    1  A    between atoms: C2_2  and  C3_3 
REMARK       I    between atoms: C3_3  and  N1_5 
REMARK    2  A    between atoms: N1_5  and  C4_6 
REMARK    3  A    between atoms: C6_8  and  C7_9 
REMARK    4  A    between atoms: C12_15  and  C13_16 
REMARK    5  A    between atoms: C13_16  and  C14_17 
ROOT
HETATM    1  C14 UNL     1      21.476  -0.351  53.355  1.00  0.00     0.124 C 
HETATM    2  C15 UNL     1      21.959  -1.181  54.504  1.00  0.00     0.059 C 
HETATM    3  N2  UNL     1      22.326  -1.823  55.413  1.00  0.00    -0.197 NA
ENDROOT
BRANCH   1   4
HETATM    4  C13 UNL     1      22.672   0.168  52.691  1.00  0.00     0.021 C 
BRANCH   4   5
HETATM    5  C12 UNL     1      23.025   1.622  52.849  1.00  0.00     0.015 C 
HETATM    6  C4  UNL     1      24.410   2.049  52.341  1.00  0.00     0.093 C 
HETATM    7  C5  UNL     1      24.453   2.636  50.960  1.00  0.00     0.060 C 
HETATM    8  C6  UNL     1      24.103   4.020  50.630  1.00  0.00    -0.066 C 
HETATM    9  C8  UNL     1      23.025   4.889  50.592  1.00  0.00     0.035 C 
HETATM   10  C9  UNL     1      21.574   4.631  50.954  1.00  0.00     0.055 A 
HETATM   11  C10 UNL     1      21.215   3.448  51.860  1.00  0.00     0.037 A 
HETATM   12  N3  UNL     1      20.263   4.280  51.368  1.00  0.00    -0.356 N 
HETATM   13  C11 UNL     1      22.099   2.508  52.437  1.00  0.00     0.066 C 
HETATM   14  H18 UNL     1      19.295   4.584  51.264  1.00  0.00     0.166 HD
BRANCH   6  15
HETATM   15  N1  UNL     1      25.381   0.986  52.321  1.00  0.00    -0.352 N 
HETATM   16  C3  UNL     1      26.387   0.949  53.356  1.00  0.00     0.240 C 
HETATM   17  O1  UNL     1      26.432   1.815  54.261  1.00  0.00    -0.269 OA
HETATM   18  H4  UNL     1      25.235   0.362  51.500  1.00  0.00     0.163 HD
BRANCH  16  19
HETATM   19  C2  UNL     1      27.318  -0.135  53.273  1.00  0.00     0.064 C 
HETATM   20  C1  UNL     1      26.923  -1.228  52.642  1.00  0.00     0.017 C 
ENDBRANCH  16  19
ENDBRANCH   6  15
BRANCH   8  21
HETATM   21  C7  UNL     1      25.277   4.861  50.154  1.00  0.00     0.119 C 
HETATM   22 BR1  UNL     1      26.624   3.586  49.593  1.00  0.00    -0.092 Br
ENDBRANCH   8  21
ENDBRANCH   4   5
ENDBRANCH   1   4
TORSDOF 5
ENDMDL
MODEL 9
REMARK VINA RESULT:      -6.6      3.291      6.827
REMARK  5 active torsions:
REMARK  status: ('A' for Active; 'I' for Inactive)
REMARK    1  A    between atoms: C2_2  and  C3_3 
REMARK       I    between atoms: C3_3  and  N1_5 
REMARK    2  A    between atoms: N1_5  and  C4_6 
REMARK    3  A    between atoms: C6_8  and  C7_9 
REMARK    4  A    between atoms: C12_15  and  C13_16 
REMARK    5  A    between atoms: C13_16  and  C14_17 
ROOT
HETATM    1  C14 UNL     1      25.856   4.624  49.525  1.00  0.00     0.124 C 
HETATM    2  C15 UNL     1      27.235   4.740  48.952  1.00  0.00     0.059 C 
HETATM    3  N2  UNL     1      28.309   4.839  48.493  1.00  0.00    -0.197 NA
ENDROOT
BRANCH   1   4
HETATM    4  C13 UNL     1      25.669   3.212  49.865  1.00  0.00     0.021 C 
BRANCH   4   5
HETATM    5  C12 UNL     1      25.413   2.831  51.297  1.00  0.00     0.015 C 
HETATM    6  C4  UNL     1      23.944   2.800  51.745  1.00  0.00     0.093 C 
HETATM    7  C5  UNL     1      23.277   1.455  51.721  1.00  0.00     0.060 C 
HETATM    8  C6  UNL     1      23.429   0.430  52.758  1.00  0.00    -0.066 C 
HETATM    9  C8  UNL     1      24.366  -0.428  53.309  1.00  0.00     0.035 C 
HETATM   10  C9  UNL     1      25.826  -0.615  52.941  1.00  0.00     0.055 A 
HETATM   11  C10 UNL     1      26.566   0.489  52.178  1.00  0.00     0.037 A 
HETATM   12  N3  UNL     1      27.186  -0.662  52.538  1.00  0.00    -0.356 N 
HETATM   13  C11 UNL     1      26.046   1.730  51.743  1.00  0.00     0.066 C 
HETATM   14  H18 UNL     1      28.000  -1.275  52.578  1.00  0.00     0.166 HD
BRANCH   6  15
HETATM   15  N1  UNL     1      23.078   3.654  50.975  1.00  0.00    -0.352 N 
HETATM   16  C3  UNL     1      22.500   4.811  51.618  1.00  0.00     0.240 C 
HETATM   17  O1  UNL     1      22.735   5.083  52.819  1.00  0.00    -0.269 OA
HETATM   18  H4  UNL     1      22.956   3.290  50.007  1.00  0.00     0.163 HD
BRANCH  16  19
HETATM   19  C2  UNL     1      21.650   5.616  50.794  1.00  0.00     0.064 C 
HETATM   20  C1  UNL     1      21.873   6.919  50.782  1.00  0.00     0.017 C 
ENDBRANCH  16  19
ENDBRANCH   6  15
BRANCH   8  21
HETATM   21  C7  UNL     1      22.159   0.152  53.547  1.00  0.00     0.119 C 
HETATM   22 BR1  UNL     1      22.670  -1.139  54.899  1.00  0.00    -0.092 Br
ENDBRANCH   8  21
ENDBRANCH   4   5
ENDBRANCH   1   4
TORSDOF 5
ENDMDL
