MODEL 1
REMARK VINA RESULT:      -6.9      0.000      0.000
REMARK  5 active torsions:
REMARK  status: ('A' for Active; 'I' for Inactive)
REMARK    1  A    between atoms: O1_2  and  C2_3 
REMARK    2  A    between atoms: C6_9  and  S1_10 
REMARK    3  A    between atoms: S1_10  and  C7_11 
REMARK    4  A    between atoms: C7_11  and  C8_12 
REMARK    5  A    between atoms: C12_18  and  O2_19 
ROOT
HETATM    1  C2  UNL     1      27.530   0.247  53.750  1.00  0.00     0.103 A 
HETATM    2  C3  UNL     1      27.792   1.131  52.725  1.00  0.00     0.072 A 
HETATM    3  C4  UNL     1      26.824   1.887  52.102  1.00  0.00     0.074 A 
HETATM    4  N1  UNL     1      27.104   2.742  51.104  1.00  0.00    -0.241 NA
HETATM    5  C5  UNL     1      26.160   3.481  50.494  1.00  0.00     0.234 A 
HETATM    6  N2  UNL     1      24.869   3.345  50.919  1.00  0.00    -0.234 NA
HETATM    7  C6  UNL     1      24.581   2.502  51.904  1.00  0.00     0.107 A 
HETATM    8  C10 UNL     1      25.529   1.730  52.548  1.00  0.00     0.031 A 
HETATM    9  C11 UNL     1      25.183   0.866  53.569  1.00  0.00     0.056 A 
HETATM   10  C12 UNL     1      26.204   0.120  54.170  1.00  0.00     0.102 A 
ENDROOT
BRANCH   7  11
HETATM   11  S1  UNL     1      22.852   2.402  52.381  1.00  0.00    -0.105 SA
BRANCH  11  12
HETATM   12  C7  UNL     1      22.081   1.211  51.220  1.00  0.00     0.110 C 
BRANCH  12  13
HETATM   13  C8  UNL     1      21.803  -0.034  51.978  1.00  0.00     0.015 C 
HETATM   14  C9  UNL     1      21.435  -0.089  53.227  1.00  0.00     0.077 A 
HETATM   15 CL1  UNL     1      20.972   0.307  54.862  1.00  0.00    -0.099 Cl
HETATM   16 BR1  UNL     1      21.078  -1.678  54.195  1.00  0.00    -0.015 Br
ENDBRANCH  12  13
ENDBRANCH  11  12
ENDBRANCH   7  11
BRANCH  10  17
HETATM   17  O2  UNL     1      25.865  -0.750  55.197  1.00  0.00    -0.353 OA
HETATM   18  C13 UNL     1      24.507  -1.141  55.294  1.00  0.00     0.210 C 
ENDBRANCH  10  17
BRANCH   1  19
HETATM   19  O1  UNL     1      28.449  -0.529  54.406  1.00  0.00    -0.353 OA
HETATM   20  C1  UNL     1      29.674  -0.952  53.868  1.00  0.00     0.210 C 
ENDBRANCH   1  19
TORSDOF 5
ENDMDL
MODEL 2
REMARK VINA RESULT:      -6.7      3.408      4.458
REMARK  5 active torsions:
REMARK  status: ('A' for Active; 'I' for Inactive)
REMARK    1  A    between atoms: O1_2  and  C2_3 
REMARK    2  A    between atoms: C6_9  and  S1_10 
REMARK    3  A    between atoms: S1_10  and  C7_11 
REMARK    4  A    between atoms: C7_11  and  C8_12 
REMARK    5  A    between atoms: C12_18  and  O2_19 
ROOT
HETATM    1  C2  UNL     1      26.555   0.139  54.169  1.00  0.00     0.103 A 
HETATM    2  C3  UNL     1      25.393  -0.520  53.825  1.00  0.00     0.072 A 
HETATM    3  C4  UNL     1      24.284   0.109  53.308  1.00  0.00     0.074 A 
HETATM    4  N1  UNL     1      23.162  -0.554  52.981  1.00  0.00    -0.241 NA
HETATM    5  C5  UNL     1      22.077   0.059  52.474  1.00  0.00     0.234 A 
HETATM    6  N2  UNL     1      22.134   1.411  52.293  1.00  0.00    -0.234 NA
HETATM    7  C6  UNL     1      23.237   2.077  52.614  1.00  0.00     0.107 A 
HETATM    8  C10 UNL     1      24.366   1.475  53.135  1.00  0.00     0.031 A 
HETATM    9  C11 UNL     1      25.493   2.208  53.455  1.00  0.00     0.056 A 
HETATM   10  C12 UNL     1      26.594   1.521  53.978  1.00  0.00     0.102 A 
ENDROOT
BRANCH   7  11
HETATM   11  S1  UNL     1      23.201   3.852  52.335  1.00  0.00    -0.105 SA
BRANCH  11  12
HETATM   12  C7  UNL     1      22.902   4.069  50.540  1.00  0.00     0.110 C 
BRANCH  12  13
HETATM   13  C8  UNL     1      24.163   4.565  49.935  1.00  0.00     0.015 C 
HETATM   14  C9  UNL     1      25.291   3.914  49.905  1.00  0.00     0.077 A 
HETATM   15 CL1  UNL     1      26.546   2.716  50.092  1.00  0.00    -0.099 Cl
HETATM   16 BR1  UNL     1      26.901   4.545  49.131  1.00  0.00    -0.015 Br
ENDBRANCH  12  13
ENDBRANCH  11  12
ENDBRANCH   7  11
BRANCH  10  17
HETATM   17  O2  UNL     1      27.731   2.251  54.301  1.00  0.00    -0.353 OA
HETATM   18  C13 UNL     1      28.614   2.577  53.243  1.00  0.00     0.210 C 
ENDBRANCH  10  17
BRANCH   1  19
HETATM   19  O1  UNL     1      27.688  -0.432  54.687  1.00  0.00    -0.353 OA
HETATM   20  C1  UNL     1      28.754  -0.938  53.926  1.00  0.00     0.210 C 
ENDBRANCH   1  19
TORSDOF 5
ENDMDL
MODEL 3
REMARK VINA RESULT:      -6.7      4.326      6.853
REMARK  5 active torsions:
REMARK  status: ('A' for Active; 'I' for Inactive)
REMARK    1  A    between atoms: O1_2  and  C2_3 
REMARK    2  A    between atoms: C6_9  and  S1_10 
REMARK    3  A    between atoms: S1_10  and  C7_11 
REMARK    4  A    between atoms: C7_11  and  C8_12 
REMARK    5  A    between atoms: C12_18  and  O2_19 
ROOT
HETATM    1  C2  UNL     1      20.092  -0.511  53.125  1.00  0.00     0.103 A 
HETATM    2  C3  UNL     1      20.732  -1.076  54.208  1.00  0.00     0.072 A 
HETATM    3  C4  UNL     1      22.090  -0.989  54.423  1.00  0.00     0.074 A 
HETATM    4  N1  UNL     1      22.691  -1.547  55.487  1.00  0.00    -0.241 NA
HETATM    5  C5  UNL     1      24.018  -1.462  55.699  1.00  0.00     0.234 A 
HETATM    6  N2  UNL     1      24.768  -0.778  54.786  1.00  0.00    -0.234 NA
HETATM    7  C6  UNL     1      24.183  -0.223  53.730  1.00  0.00     0.107 A 
HETATM    8  C10 UNL     1      22.825  -0.293  53.487  1.00  0.00     0.031 A 
HETATM    9  C11 UNL     1      22.260   0.301  52.374  1.00  0.00     0.056 A 
HETATM   10  C12 UNL     1      20.876   0.183  52.201  1.00  0.00     0.102 A 
ENDROOT
BRANCH   7  11
HETATM   11  S1  UNL     1      25.266   0.652  52.594  1.00  0.00    -0.105 SA
BRANCH  11  12
HETATM   12  C7  UNL     1      26.195   1.855  53.616  1.00  0.00     0.110 C 
BRANCH  12  13
HETATM   13  C8  UNL     1      27.599   1.380  53.698  1.00  0.00     0.015 C 
HETATM   14  C9  UNL     1      27.996   0.161  53.465  1.00  0.00     0.077 A 
HETATM   15 CL1  UNL     1      28.066  -1.539  53.073  1.00  0.00    -0.099 Cl
HETATM   16 BR1  UNL     1      29.787  -0.448  53.568  1.00  0.00    -0.015 Br
ENDBRANCH  12  13
ENDBRANCH  11  12
ENDBRANCH   7  11
BRANCH  10  17
HETATM   17  O2  UNL     1      20.300   0.778  51.086  1.00  0.00    -0.353 OA
HETATM   18  C13 UNL     1      21.177   1.343  50.128  1.00  0.00     0.210 C 
ENDBRANCH  10  17
BRANCH   1  19
HETATM   19  O1  UNL     1      18.749  -0.565  52.859  1.00  0.00    -0.353 OA
HETATM   20  C1  UNL     1      17.867  -1.532  53.366  1.00  0.00     0.210 C 
ENDBRANCH   1  19
TORSDOF 5
ENDMDL
MODEL 4
REMARK VINA RESULT:      -6.4      3.500      4.602
REMARK  5 active torsions:
REMARK  status: ('A' for Active; 'I' for Inactive)
REMARK    1  A    between atoms: O1_2  and  C2_3 
REMARK    2  A    between atoms: C6_9  and  S1_10 
REMARK    3  A    between atoms: S1_10  and  C7_11 
REMARK    4  A    between atoms: C7_11  and  C8_12 
REMARK    5  A    between atoms: C12_18  and  O2_19 
ROOT
HETATM    1  C2  UNL     1      26.134  -0.384  53.780  1.00  0.00     0.103 A 
HETATM    2  C3  UNL     1      25.084  -0.873  54.529  1.00  0.00     0.072 A 
HETATM    3  C4  UNL     1      23.762  -0.611  54.251  1.00  0.00     0.074 A 
HETATM    4  N1  UNL     1      22.755  -1.099  54.996  1.00  0.00    -0.241 NA
HETATM    5  C5  UNL     1      21.462  -0.845  54.725  1.00  0.00     0.234 A 
HETATM    6  N2  UNL     1      21.178  -0.058  53.646  1.00  0.00    -0.234 NA
HETATM    7  C6  UNL     1      22.165   0.430  52.903  1.00  0.00     0.107 A 
HETATM    8  C10 UNL     1      23.501   0.186  53.156  1.00  0.00     0.031 A 
HETATM    9  C11 UNL     1      24.496   0.715  52.356  1.00  0.00     0.056 A 
HETATM   10  C12 UNL     1      25.824   0.420  52.681  1.00  0.00     0.102 A 
ENDROOT
BRANCH   7  11
HETATM   11  S1  UNL     1      21.677   1.453  51.509  1.00  0.00    -0.105 SA
BRANCH  11  12
HETATM   12  C7  UNL     1      21.423   3.135  52.188  1.00  0.00     0.110 C 
BRANCH  12  13
HETATM   13  C8  UNL     1      22.501   4.001  51.648  1.00  0.00     0.015 C 
HETATM   14  C9  UNL     1      23.176   3.771  50.558  1.00  0.00     0.077 A 
HETATM   15 CL1  UNL     1      23.803   3.080  49.083  1.00  0.00    -0.099 Cl
HETATM   16 BR1  UNL     1      24.551   4.875  49.866  1.00  0.00    -0.015 Br
ENDBRANCH  12  13
ENDBRANCH  11  12
ENDBRANCH   7  11
BRANCH  10  17
HETATM   17  O2  UNL     1      26.830   0.946  51.880  1.00  0.00    -0.353 OA
HETATM   18  C13 UNL     1      26.770   2.332  51.594  1.00  0.00     0.210 C 
ENDBRANCH  10  17
BRANCH   1  19
HETATM   19  O1  UNL     1      27.466  -0.610  54.008  1.00  0.00    -0.353 OA
HETATM   20  C1  UNL     1      28.271   0.141  54.878  1.00  0.00     0.210 C 
ENDBRANCH   1  19
TORSDOF 5
ENDMDL
MODEL 5
REMARK VINA RESULT:      -6.4      3.436      4.456
REMARK  5 active torsions:
REMARK  status: ('A' for Active; 'I' for Inactive)
REMARK    1  A    between atoms: O1_2  and  C2_3 
REMARK    2  A    between atoms: C6_9  and  S1_10 
REMARK    3  A    between atoms: S1_10  and  C7_11 
REMARK    4  A    between atoms: C7_11  and  C8_12 
REMARK    5  A    between atoms: C12_18  and  O2_19 
ROOT
HETATM    1  C2  UNL     1      26.444  -0.152  53.514  1.00  0.00     0.103 A 
HETATM    2  C3  UNL     1      25.502  -0.761  54.317  1.00  0.00     0.072 A 
HETATM    3  C4  UNL     1      24.146  -0.555  54.193  1.00  0.00     0.074 A 
HETATM    4  N1  UNL     1      23.248  -1.160  54.988  1.00  0.00    -0.241 NA
HETATM    5  C5  UNL     1      21.922  -0.961  54.868  1.00  0.00     0.234 A 
HETATM    6  N2  UNL     1      21.490  -0.106  53.895  1.00  0.00    -0.234 NA
HETATM    7  C6  UNL     1      22.370   0.497  53.105  1.00  0.00     0.107 A 
HETATM    8  C10 UNL     1      23.735   0.312  53.204  1.00  0.00     0.031 A 
HETATM    9  C11 UNL     1      24.615   0.962  52.358  1.00  0.00     0.056 A 
HETATM   10  C12 UNL     1      25.983   0.720  52.525  1.00  0.00     0.102 A 
ENDROOT
BRANCH   7  11
HETATM   11  S1  UNL     1      21.691   1.601  51.860  1.00  0.00    -0.105 SA
BRANCH  11  12
HETATM   12  C7  UNL     1      20.913   0.518  50.603  1.00  0.00     0.110 C 
BRANCH  12  13
HETATM   13  C8  UNL     1      21.063   1.185  49.286  1.00  0.00     0.015 C 
HETATM   14  C9  UNL     1      22.031   1.993  48.957  1.00  0.00     0.077 A 
HETATM   15 CL1  UNL     1      23.468   2.982  48.957  1.00  0.00    -0.099 Cl
HETATM   16 BR1  UNL     1      22.224   2.844  47.275  1.00  0.00    -0.015 Br
ENDBRANCH  12  13
ENDBRANCH  11  12
ENDBRANCH   7  11
BRANCH  10  17
HETATM   17  O2  UNL     1      26.873   1.368  51.679  1.00  0.00    -0.353 OA
HETATM   18  C13 UNL     1      26.427   2.562  51.061  1.00  0.00     0.210 C 
ENDBRANCH  10  17
BRANCH   1  19
HETATM   19  O1  UNL     1      27.802  -0.317  53.589  1.00  0.00    -0.353 OA
HETATM   20  C1  UNL     1      28.607   0.124  54.651  1.00  0.00     0.210 C 
ENDBRANCH   1  19
TORSDOF 5
ENDMDL
MODEL 6
REMARK VINA RESULT:      -6.4      4.419      6.636
REMARK  5 active torsions:
REMARK  status: ('A' for Active; 'I' for Inactive)
REMARK    1  A    between atoms: O1_2  and  C2_3 
REMARK    2  A    between atoms: C6_9  and  S1_10 
REMARK    3  A    between atoms: S1_10  and  C7_11 
REMARK    4  A    between atoms: C7_11  and  C8_12 
REMARK    5  A    between atoms: C12_18  and  O2_19 
ROOT
HETATM    1  C2  UNL     1      20.401  -0.514  53.378  1.00  0.00     0.103 A 
HETATM    2  C3  UNL     1      21.063  -1.021  54.478  1.00  0.00     0.072 A 
HETATM    3  C4  UNL     1      22.432  -0.988  54.626  1.00  0.00     0.074 A 
HETATM    4  N1  UNL     1      23.054  -1.488  55.707  1.00  0.00    -0.241 NA
HETATM    5  C5  UNL     1      24.392  -1.456  55.854  1.00  0.00     0.234 A 
HETATM    6  N2  UNL     1      25.131  -0.889  54.855  1.00  0.00    -0.234 NA
HETATM    7  C6  UNL     1      24.526  -0.393  53.783  1.00  0.00     0.107 A 
HETATM    8  C10 UNL     1      23.156  -0.411  53.604  1.00  0.00     0.031 A 
HETATM    9  C11 UNL     1      22.568   0.118  52.470  1.00  0.00     0.056 A 
HETATM   10  C12 UNL     1      21.174   0.060  52.367  1.00  0.00     0.102 A 
ENDROOT
BRANCH   7  11
HETATM   11  S1  UNL     1      25.595   0.327  52.531  1.00  0.00    -0.105 SA
BRANCH  11  12
HETATM   12  C7  UNL     1      25.723   2.107  52.948  1.00  0.00     0.110 C 
BRANCH  12  13
HETATM   13  C8  UNL     1      25.033   2.867  51.876  1.00  0.00     0.015 C 
HETATM   14  C9  UNL     1      25.582   3.266  50.764  1.00  0.00     0.077 A 
HETATM   15 CL1  UNL     1      26.697   3.590  49.460  1.00  0.00    -0.099 Cl
HETATM   16 BR1  UNL     1      24.703   4.235  49.393  1.00  0.00    -0.015 Br
ENDBRANCH  12  13
ENDBRANCH  11  12
ENDBRANCH   7  11
BRANCH  10  17
HETATM   17  O2  UNL     1      20.576   0.590  51.231  1.00  0.00    -0.353 OA
HETATM   18  C13 UNL     1      20.622   1.997  51.072  1.00  0.00     0.210 C 
ENDBRANCH  10  17
BRANCH   1  19
HETATM   19  O1  UNL     1      19.046  -0.519  53.175  1.00  0.00    -0.353 OA
HETATM   20  C1  UNL     1      18.203  -1.618  53.401  1.00  0.00     0.210 C 
ENDBRANCH   1  19
TORSDOF 5
ENDMDL
MODEL 7
REMARK VINA RESULT:      -6.2      2.994      3.954
REMARK  5 active torsions:
REMARK  status: ('A' for Active; 'I' for Inactive)
REMARK    1  A    between atoms: O1_2  and  C2_3 
REMARK    2  A    between atoms: C6_9  and  S1_10 
REMARK    3  A    between atoms: S1_10  and  C7_11 
REMARK    4  A    between atoms: C7_11  and  C8_12 
REMARK    5  A    between atoms: C12_18  and  O2_19 
ROOT
HETATM    1  C2  UNL     1      26.587   0.157  54.248  1.00  0.00     0.103 A 
HETATM    2  C3  UNL     1      25.464  -0.588  53.954  1.00  0.00     0.072 A 
HETATM    3  C4  UNL     1      24.311  -0.053  53.425  1.00  0.00     0.074 A 
HETATM    4  N1  UNL     1      23.229  -0.800  53.147  1.00  0.00    -0.241 NA
HETATM    5  C5  UNL     1      22.101  -0.279  52.628  1.00  0.00     0.234 A 
HETATM    6  N2  UNL     1      22.072   1.063  52.382  1.00  0.00    -0.234 NA
HETATM    7  C6  UNL     1      23.136   1.810  52.653  1.00  0.00     0.107 A 
HETATM    8  C10 UNL     1      24.307   1.304  53.185  1.00  0.00     0.031 A 
HETATM    9  C11 UNL     1      25.390   2.120  53.452  1.00  0.00     0.056 A 
HETATM   10  C12 UNL     1      26.538   1.528  53.990  1.00  0.00     0.102 A 
ENDROOT
BRANCH   7  11
HETATM   11  S1  UNL     1      22.987   3.564  52.290  1.00  0.00    -0.105 SA
BRANCH  11  12
HETATM   12  C7  UNL     1      23.641   3.779  50.592  1.00  0.00     0.110 C 
BRANCH  12  13
HETATM   13  C8  UNL     1      22.485   3.752  49.662  1.00  0.00     0.015 C 
HETATM   14  C9  UNL     1      21.917   2.675  49.197  1.00  0.00     0.077 A 
HETATM   15 CL1  UNL     1      21.488   1.023  48.838  1.00  0.00    -0.099 Cl
HETATM   16 BR1  UNL     1      20.440   2.639  48.011  1.00  0.00    -0.015 Br
ENDBRANCH  12  13
ENDBRANCH  11  12
ENDBRANCH   7  11
BRANCH  10  17
HETATM   17  O2  UNL     1      27.632   2.341  54.260  1.00  0.00    -0.353 OA
HETATM   18  C13 UNL     1      28.562   2.545  53.212  1.00  0.00     0.210 C 
ENDBRANCH  10  17
BRANCH   1  19
HETATM   19  O1  UNL     1      27.759  -0.318  54.775  1.00  0.00    -0.353 OA
HETATM   20  C1  UNL     1      28.808  -0.877  54.028  1.00  0.00     0.210 C 
ENDBRANCH   1  19
TORSDOF 5
ENDMDL
MODEL 8
REMARK VINA RESULT:      -6.2      3.036      4.093
REMARK  5 active torsions:
REMARK  status: ('A' for Active; 'I' for Inactive)
REMARK    1  A    between atoms: O1_2  and  C2_3 
REMARK    2  A    between atoms: C6_9  and  S1_10 
REMARK    3  A    between atoms: S1_10  and  C7_11 
REMARK    4  A    between atoms: C7_11  and  C8_12 
REMARK    5  A    between atoms: C12_18  and  O2_19 
ROOT
HETATM    1  C2  UNL     1      26.204  -0.375  53.803  1.00  0.00     0.103 A 
HETATM    2  C3  UNL     1      25.148  -0.884  54.530  1.00  0.00     0.072 A 
HETATM    3  C4  UNL     1      23.830  -0.581  54.275  1.00  0.00     0.074 A 
HETATM    4  N1  UNL     1      22.817  -1.090  54.997  1.00  0.00    -0.241 NA
HETATM    5  C5  UNL     1      21.528  -0.796  54.749  1.00  0.00     0.234 A 
HETATM    6  N2  UNL     1      21.255   0.056  53.718  1.00  0.00    -0.234 NA
HETATM    7  C6  UNL     1      22.247   0.566  52.998  1.00  0.00     0.107 A 
HETATM    8  C10 UNL     1      23.580   0.282  53.229  1.00  0.00     0.031 A 
HETATM    9  C11 UNL     1      24.581   0.836  52.453  1.00  0.00     0.056 A 
HETATM   10  C12 UNL     1      25.905   0.496  52.754  1.00  0.00     0.102 A 
ENDROOT
BRANCH   7  11
HETATM   11  S1  UNL     1      21.773   1.676  51.667  1.00  0.00    -0.105 SA
BRANCH  11  12
HETATM   12  C7  UNL     1      20.665   2.921  52.426  1.00  0.00     0.110 C 
BRANCH  12  13
HETATM   13  C8  UNL     1      19.304   2.701  51.876  1.00  0.00     0.015 C 
HETATM   14  C9  UNL     1      18.785   1.539  51.596  1.00  0.00     0.077 A 
HETATM   15 CL1  UNL     1      18.509  -0.170  51.375  1.00  0.00    -0.099 Cl
HETATM   16 BR1  UNL     1      17.047   1.255  50.896  1.00  0.00    -0.015 Br
ENDBRANCH  12  13
ENDBRANCH  11  12
ENDBRANCH   7  11
BRANCH  10  17
HETATM   17  O2  UNL     1      26.917   1.048  51.978  1.00  0.00    -0.353 OA
HETATM   18  C13 UNL     1      26.595   2.196  51.215  1.00  0.00     0.210 C 
ENDBRANCH  10  17
BRANCH   1  19
HETATM   19  O1  UNL     1      27.532  -0.639  54.010  1.00  0.00    -0.353 OA
HETATM   20  C1  UNL     1      28.367   0.073  54.887  1.00  0.00     0.210 C 
ENDBRANCH   1  19
TORSDOF 5
ENDMDL
MODEL 9
REMARK VINA RESULT:      -6.1      2.252      2.421
REMARK  5 active torsions:
REMARK  status: ('A' for Active; 'I' for Inactive)
REMARK    1  A    between atoms: O1_2  and  C2_3 
REMARK    2  A    between atoms: C6_9  and  S1_10 
REMARK    3  A    between atoms: S1_10  and  C7_11 
REMARK    4  A    between atoms: C7_11  and  C8_12 
REMARK    5  A    between atoms: C12_18  and  O2_19 
ROOT
HETATM    1  C2  UNL     1      27.344  -0.092  53.607  1.00  0.00     0.103 A 
HETATM    2  C3  UNL     1      27.584   0.849  52.627  1.00  0.00     0.072 A 
HETATM    3  C4  UNL     1      26.603   1.640  52.072  1.00  0.00     0.074 A 
HETATM    4  N1  UNL     1      26.862   2.550  51.118  1.00  0.00    -0.241 NA
HETATM    5  C5  UNL     1      25.905   3.324  50.574  1.00  0.00     0.234 A 
HETATM    6  N2  UNL     1      24.624   3.165  51.021  1.00  0.00    -0.234 NA
HETATM    7  C6  UNL     1      24.358   2.268  51.963  1.00  0.00     0.107 A 
HETATM    8  C10 UNL     1      25.319   1.460  52.540  1.00  0.00     0.031 A 
HETATM    9  C11 UNL     1      24.995   0.539  53.518  1.00  0.00     0.056 A 
HETATM   10  C12 UNL     1      26.028  -0.241  54.050  1.00  0.00     0.102 A 
ENDROOT
BRANCH   7  11
HETATM   11  S1  UNL     1      22.640   2.143  52.475  1.00  0.00    -0.105 SA
BRANCH  11  12
HETATM   12  C7  UNL     1      21.989   0.628  51.676  1.00  0.00     0.110 C 
BRANCH  12  13
HETATM   13  C8  UNL     1      21.724   0.954  50.252  1.00  0.00     0.015 C 
HETATM   14  C9  UNL     1      21.255   2.088  49.815  1.00  0.00     0.077 A 
HETATM   15 CL1  UNL     1      20.633   3.714  49.689  1.00  0.00    -0.099 Cl
HETATM   16 BR1  UNL     1      20.916   2.506  47.998  1.00  0.00    -0.015 Br
ENDBRANCH  12  13
ENDBRANCH  11  12
ENDBRANCH   7  11
BRANCH  10  17
HETATM   17  O2  UNL     1      25.711  -1.168  55.035  1.00  0.00    -0.353 OA
HETATM   18  C13 UNL     1      24.364  -1.218  55.468  1.00  0.00     0.210 C 
ENDBRANCH  10  17
BRANCH   1  19
HETATM   19  O1  UNL     1      28.276  -0.905  54.195  1.00  0.00    -0.353 OA
HETATM   20  C1  UNL     1      29.606  -1.044  53.768  1.00  0.00     0.210 C 
ENDBRANCH   1  19
TORSDOF 5
ENDMDL
