MODEL 1
REMARK VINA RESULT:      -9.0      0.000      0.000
REMARK  3 active torsions:
REMARK  status: ('A' for Active; 'I' for Inactive)
REMARK    1  A    between atoms: C4_4  and  C5_5 
REMARK    2  A    between atoms: C10_12  and  N2_13 
REMARK    3  A    between atoms: N2_13  and  C11_14 
ROOT
HETATM    1  C1  UNL     1      22.381   2.549  47.576  1.00  0.00     0.017 C 
HETATM    2  C2  UNL     1      22.189   2.100  48.666  1.00  0.00    -0.090 C 
HETATM    3  C3  UNL     1      21.950   1.537  49.969  1.00  0.00     0.060 C 
HETATM    4  C4  UNL     1      21.130   0.568  50.296  1.00  0.00    -0.004 C 
ENDROOT
BRANCH   4   5
HETATM    5  C5  UNL     1      21.008   0.106  51.704  1.00  0.00     0.025 A 
HETATM    6  C6  UNL     1      21.951  -0.305  52.515  1.00  0.00     0.043 A 
HETATM    7  C7  UNL     1      20.693  -0.414  53.329  1.00  0.00     0.062 A 
HETATM    8  C10 UNL     1      22.903  -0.796  53.511  1.00  0.00     0.188 A 
HETATM    9  C8  UNL     1      19.771   0.020  52.445  1.00  0.00     0.039 A 
HETATM   10  N1  UNL     1      20.750  -0.923  54.653  1.00  0.00    -0.348 N 
HETATM   11  C9  UNL     1      22.138  -1.158  54.700  1.00  0.00     0.242 A 
HETATM   12  H5  UNL     1      20.160  -1.132  55.453  1.00  0.00     0.163 HD
HETATM   13  O1  UNL     1      22.874  -1.648  55.630  1.00  0.00    -0.271 OA
BRANCH   8  14
HETATM   14  N2  UNL     1      23.864   0.249  53.888  1.00  0.00    -0.362 N 
HETATM   15  H7  UNL     1      23.499   1.080  54.450  1.00  0.00     0.162 HD
BRANCH  14  16
HETATM   16  C11 UNL     1      25.269   0.216  53.548  1.00  0.00     0.098 C 
HETATM   17  C12 UNL     1      25.848  -0.881  53.092  1.00  0.00     0.032 C 
HETATM   18  C13 UNL     1      27.227  -0.547  52.840  1.00  0.00     0.062 C 
HETATM   19  C14 UNL     1      28.330  -1.397  53.347  1.00  0.00     0.019 C 
HETATM   20  C18 UNL     1      27.430   0.734  53.574  1.00  0.00     0.020 C 
HETATM   21  C15 UNL     1      29.484  -0.361  53.123  1.00  0.00     0.037 C 
HETATM   22  C16 UNL     1      28.770   0.824  53.724  1.00  0.00    -0.060 C 
HETATM   23  C17 UNL     1      29.417   1.988  54.420  1.00  0.00     0.045 C 
HETATM   24  N3  UNL     1      26.158   1.292  53.865  1.00  0.00    -0.346 N 
HETATM   25  H17 UNL     1      25.979   2.249  54.219  1.00  0.00     0.167 HD
ENDBRANCH  14  16
ENDBRANCH   8  14
ENDBRANCH   4   5
TORSDOF 3
ENDMDL
MODEL 2
REMARK VINA RESULT:      -9.0      2.349      4.939
REMARK  3 active torsions:
REMARK  status: ('A' for Active; 'I' for Inactive)
REMARK    1  A    between atoms: C4_4  and  C5_5 
REMARK    2  A    between atoms: C10_12  and  N2_13 
REMARK    3  A    between atoms: N2_13  and  C11_14 
ROOT
HETATM    1  C1  UNL     1      20.007   0.942  50.093  1.00  0.00     0.017 C 
HETATM    2  C2  UNL     1      20.837   0.721  50.923  1.00  0.00    -0.090 C 
HETATM    3  C3  UNL     1      21.829   0.432  51.925  1.00  0.00     0.060 C 
HETATM    4  C4  UNL     1      21.818  -0.520  52.827  1.00  0.00    -0.004 C 
ENDROOT
BRANCH   4   5
HETATM    5  C5  UNL     1      22.936  -0.678  53.793  1.00  0.00     0.025 A 
HETATM    6  C6  UNL     1      24.189  -0.318  53.659  1.00  0.00     0.043 A 
HETATM    7  C7  UNL     1      24.130  -0.947  55.023  1.00  0.00     0.062 A 
HETATM    8  C10 UNL     1      25.612   0.020  53.632  1.00  0.00     0.188 A 
HETATM    9  C8  UNL     1      22.828  -1.292  55.096  1.00  0.00     0.039 A 
HETATM   10  N1  UNL     1      25.312  -1.060  55.801  1.00  0.00    -0.348 N 
HETATM   11  C9  UNL     1      26.196  -0.461  54.881  1.00  0.00     0.242 A 
HETATM   12  H5  UNL     1      25.647  -1.397  56.698  1.00  0.00     0.163 HD
HETATM   13  O1  UNL     1      27.461  -0.257  54.945  1.00  0.00    -0.271 OA
BRANCH   8  14
HETATM   14  N2  UNL     1      25.812   1.474  53.567  1.00  0.00    -0.362 N 
HETATM   15  H7  UNL     1      26.573   1.899  54.183  1.00  0.00     0.162 HD
BRANCH  14  16
HETATM   16  C11 UNL     1      25.045   2.357  52.717  1.00  0.00     0.098 C 
HETATM   17  C12 UNL     1      24.208   3.249  53.217  1.00  0.00     0.032 C 
HETATM   18  C13 UNL     1      23.642   3.959  52.098  1.00  0.00     0.062 C 
HETATM   19  C14 UNL     1      22.180   4.159  51.972  1.00  0.00     0.019 C 
HETATM   20  C18 UNL     1      23.964   3.100  50.923  1.00  0.00     0.020 C 
HETATM   21  C15 UNL     1      22.178   4.592  50.466  1.00  0.00     0.037 C 
HETATM   22  C16 UNL     1      23.090   3.496  49.971  1.00  0.00    -0.060 C 
HETATM   23  C17 UNL     1      23.071   2.879  48.601  1.00  0.00     0.045 C 
HETATM   24  N3  UNL     1      24.990   2.194  51.296  1.00  0.00    -0.346 N 
HETATM   25  H17 UNL     1      25.531   1.588  50.653  1.00  0.00     0.167 HD
ENDBRANCH  14  16
ENDBRANCH   8  14
ENDBRANCH   4   5
TORSDOF 3
ENDMDL
MODEL 3
REMARK VINA RESULT:      -8.6      2.682      3.381
REMARK  3 active torsions:
REMARK  status: ('A' for Active; 'I' for Inactive)
REMARK    1  A    between atoms: C4_4  and  C5_5 
REMARK    2  A    between atoms: C10_12  and  N2_13 
REMARK    3  A    between atoms: N2_13  and  C11_14 
ROOT
HETATM    1  C1  UNL     1      22.530   2.476  47.471  1.00  0.00     0.017 C 
HETATM    2  C2  UNL     1      22.288   1.956  48.519  1.00  0.00    -0.090 C 
HETATM    3  C3  UNL     1      21.975   1.321  49.771  1.00  0.00     0.060 C 
HETATM    4  C4  UNL     1      20.796   0.996  50.244  1.00  0.00    -0.004 C 
ENDROOT
BRANCH   4   5
HETATM    5  C5  UNL     1      20.653   0.338  51.570  1.00  0.00     0.025 A 
HETATM    6  C6  UNL     1      21.589  -0.162  52.339  1.00  0.00     0.043 A 
HETATM    7  C7  UNL     1      20.315  -0.413  53.097  1.00  0.00     0.062 A 
HETATM    8  C10 UNL     1      22.530  -0.767  53.282  1.00  0.00     0.188 A 
HETATM    9  C8  UNL     1      19.403   0.120  52.258  1.00  0.00     0.039 A 
HETATM   10  N1  UNL     1      20.354  -1.102  54.338  1.00  0.00    -0.348 N 
HETATM   11  C9  UNL     1      21.747  -1.310  54.388  1.00  0.00     0.242 A 
HETATM   12  H5  UNL     1      19.752  -1.434  55.084  1.00  0.00     0.163 HD
HETATM   13  O1  UNL     1      22.474  -1.910  55.259  1.00  0.00    -0.271 OA
BRANCH   8  14
HETATM   14  N2  UNL     1      23.454   0.235  53.826  1.00  0.00    -0.362 N 
HETATM   15  H7  UNL     1      23.817   0.088  54.820  1.00  0.00     0.162 HD
BRANCH  14  16
HETATM   16  C11 UNL     1      23.903   1.401  53.098  1.00  0.00     0.098 C 
HETATM   17  C12 UNL     1      23.208   2.525  53.090  1.00  0.00     0.032 C 
HETATM   18  C13 UNL     1      23.954   3.467  52.294  1.00  0.00     0.062 C 
HETATM   19  C14 UNL     1      23.305   4.249  51.217  1.00  0.00     0.019 C 
HETATM   20  C18 UNL     1      24.929   2.620  51.550  1.00  0.00     0.020 C 
HETATM   21  C15 UNL     1      24.620   4.732  50.515  1.00  0.00     0.037 C 
HETATM   22  C16 UNL     1      25.312   3.390  50.507  1.00  0.00    -0.060 C 
HETATM   23  C17 UNL     1      26.309   2.914  49.488  1.00  0.00     0.045 C 
HETATM   24  N3  UNL     1      25.007   1.356  52.189  1.00  0.00    -0.346 N 
HETATM   25  H17 UNL     1      25.713   0.621  52.001  1.00  0.00     0.167 HD
ENDBRANCH  14  16
ENDBRANCH   8  14
ENDBRANCH   4   5
TORSDOF 3
ENDMDL
MODEL 4
REMARK VINA RESULT:      -8.5      2.966      4.455
REMARK  3 active torsions:
REMARK  status: ('A' for Active; 'I' for Inactive)
REMARK    1  A    between atoms: C4_4  and  C5_5 
REMARK    2  A    between atoms: C10_12  and  N2_13 
REMARK    3  A    between atoms: N2_13  and  C11_14 
ROOT
HETATM    1  C1  UNL     1      19.710   1.169  50.006  1.00  0.00     0.017 C 
HETATM    2  C2  UNL     1      20.567   0.893  50.792  1.00  0.00    -0.090 C 
HETATM    3  C3  UNL     1      21.587   0.539  51.741  1.00  0.00     0.060 C 
HETATM    4  C4  UNL     1      21.517  -0.327  52.724  1.00  0.00    -0.004 C 
ENDROOT
BRANCH   4   5
HETATM    5  C5  UNL     1      22.680  -0.573  53.617  1.00  0.00     0.025 A 
HETATM    6  C6  UNL     1      23.934  -0.237  53.439  1.00  0.00     0.043 A 
HETATM    7  C7  UNL     1      23.927  -0.947  54.763  1.00  0.00     0.062 A 
HETATM    8  C10 UNL     1      25.363   0.065  53.356  1.00  0.00     0.188 A 
HETATM    9  C8  UNL     1      22.621  -1.263  54.885  1.00  0.00     0.039 A 
HETATM   10  N1  UNL     1      25.145  -1.138  55.469  1.00  0.00    -0.348 N 
HETATM   11  C9  UNL     1      25.996  -0.507  54.541  1.00  0.00     0.242 A 
HETATM   12  H5  UNL     1      25.515  -1.539  56.325  1.00  0.00     0.163 HD
HETATM   13  O1  UNL     1      27.268  -0.340  54.549  1.00  0.00    -0.271 OA
BRANCH   8  14
HETATM   14  N2  UNL     1      25.600   1.515  53.368  1.00  0.00    -0.362 N 
HETATM   15  H7  UNL     1      25.890   1.963  54.292  1.00  0.00     0.162 HD
BRANCH  14  16
HETATM   16  C11 UNL     1      25.470   2.364  52.205  1.00  0.00     0.098 C 
HETATM   17  C12 UNL     1      26.227   2.198  51.135  1.00  0.00     0.032 C 
HETATM   18  C13 UNL     1      25.814   3.192  50.177  1.00  0.00     0.062 C 
HETATM   19  C14 UNL     1      26.800   4.057  49.490  1.00  0.00     0.019 C 
HETATM   20  C18 UNL     1      25.022   4.165  50.982  1.00  0.00     0.020 C 
HETATM   21  C15 UNL     1      25.779   5.113  48.945  1.00  0.00     0.037 C 
HETATM   22  C16 UNL     1      25.011   5.289  50.232  1.00  0.00    -0.060 C 
HETATM   23  C17 UNL     1      24.306   6.538  50.679  1.00  0.00     0.045 C 
HETATM   24  N3  UNL     1      24.666   3.548  52.210  1.00  0.00    -0.346 N 
HETATM   25  H17 UNL     1      23.984   3.913  52.899  1.00  0.00     0.167 HD
ENDBRANCH  14  16
ENDBRANCH   8  14
ENDBRANCH   4   5
TORSDOF 3
ENDMDL
MODEL 5
REMARK VINA RESULT:      -8.0      2.812      6.366
REMARK  3 active torsions:
REMARK  status: ('A' for Active; 'I' for Inactive)
REMARK    1  A    between atoms: C4_4  and  C5_5 
REMARK    2  A    between atoms: C10_12  and  N2_13 
REMARK    3  A    between atoms: N2_13  and  C11_14 
ROOT
HETATM    1  C1  UNL     1      20.158  -1.309  53.801  1.00  0.00     0.017 C 
HETATM    2  C2  UNL     1      21.269  -0.876  53.868  1.00  0.00    -0.090 C 
HETATM    3  C3  UNL     1      22.616  -0.377  53.950  1.00  0.00     0.060 C 
HETATM    4  C4  UNL     1      23.663  -0.953  54.489  1.00  0.00    -0.004 C 
ENDROOT
BRANCH   4   5
HETATM    5  C5  UNL     1      24.994  -0.290  54.485  1.00  0.00     0.025 A 
HETATM    6  C6  UNL     1      25.475   0.573  53.624  1.00  0.00     0.043 A 
HETATM    7  C7  UNL     1      26.585   0.388  54.620  1.00  0.00     0.062 A 
HETATM    8  C10 UNL     1      26.134   1.527  52.732  1.00  0.00     0.188 A 
HETATM    9  C8  UNL     1      26.030  -0.502  55.469  1.00  0.00     0.039 A 
HETATM   10  N1  UNL     1      27.818   1.069  54.438  1.00  0.00    -0.348 N 
HETATM   11  C9  UNL     1      27.483   1.741  53.246  1.00  0.00     0.242 A 
HETATM   12  H5  UNL     1      28.732   1.189  54.863  1.00  0.00     0.163 HD
HETATM   13  O1  UNL     1      28.172   2.532  52.508  1.00  0.00    -0.271 OA
BRANCH   8  14
HETATM   14  N2  UNL     1      25.437   2.819  52.729  1.00  0.00    -0.362 N 
HETATM   15  H7  UNL     1      25.554   3.449  53.583  1.00  0.00     0.162 HD
BRANCH  14  16
HETATM   16  C11 UNL     1      24.610   3.289  51.640  1.00  0.00     0.098 C 
HETATM   17  C12 UNL     1      23.764   2.488  51.014  1.00  0.00     0.032 C 
HETATM   18  C13 UNL     1      23.101   3.287  50.015  1.00  0.00     0.062 C 
HETATM   19  C14 UNL     1      22.990   2.828  48.610  1.00  0.00     0.019 C 
HETATM   20  C18 UNL     1      23.951   4.506  49.901  1.00  0.00     0.020 C 
HETATM   21  C15 UNL     1      22.574   4.207  47.993  1.00  0.00     0.037 C 
HETATM   22  C16 UNL     1      23.618   5.034  48.702  1.00  0.00    -0.060 C 
HETATM   23  C17 UNL     1      24.250   6.295  48.184  1.00  0.00     0.045 C 
HETATM   24  N3  UNL     1      24.791   4.577  51.042  1.00  0.00    -0.346 N 
HETATM   25  H17 UNL     1      25.370   5.389  51.323  1.00  0.00     0.167 HD
ENDBRANCH  14  16
ENDBRANCH   8  14
ENDBRANCH   4   5
TORSDOF 3
ENDMDL
MODEL 6
REMARK VINA RESULT:      -7.8      3.407      4.490
REMARK  3 active torsions:
REMARK  status: ('A' for Active; 'I' for Inactive)
REMARK    1  A    between atoms: C4_4  and  C5_5 
REMARK    2  A    between atoms: C10_12  and  N2_13 
REMARK    3  A    between atoms: N2_13  and  C11_14 
ROOT
HETATM    1  C1  UNL     1      21.960   3.365  46.518  1.00  0.00     0.017 C 
HETATM    2  C2  UNL     1      22.186   2.937  47.610  1.00  0.00    -0.090 C 
HETATM    3  C3  UNL     1      22.446   2.402  48.920  1.00  0.00     0.060 C 
HETATM    4  C4  UNL     1      21.738   1.528  49.595  1.00  0.00    -0.004 C 
ENDROOT
BRANCH   4   5
HETATM    5  C5  UNL     1      22.157   1.079  50.949  1.00  0.00     0.025 A 
HETATM    6  C6  UNL     1      23.366   1.003  51.447  1.00  0.00     0.043 A 
HETATM    7  C7  UNL     1      22.478   0.519  52.559  1.00  0.00     0.062 A 
HETATM    8  C10 UNL     1      24.659   0.858  52.117  1.00  0.00     0.188 A 
HETATM    9  C8  UNL     1      21.261   0.621  51.985  1.00  0.00     0.039 A 
HETATM   10  N1  UNL     1      23.052   0.080  53.781  1.00  0.00    -0.348 N 
HETATM   11  C9  UNL     1      24.401   0.297  53.440  1.00  0.00     0.242 A 
HETATM   12  H5  UNL     1      22.799  -0.288  54.693  1.00  0.00     0.163 HD
HETATM   13  O1  UNL     1      25.479   0.083  54.103  1.00  0.00    -0.271 OA
BRANCH   8  14
HETATM   14  N2  UNL     1      25.314   2.161  52.294  1.00  0.00    -0.362 N 
HETATM   15  H7  UNL     1      25.693   2.397  53.264  1.00  0.00     0.162 HD
BRANCH  14  16
HETATM   16  C11 UNL     1      25.479   3.133  51.237  1.00  0.00     0.098 C 
HETATM   17  C12 UNL     1      26.309   2.930  50.229  1.00  0.00     0.032 C 
HETATM   18  C13 UNL     1      26.202   4.079  49.366  1.00  0.00     0.062 C 
HETATM   19  C14 UNL     1      27.405   4.796  48.884  1.00  0.00     0.019 C 
HETATM   20  C18 UNL     1      25.519   5.102  50.207  1.00  0.00     0.020 C 
HETATM   21  C15 UNL     1      26.668   6.084  48.380  1.00  0.00     0.037 C 
HETATM   22  C16 UNL     1      25.804   6.276  49.602  1.00  0.00    -0.060 C 
HETATM   23  C17 UNL     1      25.299   7.589  50.131  1.00  0.00     0.045 C 
HETATM   24  N3  UNL     1      24.915   4.446  51.312  1.00  0.00    -0.346 N 
HETATM   25  H17 UNL     1      24.240   4.867  51.975  1.00  0.00     0.167 HD
ENDBRANCH  14  16
ENDBRANCH   8  14
ENDBRANCH   4   5
TORSDOF 3
ENDMDL
MODEL 7
REMARK VINA RESULT:      -7.8      3.074      5.015
REMARK  3 active torsions:
REMARK  status: ('A' for Active; 'I' for Inactive)
REMARK    1  A    between atoms: C4_4  and  C5_5 
REMARK    2  A    between atoms: C10_12  and  N2_13 
REMARK    3  A    between atoms: N2_13  and  C11_14 
ROOT
HETATM    1  C1  UNL     1      16.985   0.040  50.647  1.00  0.00     0.017 C 
HETATM    2  C2  UNL     1      18.076  -0.085  51.117  1.00  0.00    -0.090 C 
HETATM    3  C3  UNL     1      19.380  -0.234  51.705  1.00  0.00     0.060 C 
HETATM    4  C4  UNL     1      19.785   0.155  52.890  1.00  0.00    -0.004 C 
ENDROOT
BRANCH   4   5
HETATM    5  C5  UNL     1      21.181  -0.084  53.343  1.00  0.00     0.025 A 
HETATM    6  C6  UNL     1      22.285   0.484  52.924  1.00  0.00     0.043 A 
HETATM    7  C7  UNL     1      22.746  -0.486  53.974  1.00  0.00     0.062 A 
HETATM    8  C10 UNL     1      23.587   1.029  52.539  1.00  0.00     0.188 A 
HETATM    9  C8  UNL     1      21.573  -1.032  54.359  1.00  0.00     0.039 A 
HETATM   10  N1  UNL     1      24.132  -0.622  54.252  1.00  0.00    -0.348 N 
HETATM   11  C9  UNL     1      24.599   0.326  53.321  1.00  0.00     0.242 A 
HETATM   12  H5  UNL     1      24.780  -1.132  54.844  1.00  0.00     0.163 HD
HETATM   13  O1  UNL     1      25.793   0.695  53.028  1.00  0.00    -0.271 OA
BRANCH   8  14
HETATM   14  N2  UNL     1      23.679   2.460  52.854  1.00  0.00    -0.362 N 
HETATM   15  H7  UNL     1      23.386   2.772  53.833  1.00  0.00     0.162 HD
BRANCH  14  16
HETATM   16  C11 UNL     1      24.145   3.465  51.925  1.00  0.00     0.098 C 
HETATM   17  C12 UNL     1      23.312   4.305  51.336  1.00  0.00     0.032 C 
HETATM   18  C13 UNL     1      24.114   5.168  50.505  1.00  0.00     0.062 C 
HETATM   19  C14 UNL     1      23.762   5.419  49.089  1.00  0.00     0.019 C 
HETATM   20  C18 UNL     1      25.422   4.460  50.403  1.00  0.00     0.020 C 
HETATM   21  C15 UNL     1      25.134   6.043  48.660  1.00  0.00     0.037 C 
HETATM   22  C16 UNL     1      26.008   4.997  49.310  1.00  0.00    -0.060 C 
HETATM   23  C17 UNL     1      27.367   4.562  48.840  1.00  0.00     0.045 C 
HETATM   24  N3  UNL     1      25.489   3.487  51.434  1.00  0.00    -0.346 N 
HETATM   25  H17 UNL     1      26.332   2.956  51.716  1.00  0.00     0.167 HD
ENDBRANCH  14  16
ENDBRANCH   8  14
ENDBRANCH   4   5
TORSDOF 3
ENDMDL
MODEL 8
REMARK VINA RESULT:      -7.7      2.114      5.768
REMARK  3 active torsions:
REMARK  status: ('A' for Active; 'I' for Inactive)
REMARK    1  A    between atoms: C4_4  and  C5_5 
REMARK    2  A    between atoms: C10_12  and  N2_13 
REMARK    3  A    between atoms: N2_13  and  C11_14 
ROOT
HETATM    1  C1  UNL     1      23.228   4.813  48.601  1.00  0.00     0.017 C 
HETATM    2  C2  UNL     1      23.649   3.926  49.282  1.00  0.00    -0.090 C 
HETATM    3  C3  UNL     1      24.165   2.875  50.118  1.00  0.00     0.060 C 
HETATM    4  C4  UNL     1      25.171   2.925  50.957  1.00  0.00    -0.004 C 
ENDROOT
BRANCH   4   5
HETATM    5  C5  UNL     1      25.572   1.733  51.750  1.00  0.00     0.025 A 
HETATM    6  C6  UNL     1      24.938   1.160  52.742  1.00  0.00     0.043 A 
HETATM    7  C7  UNL     1      26.188   0.342  52.584  1.00  0.00     0.062 A 
HETATM    8  C10 UNL     1      24.341   0.437  53.865  1.00  0.00     0.188 A 
HETATM    9  C8  UNL     1      26.789   0.979  51.557  1.00  0.00     0.039 A 
HETATM   10  N1  UNL     1      26.439  -0.744  53.463  1.00  0.00    -0.348 N 
HETATM   11  C9  UNL     1      25.272  -0.623  54.243  1.00  0.00     0.242 A 
HETATM   12  H5  UNL     1      27.119  -1.472  53.657  1.00  0.00     0.163 HD
HETATM   13  O1  UNL     1      24.867  -1.297  55.257  1.00  0.00    -0.271 OA
BRANCH   8  14
HETATM   14  N2  UNL     1      23.070  -0.190  53.479  1.00  0.00    -0.362 N 
HETATM   15  H7  UNL     1      22.833  -1.138  53.908  1.00  0.00     0.162 HD
BRANCH  14  16
HETATM   16  C11 UNL     1      22.124   0.403  52.560  1.00  0.00     0.098 C 
HETATM   17  C12 UNL     1      21.840  -0.157  51.397  1.00  0.00     0.032 C 
HETATM   18  C13 UNL     1      20.855   0.682  50.763  1.00  0.00     0.062 C 
HETATM   19  C14 UNL     1      21.012   1.127  49.359  1.00  0.00     0.019 C 
HETATM   20  C18 UNL     1      20.921   1.960  51.527  1.00  0.00     0.020 C 
HETATM   21  C15 UNL     1      19.924   2.254  49.395  1.00  0.00     0.037 C 
HETATM   22  C16 UNL     1      20.361   2.872  50.701  1.00  0.00    -0.060 C 
HETATM   23  C17 UNL     1      20.220   4.317  51.088  1.00  0.00     0.045 C 
HETATM   24  N3  UNL     1      21.589   1.716  52.755  1.00  0.00    -0.346 N 
HETATM   25  H17 UNL     1      21.642   2.367  53.559  1.00  0.00     0.167 HD
ENDBRANCH  14  16
ENDBRANCH   8  14
ENDBRANCH   4   5
TORSDOF 3
ENDMDL
MODEL 9
REMARK VINA RESULT:      -7.7      2.544      6.219
REMARK  3 active torsions:
REMARK  status: ('A' for Active; 'I' for Inactive)
REMARK    1  A    between atoms: C4_4  and  C5_5 
REMARK    2  A    between atoms: C10_12  and  N2_13 
REMARK    3  A    between atoms: N2_13  and  C11_14 
ROOT
HETATM    1  C1  UNL     1      21.258   3.293  47.068  1.00  0.00     0.017 C 
HETATM    2  C2  UNL     1      22.146   3.058  47.832  1.00  0.00    -0.090 C 
HETATM    3  C3  UNL     1      23.212   2.797  48.762  1.00  0.00     0.060 C 
HETATM    4  C4  UNL     1      23.965   3.663  49.398  1.00  0.00    -0.004 C 
ENDROOT
BRANCH   4   5
HETATM    5  C5  UNL     1      25.030   3.215  50.333  1.00  0.00     0.025 A 
HETATM    6  C6  UNL     1      24.912   2.807  51.573  1.00  0.00     0.043 A 
HETATM    7  C7  UNL     1      26.387   2.734  51.300  1.00  0.00     0.062 A 
HETATM    8  C10 UNL     1      24.919   2.347  52.961  1.00  0.00     0.188 A 
HETATM    9  C8  UNL     1      26.439   3.164  50.022  1.00  0.00     0.039 A 
HETATM   10  N1  UNL     1      27.277   2.326  52.329  1.00  0.00    -0.348 N 
HETATM   11  C9  UNL     1      26.312   2.118  53.335  1.00  0.00     0.242 A 
HETATM   12  H5  UNL     1      28.262   2.166  52.514  1.00  0.00     0.163 HD
HETATM   13  O1  UNL     1      26.442   1.754  54.558  1.00  0.00    -0.271 OA
BRANCH   8  14
HETATM   14  N2  UNL     1      24.195   1.077  53.104  1.00  0.00    -0.362 N 
HETATM   15  H7  UNL     1      24.768   0.199  53.310  1.00  0.00     0.162 HD
BRANCH  14  16
HETATM   16  C11 UNL     1      22.760   0.948  52.988  1.00  0.00     0.098 C 
HETATM   17  C12 UNL     1      22.051   0.264  53.869  1.00  0.00     0.032 C 
HETATM   18  C13 UNL     1      20.673   0.365  53.459  1.00  0.00     0.062 C 
HETATM   19  C14 UNL     1      19.810  -0.835  53.354  1.00  0.00     0.019 C 
HETATM   20  C18 UNL     1      20.748   0.846  52.050  1.00  0.00     0.020 C 
HETATM   21  C15 UNL     1      18.658  -0.167  52.528  1.00  0.00     0.037 C 
HETATM   22  C16 UNL     1      19.546   0.525  51.523  1.00  0.00    -0.060 C 
HETATM   23  C17 UNL     1      19.191   0.840  50.097  1.00  0.00     0.045 C 
HETATM   24  N3  UNL     1      22.046   1.373  51.824  1.00  0.00    -0.346 N 
HETATM   25  H17 UNL     1      22.344   1.924  50.998  1.00  0.00     0.167 HD
ENDBRANCH  14  16
ENDBRANCH   8  14
ENDBRANCH   4   5
TORSDOF 3
ENDMDL
