MODEL 1
REMARK VINA RESULT:      -8.8      0.000      0.000
REMARK  3 active torsions:
REMARK  status: ('A' for Active; 'I' for Inactive)
REMARK    1  A    between atoms: C3_4  and  C4_5 
REMARK    2  A    between atoms: C8_10  and  O2_11 
REMARK    3  A    between atoms: C10_13  and  C11_15 
ROOT
HETATM    1  N1  UNL     1      25.895   3.515  50.352  1.00  0.00    -0.196 NA
HETATM    2  C1  UNL     1      25.642   2.670  51.079  1.00  0.00     0.073 C 
HETATM    3  C2  UNL     1      25.289   1.580  52.022  1.00  0.00     0.094 A 
HETATM    4  C3  UNL     1      24.116   1.225  52.526  1.00  0.00     0.054 A 
HETATM    5  C10 UNL     1      26.536   0.904  52.329  1.00  0.00     0.041 A 
HETATM    6  O3  UNL     1      25.379   0.681  52.723  1.00  0.00     0.000 OA
ENDROOT
BRANCH   4   7
HETATM    7  C4  UNL     1      22.930   0.712  53.161  1.00  0.00    -0.051 C 
HETATM    8  C5  UNL     1      21.817   1.307  52.755  1.00  0.00     0.007 C 
HETATM    9  C6  UNL     1      20.428   0.973  53.249  1.00  0.00     0.196 C 
HETATM   10  O1  UNL     1      20.279  -0.376  52.933  1.00  0.00    -0.381 OA
HETATM   11  C7  UNL     1      20.607  -1.250  53.929  1.00  0.00     0.232 C 
HETATM   12  C8  UNL     1      21.967  -1.195  54.459  1.00  0.00     0.067 C 
HETATM   13  C9  UNL     1      22.987  -0.381  54.164  1.00  0.00     0.041 C 
BRANCH  12  14
HETATM   14  O2  UNL     1      22.294  -2.115  55.421  1.00  0.00    -0.363 OA
HETATM   15  H7  UNL     1      22.998  -2.825  55.179  1.00  0.00     0.217 HD
ENDBRANCH  12  14
ENDBRANCH   4   7
BRANCH   5  16
HETATM   16  C11 UNL     1      27.619   0.063  52.798  1.00  0.00    -0.024 A 
HETATM   17  C12 UNL     1      27.562  -1.301  52.667  1.00  0.00     0.010 A 
HETATM   18  C13 UNL     1      28.646  -1.998  53.148  1.00  0.00     0.001 A 
HETATM   19  C14 UNL     1      29.656  -1.272  53.698  1.00  0.00     0.002 A 
HETATM   20  C15 UNL     1      29.723   0.109  53.833  1.00  0.00     0.024 A 
HETATM   21  C16 UNL     1      28.631   0.816  53.350  1.00  0.00     0.041 A 
HETATM   22 CL1  UNL     1      28.665   2.539  53.495  1.00  0.00    -0.084 Cl
ENDBRANCH   5  16
TORSDOF 3
ENDMDL
MODEL 2
REMARK VINA RESULT:      -8.8      2.570      6.271
REMARK  3 active torsions:
REMARK  status: ('A' for Active; 'I' for Inactive)
REMARK    1  A    between atoms: C3_4  and  C4_5 
REMARK    2  A    between atoms: C8_10  and  O2_11 
REMARK    3  A    between atoms: C10_13  and  C11_15 
ROOT
HETATM    1  N1  UNL     1      23.284   3.249  49.911  1.00  0.00    -0.196 NA
HETATM    2  C1  UNL     1      23.702   2.534  50.698  1.00  0.00     0.073 C 
HETATM    3  C2  UNL     1      24.268   1.614  51.714  1.00  0.00     0.094 A 
HETATM    4  C3  UNL     1      25.521   1.437  52.112  1.00  0.00     0.054 A 
HETATM    5  C10 UNL     1      23.140   0.878  52.254  1.00  0.00     0.041 A 
HETATM    6  O3  UNL     1      24.350   0.817  52.531  1.00  0.00     0.000 OA
ENDROOT
BRANCH   4   7
HETATM    7  C4  UNL     1      26.817   1.122  52.655  1.00  0.00    -0.051 C 
HETATM    8  C5  UNL     1      27.476   2.185  53.096  1.00  0.00     0.007 C 
HETATM    9  C6  UNL     1      28.854   2.153  53.714  1.00  0.00     0.196 C 
HETATM   10  O1  UNL     1      28.704   1.311  54.814  1.00  0.00    -0.381 OA
HETATM   11  C7  UNL     1      29.011  -0.000  54.593  1.00  0.00     0.232 C 
HETATM   12  C8  UNL     1      28.270  -0.704  53.551  1.00  0.00     0.067 C 
HETATM   13  C9  UNL     1      27.329  -0.271  52.704  1.00  0.00     0.041 C 
BRANCH  12  14
HETATM   14  O2  UNL     1      28.553  -2.034  53.379  1.00  0.00    -0.363 OA
HETATM   15  H7  UNL     1      29.539  -2.322  53.440  1.00  0.00     0.217 HD
ENDBRANCH  12  14
ENDBRANCH   4   7
BRANCH   5  16
HETATM   16  C11 UNL     1      22.209   0.017  52.954  1.00  0.00    -0.024 A 
HETATM   17  C12 UNL     1      22.650  -0.901  53.873  1.00  0.00     0.010 A 
HETATM   18  C13 UNL     1      21.677  -1.665  54.476  1.00  0.00     0.001 A 
HETATM   19  C14 UNL     1      20.389  -1.434  54.105  1.00  0.00     0.002 A 
HETATM   20  C15 UNL     1      19.933  -0.506  53.177  1.00  0.00     0.024 A 
HETATM   21  C16 UNL     1      20.912   0.265  52.566  1.00  0.00     0.041 A 
HETATM   22 CL1  UNL     1      20.397   1.435  51.402  1.00  0.00    -0.084 Cl
ENDBRANCH   5  16
TORSDOF 3
ENDMDL
MODEL 3
REMARK VINA RESULT:      -8.4      0.803      1.752
REMARK  3 active torsions:
REMARK  status: ('A' for Active; 'I' for Inactive)
REMARK    1  A    between atoms: C3_4  and  C4_5 
REMARK    2  A    between atoms: C8_10  and  O2_11 
REMARK    3  A    between atoms: C10_13  and  C11_15 
ROOT
HETATM    1  N1  UNL     1      25.855   3.631  50.772  1.00  0.00    -0.196 NA
HETATM    2  C1  UNL     1      25.618   2.661  51.328  1.00  0.00     0.073 C 
HETATM    3  C2  UNL     1      25.286   1.407  52.047  1.00  0.00     0.094 A 
HETATM    4  C3  UNL     1      24.110   0.878  52.357  1.00  0.00     0.054 A 
HETATM    5  C10 UNL     1      26.558   0.795  52.383  1.00  0.00     0.041 A 
HETATM    6  O3  UNL     1      25.397   0.415  52.607  1.00  0.00     0.000 OA
ENDROOT
BRANCH   4   7
HETATM    7  C4  UNL     1      22.925   0.171  52.769  1.00  0.00    -0.051 C 
HETATM    8  C5  UNL     1      23.081  -0.503  53.900  1.00  0.00     0.007 C 
HETATM    9  C6  UNL     1      22.009  -1.332  54.567  1.00  0.00     0.196 C 
HETATM   10  O1  UNL     1      20.982  -0.419  54.802  1.00  0.00    -0.381 OA
HETATM   11  C7  UNL     1      20.023  -0.354  53.833  1.00  0.00     0.232 C 
HETATM   12  C8  UNL     1      20.450  -0.012  52.479  1.00  0.00     0.067 C 
HETATM   13  C9  UNL     1      21.669   0.220  51.980  1.00  0.00     0.041 C 
BRANCH  12  14
HETATM   14  O2  UNL     1      19.467   0.101  51.530  1.00  0.00    -0.363 OA
HETATM   15  H7  UNL     1      18.977   1.002  51.457  1.00  0.00     0.217 HD
ENDBRANCH  12  14
ENDBRANCH   4   7
BRANCH   5  16
HETATM   16  C11 UNL     1      27.669  -0.019  52.835  1.00  0.00    -0.024 A 
HETATM   17  C12 UNL     1      27.642  -1.384  52.707  1.00  0.00     0.010 A 
HETATM   18  C13 UNL     1      28.750  -2.054  53.171  1.00  0.00     0.001 A 
HETATM   19  C14 UNL     1      29.753  -1.303  53.701  1.00  0.00     0.002 A 
HETATM   20  C15 UNL     1      29.789   0.080  53.833  1.00  0.00     0.024 A 
HETATM   21  C16 UNL     1      28.672   0.759  53.367  1.00  0.00     0.041 A 
HETATM   22 CL1  UNL     1      28.668   2.482  53.508  1.00  0.00    -0.084 Cl
ENDBRANCH   5  16
TORSDOF 3
ENDMDL
MODEL 4
REMARK VINA RESULT:      -8.4      3.853      6.611
REMARK  3 active torsions:
REMARK  status: ('A' for Active; 'I' for Inactive)
REMARK    1  A    between atoms: C3_4  and  C4_5 
REMARK    2  A    between atoms: C8_10  and  O2_11 
REMARK    3  A    between atoms: C10_13  and  C11_15 
ROOT
HETATM    1  N1  UNL     1      22.570   2.395  50.093  1.00  0.00    -0.196 NA
HETATM    2  C1  UNL     1      23.674   2.511  50.363  1.00  0.00     0.073 C 
HETATM    3  C2  UNL     1      25.105   2.641  50.731  1.00  0.00     0.094 A 
HETATM    4  C3  UNL     1      25.837   1.956  51.599  1.00  0.00     0.054 A 
HETATM    5  C10 UNL     1      25.624   3.728  49.921  1.00  0.00     0.041 A 
HETATM    6  O3  UNL     1      26.189   3.008  50.762  1.00  0.00     0.000 OA
ENDROOT
BRANCH   4   7
HETATM    7  C4  UNL     1      26.767   1.316  52.493  1.00  0.00    -0.051 C 
HETATM    8  C5  UNL     1      26.659  -0.005  52.507  1.00  0.00     0.007 C 
HETATM    9  C6  UNL     1      27.504  -0.934  53.348  1.00  0.00     0.196 C 
HETATM   10  O1  UNL     1      28.807  -0.659  52.937  1.00  0.00    -0.381 OA
HETATM   11  C7  UNL     1      29.472   0.270  53.684  1.00  0.00     0.232 C 
HETATM   12  C8  UNL     1      28.885   1.602  53.789  1.00  0.00     0.067 C 
HETATM   13  C9  UNL     1      27.740   2.093  53.301  1.00  0.00     0.041 C 
BRANCH  12  14
HETATM   14  O2  UNL     1      29.593   2.538  54.498  1.00  0.00    -0.363 OA
HETATM   15  H7  UNL     1      30.541   2.765  54.170  1.00  0.00     0.217 HD
ENDBRANCH  12  14
ENDBRANCH   4   7
BRANCH   5  16
HETATM   16  C11 UNL     1      26.387   4.757  49.244  1.00  0.00    -0.024 A 
HETATM   17  C12 UNL     1      27.703   4.559  48.914  1.00  0.00     0.010 A 
HETATM   18  C13 UNL     1      28.327   5.605  48.274  1.00  0.00     0.001 A 
HETATM   19  C14 UNL     1      27.583   6.718  48.034  1.00  0.00     0.002 A 
HETATM   20  C15 UNL     1      26.250   6.927  48.363  1.00  0.00     0.024 A 
HETATM   21  C16 UNL     1      25.617   5.874  49.009  1.00  0.00     0.041 A 
HETATM   22 CL1  UNL     1      23.956   6.084  49.442  1.00  0.00    -0.084 Cl
ENDBRANCH   5  16
TORSDOF 3
ENDMDL
MODEL 5
REMARK VINA RESULT:      -8.4      3.588      6.991
REMARK  3 active torsions:
REMARK  status: ('A' for Active; 'I' for Inactive)
REMARK    1  A    between atoms: C3_4  and  C4_5 
REMARK    2  A    between atoms: C8_10  and  O2_11 
REMARK    3  A    between atoms: C10_13  and  C11_15 
ROOT
HETATM    1  N1  UNL     1      21.428  -1.825  55.034  1.00  0.00    -0.196 NA
HETATM    2  C1  UNL     1      22.099  -1.226  54.329  1.00  0.00     0.073 C 
HETATM    3  C2  UNL     1      22.992  -0.454  53.430  1.00  0.00     0.094 A 
HETATM    4  C3  UNL     1      24.296  -0.224  53.501  1.00  0.00     0.054 A 
HETATM    5  C10 UNL     1      22.141   0.051  52.368  1.00  0.00     0.041 A 
HETATM    6  O3  UNL     1      23.363   0.185  52.556  1.00  0.00     0.000 OA
ENDROOT
BRANCH   4   7
HETATM    7  C4  UNL     1      25.693   0.118  53.428  1.00  0.00    -0.051 C 
HETATM    8  C5  UNL     1      25.923   1.417  53.559  1.00  0.00     0.007 C 
HETATM    9  C6  UNL     1      27.290   2.061  53.524  1.00  0.00     0.196 C 
HETATM   10  O1  UNL     1      27.975   1.442  54.568  1.00  0.00    -0.381 OA
HETATM   11  C7  UNL     1      28.718   0.353  54.215  1.00  0.00     0.232 C 
HETATM   12  C8  UNL     1      28.026  -0.766  53.582  1.00  0.00     0.067 C 
HETATM   13  C9  UNL     1      26.743  -0.912  53.229  1.00  0.00     0.041 C 
BRANCH  12  14
HETATM   14  O2  UNL     1      28.778  -1.872  53.283  1.00  0.00    -0.363 OA
HETATM   15  H7  UNL     1      28.904  -2.107  52.290  1.00  0.00     0.217 HD
ENDBRANCH  12  14
ENDBRANCH   4   7
BRANCH   5  16
HETATM   16  C11 UNL     1      21.532   0.670  51.208  1.00  0.00    -0.024 A 
HETATM   17  C12 UNL     1      22.295   1.316  50.269  1.00  0.00     0.010 A 
HETATM   18  C13 UNL     1      21.609   1.866  49.211  1.00  0.00     0.001 A 
HETATM   19  C14 UNL     1      20.258   1.713  49.201  1.00  0.00     0.002 A 
HETATM   20  C15 UNL     1      19.477   1.059  50.146  1.00  0.00     0.024 A 
HETATM   21  C16 UNL     1      20.166   0.504  51.215  1.00  0.00     0.041 A 
HETATM   22 CL1  UNL     1      19.239  -0.321  52.421  1.00  0.00    -0.084 Cl
ENDBRANCH   5  16
TORSDOF 3
ENDMDL
MODEL 6
REMARK VINA RESULT:      -8.3      2.932      6.273
REMARK  3 active torsions:
REMARK  status: ('A' for Active; 'I' for Inactive)
REMARK    1  A    between atoms: C3_4  and  C4_5 
REMARK    2  A    between atoms: C8_10  and  O2_11 
REMARK    3  A    between atoms: C10_13  and  C11_15 
ROOT
HETATM    1  N1  UNL     1      25.691   5.007  49.411  1.00  0.00    -0.196 NA
HETATM    2  C1  UNL     1      25.657   4.083  50.082  1.00  0.00     0.073 C 
HETATM    3  C2  UNL     1      25.638   2.886  50.959  1.00  0.00     0.094 A 
HETATM    4  C3  UNL     1      26.596   2.347  51.700  1.00  0.00     0.054 A 
HETATM    5  C10 UNL     1      24.290   2.355  50.874  1.00  0.00     0.041 A 
HETATM    6  O3  UNL     1      25.274   1.958  51.521  1.00  0.00     0.000 OA
ENDROOT
BRANCH   4   7
HETATM    7  C4  UNL     1      27.517   1.639  52.552  1.00  0.00    -0.051 C 
HETATM    8  C5  UNL     1      28.270   2.440  53.293  1.00  0.00     0.007 C 
HETATM    9  C6  UNL     1      29.320   1.976  54.275  1.00  0.00     0.196 C 
HETATM   10  O1  UNL     1      28.607   1.183  55.172  1.00  0.00    -0.381 OA
HETATM   11  C7  UNL     1      28.593  -0.152  54.889  1.00  0.00     0.232 C 
HETATM   12  C8  UNL     1      28.052  -0.567  53.597  1.00  0.00     0.067 C 
HETATM   13  C9  UNL     1      27.583   0.156  52.575  1.00  0.00     0.041 C 
BRANCH  12  14
HETATM   14  O2  UNL     1      27.997  -1.914  53.352  1.00  0.00    -0.363 OA
HETATM   15  H7  UNL     1      27.933  -2.543  54.163  1.00  0.00     0.217 HD
ENDBRANCH  12  14
ENDBRANCH   4   7
BRANCH   5  16
HETATM   16  C11 UNL     1      23.040   1.629  50.970  1.00  0.00    -0.024 A 
HETATM   17  C12 UNL     1      22.688   0.977  52.125  1.00  0.00     0.010 A 
HETATM   18  C13 UNL     1      21.480   0.321  52.101  1.00  0.00     0.001 A 
HETATM   19  C14 UNL     1      20.762   0.384  50.947  1.00  0.00     0.002 A 
HETATM   20  C15 UNL     1      21.109   1.042  49.774  1.00  0.00     0.024 A 
HETATM   21  C16 UNL     1      22.329   1.705  49.794  1.00  0.00     0.041 A 
HETATM   22 CL1  UNL     1      22.808   2.540  48.358  1.00  0.00    -0.084 Cl
ENDBRANCH   5  16
TORSDOF 3
ENDMDL
MODEL 7
REMARK VINA RESULT:      -8.3      2.672      4.906
REMARK  3 active torsions:
REMARK  status: ('A' for Active; 'I' for Inactive)
REMARK    1  A    between atoms: C3_4  and  C4_5 
REMARK    2  A    between atoms: C8_10  and  O2_11 
REMARK    3  A    between atoms: C10_13  and  C11_15 
ROOT
HETATM    1  N1  UNL     1      22.952  -0.340  53.904  1.00  0.00    -0.196 NA
HETATM    2  C1  UNL     1      23.800   0.116  53.290  1.00  0.00     0.073 C 
HETATM    3  C2  UNL     1      24.885   0.723  52.480  1.00  0.00     0.094 A 
HETATM    4  C3  UNL     1      24.842   1.677  51.560  1.00  0.00     0.054 A 
HETATM    5  C10 UNL     1      26.106   0.056  52.892  1.00  0.00     0.041 A 
HETATM    6  O3  UNL     1      25.921   0.955  52.054  1.00  0.00     0.000 OA
ENDROOT
BRANCH   4   7
HETATM    7  C4  UNL     1      24.970   2.691  50.545  1.00  0.00    -0.051 C 
HETATM    8  C5  UNL     1      23.814   3.035  49.996  1.00  0.00     0.007 C 
HETATM    9  C6  UNL     1      23.647   4.071  48.909  1.00  0.00     0.196 C 
HETATM   10  O1  UNL     1      24.163   5.234  49.478  1.00  0.00    -0.381 OA
HETATM   11  C7  UNL     1      25.478   5.482  49.211  1.00  0.00     0.232 C 
HETATM   12  C8  UNL     1      26.454   4.472  49.611  1.00  0.00     0.067 C 
HETATM   13  C9  UNL     1      26.286   3.273  50.181  1.00  0.00     0.041 C 
BRANCH  12  14
HETATM   14  O2  UNL     1      27.774   4.761  49.383  1.00  0.00    -0.363 OA
HETATM   15  H7  UNL     1      28.252   4.244  48.634  1.00  0.00     0.217 HD
ENDBRANCH  12  14
ENDBRANCH   4   7
BRANCH   5  16
HETATM   16  C11 UNL     1      27.449  -0.441  53.113  1.00  0.00    -0.024 A 
HETATM   17  C12 UNL     1      27.747  -1.771  52.952  1.00  0.00     0.010 A 
HETATM   18  C13 UNL     1      29.054  -2.128  53.189  1.00  0.00     0.001 A 
HETATM   19  C14 UNL     1      29.912  -1.137  53.553  1.00  0.00     0.002 A 
HETATM   20  C15 UNL     1      29.620   0.211  53.717  1.00  0.00     0.024 A 
HETATM   21  C16 UNL     1      28.302   0.575  53.479  1.00  0.00     0.041 A 
HETATM   22 CL1  UNL     1      27.887   2.243  53.671  1.00  0.00    -0.084 Cl
ENDBRANCH   5  16
TORSDOF 3
ENDMDL
MODEL 8
REMARK VINA RESULT:      -8.2      3.112      4.326
REMARK  3 active torsions:
REMARK  status: ('A' for Active; 'I' for Inactive)
REMARK    1  A    between atoms: C3_4  and  C4_5 
REMARK    2  A    between atoms: C8_10  and  O2_11 
REMARK    3  A    between atoms: C10_13  and  C11_15 
ROOT
HETATM    1  N1  UNL     1      23.043  -1.612  55.123  1.00  0.00    -0.196 NA
HETATM    2  C1  UNL     1      23.626  -0.849  54.505  1.00  0.00     0.073 C 
HETATM    3  C2  UNL     1      24.361   0.153  53.694  1.00  0.00     0.094 A 
HETATM    4  C3  UNL     1      23.913   1.154  52.949  1.00  0.00     0.054 A 
HETATM    5  C10 UNL     1      25.769  -0.160  53.861  1.00  0.00     0.041 A 
HETATM    6  O3  UNL     1      25.214   0.738  53.204  1.00  0.00     0.000 OA
ENDROOT
BRANCH   4   7
HETATM    7  C4  UNL     1      23.596   2.277  52.105  1.00  0.00    -0.051 C 
HETATM    8  C5  UNL     1      22.957   1.935  50.995  1.00  0.00     0.007 C 
HETATM    9  C6  UNL     1      22.501   2.902  49.927  1.00  0.00     0.196 C 
HETATM   10  O1  UNL     1      21.650   3.771  50.608  1.00  0.00    -0.381 OA
HETATM   11  C7  UNL     1      22.235   4.909  51.083  1.00  0.00     0.232 C 
HETATM   12  C8  UNL     1      23.351   4.762  52.013  1.00  0.00     0.067 C 
HETATM   13  C9  UNL     1      23.963   3.666  52.476  1.00  0.00     0.041 C 
BRANCH  12  14
HETATM   14  O2  UNL     1      23.891   5.915  52.521  1.00  0.00    -0.363 OA
HETATM   15  H7  UNL     1      23.842   6.055  53.538  1.00  0.00     0.217 HD
ENDBRANCH  12  14
ENDBRANCH   4   7
BRANCH   5  16
HETATM   16  C11 UNL     1      27.215  -0.250  53.856  1.00  0.00    -0.024 A 
HETATM   17  C12 UNL     1      27.981   0.647  54.556  1.00  0.00     0.010 A 
HETATM   18  C13 UNL     1      29.343   0.464  54.478  1.00  0.00     0.001 A 
HETATM   19  C14 UNL     1      29.787  -0.577  53.725  1.00  0.00     0.002 A 
HETATM   20  C15 UNL     1      29.019  -1.491  53.014  1.00  0.00     0.024 A 
HETATM   21  C16 UNL     1      27.645  -1.309  53.089  1.00  0.00     0.041 A 
HETATM   22 CL1  UNL     1      26.643  -2.420  52.221  1.00  0.00    -0.084 Cl
ENDBRANCH   5  16
TORSDOF 3
ENDMDL
MODEL 9
REMARK VINA RESULT:      -8.1      3.056      6.457
REMARK  3 active torsions:
REMARK  status: ('A' for Active; 'I' for Inactive)
REMARK    1  A    between atoms: C3_4  and  C4_5 
REMARK    2  A    between atoms: C8_10  and  O2_11 
REMARK    3  A    between atoms: C10_13  and  C11_15 
ROOT
HETATM    1  N1  UNL     1      21.699  -0.549  54.665  1.00  0.00    -0.196 NA
HETATM    2  C1  UNL     1      22.540  -0.217  53.967  1.00  0.00     0.073 C 
HETATM    3  C2  UNL     1      23.650   0.201  53.076  1.00  0.00     0.094 A 
HETATM    4  C3  UNL     1      24.945  -0.080  53.123  1.00  0.00     0.054 A 
HETATM    5  C10 UNL     1      23.044   1.035  52.054  1.00  0.00     0.041 A 
HETATM    6  O3  UNL     1      24.227   0.691  52.218  1.00  0.00     0.000 OA
ENDROOT
BRANCH   4   7
HETATM    7  C4  UNL     1      26.367  -0.286  53.029  1.00  0.00    -0.051 C 
HETATM    8  C5  UNL     1      27.071   0.828  53.177  1.00  0.00     0.007 C 
HETATM    9  C6  UNL     1      28.578   0.913  53.127  1.00  0.00     0.196 C 
HETATM   10  O1  UNL     1      28.993   0.058  54.147  1.00  0.00    -0.381 OA
HETATM   11  C7  UNL     1      29.268  -1.222  53.762  1.00  0.00     0.232 C 
HETATM   12  C8  UNL     1      28.199  -1.984  53.123  1.00  0.00     0.067 C 
HETATM   13  C9  UNL     1      26.952  -1.630  52.793  1.00  0.00     0.041 C 
BRANCH  12  14
HETATM   14  O2  UNL     1      28.477  -3.284  52.792  1.00  0.00    -0.363 OA
HETATM   15  H7  UNL     1      28.944  -3.866  53.500  1.00  0.00     0.217 HD
ENDBRANCH  12  14
ENDBRANCH   4   7
BRANCH   5  16
HETATM   16  C11 UNL     1      22.702   1.887  50.933  1.00  0.00    -0.024 A 
HETATM   17  C12 UNL     1      22.144   1.366  49.793  1.00  0.00     0.010 A 
HETATM   18  C13 UNL     1      21.862   2.268  48.795  1.00  0.00     0.001 A 
HETATM   19  C14 UNL     1      22.160   3.573  49.035  1.00  0.00     0.002 A 
HETATM   20  C15 UNL     1      22.723   4.110  50.186  1.00  0.00     0.024 A 
HETATM   21  C16 UNL     1      23.010   3.202  51.196  1.00  0.00     0.041 A 
HETATM   22 CL1  UNL     1      23.714   3.820  52.650  1.00  0.00    -0.084 Cl
ENDBRANCH   5  16
TORSDOF 3
ENDMDL
