MODEL 1
REMARK VINA RESULT:      -8.3      0.000      0.000
REMARK  6 active torsions:
REMARK  status: ('A' for Active; 'I' for Inactive)
REMARK    1  A    between atoms: C3_3  and  C4_4 
REMARK    2  A    between atoms: C5_5  and  N1_6 
REMARK    3  A    between atoms: N1_6  and  C6_7 
REMARK    4  A    between atoms: C7_9  and  N3_10 
REMARK    5  A    between atoms: N5_16  and  C12_17 
REMARK    6  A    between atoms: C12_17  and  C13_18 
ROOT
HETATM    1  C6  UNL     1      20.291   0.231  52.084  1.00  0.00     0.160 A 
HETATM    2  N2  UNL     1      19.908   0.598  50.831  1.00  0.00    -0.044 NA
HETATM    3  C7  UNL     1      20.790   1.156  49.954  1.00  0.00     0.724 A 
HETATM    4  N4  UNL     1      22.053   1.328  50.382  1.00  0.00    -0.044 NA
HETATM    5  C8  UNL     1      22.483   0.989  51.595  1.00  0.00     0.163 A 
HETATM    6  C9  UNL     1      21.590   0.419  52.495  1.00  0.00     0.059 A 
HETATM    7  C10 UNL     1      22.246   0.159  53.657  1.00  0.00     0.036 A 
HETATM    8  C11 UNL     1      23.551   0.584  53.435  1.00  0.00     0.094 A 
HETATM    9  N5  UNL     1      23.687   1.085  52.189  1.00  0.00    -0.336 N 
ENDROOT
BRANCH   9  10
HETATM   10  C12 UNL     1      24.891   1.627  51.580  1.00  0.00     0.168 C 
BRANCH  10  11
HETATM   11  C13 UNL     1      26.119   1.049  52.180  1.00  0.00    -0.038 A 
HETATM   12  C14 UNL     1      26.423  -0.293  52.139  1.00  0.00     0.010 A 
HETATM   13  C15 UNL     1      27.527  -0.902  52.664  1.00  0.00     0.026 A 
HETATM   14  C16 UNL     1      28.433  -0.067  53.307  1.00  0.00     0.055 A 
HETATM   15 CL1  UNL     1      29.877  -0.779  54.008  1.00  0.00    -0.083 Cl
HETATM   16  C17 UNL     1      28.188   1.288  53.384  1.00  0.00     0.056 A 
HETATM   17 CL2  UNL     1      29.380   2.273  54.211  1.00  0.00    -0.083 Cl
HETATM   18  C18 UNL     1      27.041   1.843  52.826  1.00  0.00     0.034 A 
ENDBRANCH  10  11
ENDBRANCH   9  10
BRANCH   3  19
HETATM   19  N3  UNL     1      20.360   1.529  48.649  1.00  0.00    -0.231 N 
HETATM   20  H9  UNL     1      20.587   2.547  48.728  1.00  0.00     0.174 HD
HETATM   21  H10 UNL     1      20.018   0.648  48.199  1.00  0.00     0.174 HD
ENDBRANCH   3  19
BRANCH   1  22
HETATM   22  N1  UNL     1      19.294  -0.348  52.937  1.00  0.00    -0.350 N 
HETATM   23  H8  UNL     1      19.588  -0.575  53.927  1.00  0.00     0.166 HD
BRANCH  22  24
HETATM   24  C5  UNL     1      18.003  -0.566  52.380  1.00  0.00     0.090 C 
HETATM   25  C4  UNL     1      17.268  -1.627  52.672  1.00  0.00     0.017 C 
BRANCH  25  26
HETATM   26  C3  UNL     1      17.790  -2.622  53.602  1.00  0.00    -0.003 C 
HETATM   27  C2  UNL     1      17.176  -3.798  53.723  1.00  0.00    -0.031 C 
HETATM   28  C1  UNL     1      15.963  -4.022  52.876  1.00  0.00     0.036 C 
ENDBRANCH  25  26
ENDBRANCH  22  24
ENDBRANCH   1  22
TORSDOF 6
ENDMDL
MODEL 2
REMARK VINA RESULT:      -8.1      4.203      7.438
REMARK  6 active torsions:
REMARK  status: ('A' for Active; 'I' for Inactive)
REMARK    1  A    between atoms: C3_3  and  C4_4 
REMARK    2  A    between atoms: C5_5  and  N1_6 
REMARK    3  A    between atoms: N1_6  and  C6_7 
REMARK    4  A    between atoms: C7_9  and  N3_10 
REMARK    5  A    between atoms: N5_16  and  C12_17 
REMARK    6  A    between atoms: C12_17  and  C13_18 
ROOT
HETATM    1  C6  UNL     1      24.936   0.182  52.936  1.00  0.00     0.160 A 
HETATM    2  N2  UNL     1      23.602  -0.036  53.085  1.00  0.00    -0.044 NA
HETATM    3  C7  UNL     1      22.682   0.666  52.363  1.00  0.00     0.724 A 
HETATM    4  N4  UNL     1      23.153   1.583  51.499  1.00  0.00    -0.044 NA
HETATM    5  C8  UNL     1      24.445   1.840  51.313  1.00  0.00     0.163 A 
HETATM    6  C9  UNL     1      25.389   1.128  52.045  1.00  0.00     0.059 A 
HETATM    7  C10 UNL     1      26.631   1.555  51.692  1.00  0.00     0.036 A 
HETATM    8  C11 UNL     1      26.412   2.538  50.733  1.00  0.00     0.094 A 
HETATM    9  N5  UNL     1      25.091   2.705  50.509  1.00  0.00    -0.336 N 
ENDROOT
BRANCH   9  10
HETATM   10  C12 UNL     1      24.461   3.632  49.584  1.00  0.00     0.168 C 
BRANCH  10  11
HETATM   11  C13 UNL     1      25.029   4.998  49.702  1.00  0.00    -0.038 A 
HETATM   12  C14 UNL     1      24.524   5.958  50.549  1.00  0.00     0.010 A 
HETATM   13  C15 UNL     1      24.987   7.232  50.715  1.00  0.00     0.026 A 
HETATM   14  C16 UNL     1      26.085   7.586  49.940  1.00  0.00     0.055 A 
HETATM   15 CL1  UNL     1      26.736   9.209  50.100  1.00  0.00    -0.083 Cl
HETATM   16  C17 UNL     1      26.639   6.670  49.071  1.00  0.00     0.056 A 
HETATM   17 CL2  UNL     1      28.022   7.194  48.128  1.00  0.00    -0.083 Cl
HETATM   18  C18 UNL     1      26.116   5.386  48.951  1.00  0.00     0.034 A 
ENDBRANCH  10  11
ENDBRANCH   9  10
BRANCH   3  19
HETATM   19  N3  UNL     1      21.292   0.415  52.540  1.00  0.00    -0.231 N 
HETATM   20  H9  UNL     1      20.987   0.722  51.588  1.00  0.00     0.174 HD
HETATM   21  H10 UNL     1      21.191   0.044  53.514  1.00  0.00     0.174 HD
ENDBRANCH   3  19
BRANCH   1  22
HETATM   22  N1  UNL     1      25.829  -0.604  53.738  1.00  0.00    -0.350 N 
HETATM   23  H8  UNL     1      26.061  -1.572  53.382  1.00  0.00     0.166 HD
BRANCH  22  24
HETATM   24  C5  UNL     1      26.323  -0.014  54.935  1.00  0.00     0.090 C 
HETATM   25  C4  UNL     1      27.615   0.124  55.183  1.00  0.00     0.017 C 
BRANCH  25  26
HETATM   26  C3  UNL     1      28.584  -0.344  54.199  1.00  0.00    -0.003 C 
HETATM   27  C2  UNL     1      29.480   0.507  53.701  1.00  0.00    -0.031 C 
HETATM   28  C1  UNL     1      29.430   1.917  54.198  1.00  0.00     0.036 C 
ENDBRANCH  25  26
ENDBRANCH  22  24
ENDBRANCH   1  22
TORSDOF 6
ENDMDL
MODEL 3
REMARK VINA RESULT:      -8.1      5.442      8.894
REMARK  6 active torsions:
REMARK  status: ('A' for Active; 'I' for Inactive)
REMARK    1  A    between atoms: C3_3  and  C4_4 
REMARK    2  A    between atoms: C5_5  and  N1_6 
REMARK    3  A    between atoms: N1_6  and  C6_7 
REMARK    4  A    between atoms: C7_9  and  N3_10 
REMARK    5  A    between atoms: N5_16  and  C12_17 
REMARK    6  A    between atoms: C12_17  and  C13_18 
ROOT
HETATM    1  C6  UNL     1      25.825   6.635  49.048  1.00  0.00     0.160 A 
HETATM    2  N2  UNL     1      24.818   7.295  49.680  1.00  0.00    -0.044 NA
HETATM    3  C7  UNL     1      24.056   6.686  50.632  1.00  0.00     0.724 A 
HETATM    4  N4  UNL     1      24.345   5.404  50.919  1.00  0.00    -0.044 NA
HETATM    5  C8  UNL     1      25.316   4.708  50.334  1.00  0.00     0.163 A 
HETATM    6  C9  UNL     1      26.098   5.323  49.362  1.00  0.00     0.059 A 
HETATM    7  C10 UNL     1      27.017   4.429  48.909  1.00  0.00     0.036 A 
HETATM    8  C11 UNL     1      26.771   3.266  49.630  1.00  0.00     0.094 A 
HETATM    9  N5  UNL     1      25.743   3.442  50.488  1.00  0.00    -0.336 N 
ENDROOT
BRANCH   9  10
HETATM   10  C12 UNL     1      25.186   2.467  51.411  1.00  0.00     0.168 C 
BRANCH  10  11
HETATM   11  C13 UNL     1      26.244   1.643  52.046  1.00  0.00    -0.038 A 
HETATM   12  C14 UNL     1      27.325   2.177  52.710  1.00  0.00     0.010 A 
HETATM   13  C15 UNL     1      28.337   1.491  53.318  1.00  0.00     0.026 A 
HETATM   14  C16 UNL     1      28.257   0.105  53.252  1.00  0.00     0.055 A 
HETATM   15 CL1  UNL     1      29.524  -0.845  54.010  1.00  0.00    -0.083 Cl
HETATM   16  C17 UNL     1      27.200  -0.494  52.601  1.00  0.00     0.056 A 
HETATM   17 CL2  UNL     1      27.172  -2.247  52.561  1.00  0.00    -0.083 Cl
HETATM   18  C18 UNL     1      26.201   0.267  52.001  1.00  0.00     0.034 A 
ENDBRANCH  10  11
ENDBRANCH   9  10
BRANCH   3  19
HETATM   19  N3  UNL     1      23.009   7.404  51.277  1.00  0.00    -0.231 N 
HETATM   20  H9  UNL     1      23.187   8.326  50.818  1.00  0.00     0.174 HD
HETATM   21  H10 UNL     1      22.535   6.713  51.906  1.00  0.00     0.174 HD
ENDBRANCH   3  19
BRANCH   1  22
HETATM   22  N1  UNL     1      26.573   7.357  48.060  1.00  0.00    -0.350 N 
HETATM   23  H8  UNL     1      26.287   7.218  47.051  1.00  0.00     0.166 HD
BRANCH  22  24
HETATM   24  C5  UNL     1      27.628   8.193  48.520  1.00  0.00     0.090 C 
HETATM   25  C4  UNL     1      28.893   7.997  48.185  1.00  0.00     0.017 C 
BRANCH  25  26
HETATM   26  C3  UNL     1      29.234   6.882  47.309  1.00  0.00    -0.003 C 
HETATM   27  C2  UNL     1      30.197   6.034  47.666  1.00  0.00    -0.031 C 
HETATM   28  C1  UNL     1      30.878   6.289  48.973  1.00  0.00     0.036 C 
ENDBRANCH  25  26
ENDBRANCH  22  24
ENDBRANCH   1  22
TORSDOF 6
ENDMDL
MODEL 4
REMARK VINA RESULT:      -7.9      4.402      7.687
REMARK  6 active torsions:
REMARK  status: ('A' for Active; 'I' for Inactive)
REMARK    1  A    between atoms: C3_3  and  C4_4 
REMARK    2  A    between atoms: C5_5  and  N1_6 
REMARK    3  A    between atoms: N1_6  and  C6_7 
REMARK    4  A    between atoms: C7_9  and  N3_10 
REMARK    5  A    between atoms: N5_16  and  C12_17 
REMARK    6  A    between atoms: C12_17  and  C13_18 
ROOT
HETATM    1  C6  UNL     1      24.340  -0.208  53.873  1.00  0.00     0.160 A 
HETATM    2  N2  UNL     1      23.245  -0.871  54.331  1.00  0.00    -0.044 NA
HETATM    3  C7  UNL     1      21.983  -0.445  54.040  1.00  0.00     0.724 A 
HETATM    4  N4  UNL     1      21.870   0.660  53.280  1.00  0.00    -0.044 NA
HETATM    5  C8  UNL     1      22.905   1.348  52.805  1.00  0.00     0.163 A 
HETATM    6  C9  UNL     1      24.194   0.920  53.097  1.00  0.00     0.059 A 
HETATM    7  C10 UNL     1      25.081   1.768  52.512  1.00  0.00     0.036 A 
HETATM    8  C11 UNL     1      24.296   2.714  51.863  1.00  0.00     0.094 A 
HETATM    9  N5  UNL     1      22.984   2.455  52.044  1.00  0.00    -0.336 N 
ENDROOT
BRANCH   9  10
HETATM   10  C12 UNL     1      21.853   3.209  51.527  1.00  0.00     0.168 C 
BRANCH  10  11
HETATM   11  C13 UNL     1      21.895   3.317  50.047  1.00  0.00    -0.038 A 
HETATM   12  C14 UNL     1      21.772   2.236  49.204  1.00  0.00     0.010 A 
HETATM   13  C15 UNL     1      21.800   2.252  47.839  1.00  0.00     0.026 A 
HETATM   14  C16 UNL     1      21.973   3.497  47.248  1.00  0.00     0.055 A 
HETATM   15 CL1  UNL     1      22.019   3.596  45.496  1.00  0.00    -0.083 Cl
HETATM   16  C17 UNL     1      22.103   4.622  48.036  1.00  0.00     0.056 A 
HETATM   17 CL2  UNL     1      22.318   6.156  47.215  1.00  0.00    -0.083 Cl
HETATM   18  C18 UNL     1      22.065   4.534  49.425  1.00  0.00     0.034 A 
ENDBRANCH  10  11
ENDBRANCH   9  10
BRANCH   3  19
HETATM   19  N3  UNL     1      20.856  -1.160  54.534  1.00  0.00    -0.231 N 
HETATM   20  H9  UNL     1      20.815  -0.699  55.472  1.00  0.00     0.174 HD
HETATM   21  H10 UNL     1      20.572  -1.812  53.765  1.00  0.00     0.174 HD
ENDBRANCH   3  19
BRANCH   1  22
HETATM   22  N1  UNL     1      25.628  -0.730  54.230  1.00  0.00    -0.350 N 
HETATM   23  H8  UNL     1      25.946  -0.573  55.226  1.00  0.00     0.166 HD
BRANCH  22  24
HETATM   24  C5  UNL     1      26.361  -1.410  53.218  1.00  0.00     0.090 C 
HETATM   25  C4  UNL     1      27.549  -1.002  52.799  1.00  0.00     0.017 C 
BRANCH  25  26
HETATM   26  C3  UNL     1      28.142   0.191  53.391  1.00  0.00    -0.003 C 
HETATM   27  C2  UNL     1      29.391   0.145  53.853  1.00  0.00    -0.031 C 
HETATM   28  C1  UNL     1      30.116  -1.157  53.729  1.00  0.00     0.036 C 
ENDBRANCH  25  26
ENDBRANCH  22  24
ENDBRANCH   1  22
TORSDOF 6
ENDMDL
MODEL 5
REMARK VINA RESULT:      -7.8      4.910      7.528
REMARK  6 active torsions:
REMARK  status: ('A' for Active; 'I' for Inactive)
REMARK    1  A    between atoms: C3_3  and  C4_4 
REMARK    2  A    between atoms: C5_5  and  N1_6 
REMARK    3  A    between atoms: N1_6  and  C6_7 
REMARK    4  A    between atoms: C7_9  and  N3_10 
REMARK    5  A    between atoms: N5_16  and  C12_17 
REMARK    6  A    between atoms: C12_17  and  C13_18 
ROOT
HETATM    1  C6  UNL     1      24.747   1.693  52.730  1.00  0.00     0.160 A 
HETATM    2  N2  UNL     1      23.416   1.865  52.948  1.00  0.00    -0.044 NA
HETATM    3  C7  UNL     1      22.682   2.743  52.207  1.00  0.00     0.724 A 
HETATM    4  N4  UNL     1      23.333   3.431  51.251  1.00  0.00    -0.044 NA
HETATM    5  C8  UNL     1      24.632   3.304  50.994  1.00  0.00     0.163 A 
HETATM    6  C9  UNL     1      25.387   2.411  51.745  1.00  0.00     0.059 A 
HETATM    7  C10 UNL     1      26.675   2.450  51.309  1.00  0.00     0.036 A 
HETATM    8  C11 UNL     1      26.676   3.385  50.281  1.00  0.00     0.094 A 
HETATM    9  N5  UNL     1      25.440   3.897  50.096  1.00  0.00    -0.336 N 
ENDROOT
BRANCH   9  10
HETATM   10  C12 UNL     1      25.034   4.896  49.121  1.00  0.00     0.168 C 
BRANCH  10  11
HETATM   11  C13 UNL     1      25.906   6.095  49.166  1.00  0.00    -0.038 A 
HETATM   12  C14 UNL     1      25.732   7.125  50.063  1.00  0.00     0.010 A 
HETATM   13  C15 UNL     1      26.488   8.258  50.169  1.00  0.00     0.026 A 
HETATM   14  C16 UNL     1      27.541   8.373  49.270  1.00  0.00     0.055 A 
HETATM   15 CL1  UNL     1      28.557   9.803  49.346  1.00  0.00    -0.083 Cl
HETATM   16  C17 UNL     1      27.770   7.376  48.346  1.00  0.00     0.056 A 
HETATM   17 CL2  UNL     1      29.119   7.595  47.246  1.00  0.00    -0.083 Cl
HETATM   18  C18 UNL     1      26.960   6.246  48.292  1.00  0.00     0.034 A 
ENDBRANCH  10  11
ENDBRANCH   9  10
BRANCH   3  19
HETATM   19  N3  UNL     1      21.290   2.902  52.458  1.00  0.00    -0.231 N 
HETATM   20  H9  UNL     1      21.282   3.947  52.474  1.00  0.00     0.174 HD
HETATM   21  H10 UNL     1      20.898   1.932  52.514  1.00  0.00     0.174 HD
ENDBRANCH   3  19
BRANCH   1  22
HETATM   22  N1  UNL     1      25.437   0.748  53.559  1.00  0.00    -0.350 N 
HETATM   23  H8  UNL     1      25.741   1.085  54.514  1.00  0.00     0.166 HD
BRANCH  22  24
HETATM   24  C5  UNL     1      25.650  -0.554  53.027  1.00  0.00     0.090 C 
HETATM   25  C4  UNL     1      26.856  -1.081  52.889  1.00  0.00     0.017 C 
BRANCH  25  26
HETATM   26  C3  UNL     1      28.023  -0.307  53.294  1.00  0.00    -0.003 C 
HETATM   27  C2  UNL     1      29.196  -0.918  53.458  1.00  0.00    -0.031 C 
HETATM   28  C1  UNL     1      29.235  -2.392  53.208  1.00  0.00     0.036 C 
ENDBRANCH  25  26
ENDBRANCH  22  24
ENDBRANCH   1  22
TORSDOF 6
ENDMDL
MODEL 6
REMARK VINA RESULT:      -7.8      4.415      6.777
REMARK  6 active torsions:
REMARK  status: ('A' for Active; 'I' for Inactive)
REMARK    1  A    between atoms: C3_3  and  C4_4 
REMARK    2  A    between atoms: C5_5  and  N1_6 
REMARK    3  A    between atoms: N1_6  and  C6_7 
REMARK    4  A    between atoms: C7_9  and  N3_10 
REMARK    5  A    between atoms: N5_16  and  C12_17 
REMARK    6  A    between atoms: C12_17  and  C13_18 
ROOT
HETATM    1  C6  UNL     1      25.532   1.392  53.133  1.00  0.00     0.160 A 
HETATM    2  N2  UNL     1      26.772   1.375  53.690  1.00  0.00    -0.044 NA
HETATM    3  C7  UNL     1      27.838   1.955  53.069  1.00  0.00     0.724 A 
HETATM    4  N4  UNL     1      27.608   2.545  51.882  1.00  0.00    -0.044 NA
HETATM    5  C8  UNL     1      26.417   2.592  51.290  1.00  0.00     0.163 A 
HETATM    6  C9  UNL     1      25.326   2.003  51.917  1.00  0.00     0.059 A 
HETATM    7  C10 UNL     1      24.226   2.173  51.135  1.00  0.00     0.036 A 
HETATM    8  C11 UNL     1      24.682   2.877  50.026  1.00  0.00     0.094 A 
HETATM    9  N5  UNL     1      26.005   3.126  50.126  1.00  0.00    -0.336 N 
ENDROOT
BRANCH   9  10
HETATM   10  C12 UNL     1      26.845   3.834  49.174  1.00  0.00     0.168 C 
BRANCH  10  11
HETATM   11  C13 UNL     1      26.584   5.295  49.190  1.00  0.00    -0.038 A 
HETATM   12  C14 UNL     1      27.326   6.206  48.473  1.00  0.00     0.010 A 
HETATM   13  C15 UNL     1      27.150   7.560  48.433  1.00  0.00     0.026 A 
HETATM   14  C16 UNL     1      26.108   8.060  49.204  1.00  0.00     0.055 A 
HETATM   15 CL1  UNL     1      25.822   9.793  49.204  1.00  0.00    -0.083 Cl
HETATM   16  C17 UNL     1      25.325   7.201  49.946  1.00  0.00     0.056 A 
HETATM   17 CL2  UNL     1      24.030   7.911  50.892  1.00  0.00    -0.083 Cl
HETATM   18  C18 UNL     1      25.560   5.830  49.941  1.00  0.00     0.034 A 
ENDBRANCH  10  11
ENDBRANCH   9  10
BRANCH   3  19
HETATM   19  N3  UNL     1      29.125   1.921  53.677  1.00  0.00    -0.231 N 
HETATM   20  H9  UNL     1      28.880   2.485  54.522  1.00  0.00     0.174 HD
HETATM   21  H10 UNL     1      29.731   1.363  53.030  1.00  0.00     0.174 HD
ENDBRANCH   3  19
BRANCH   1  22
HETATM   22  N1  UNL     1      24.471   0.755  53.859  1.00  0.00    -0.350 N 
HETATM   23  H8  UNL     1      24.091   1.273  54.699  1.00  0.00     0.166 HD
BRANCH  22  24
HETATM   24  C5  UNL     1      24.024  -0.510  53.387  1.00  0.00     0.090 C 
HETATM   25  C4  UNL     1      22.742  -0.808  53.244  1.00  0.00     0.017 C 
BRANCH  25  26
HETATM   26  C3  UNL     1      21.736   0.193  53.580  1.00  0.00    -0.003 C 
HETATM   27  C2  UNL     1      20.963   0.698  52.620  1.00  0.00    -0.031 C 
HETATM   28  C1  UNL     1      21.186   0.193  51.231  1.00  0.00     0.036 C 
ENDBRANCH  25  26
ENDBRANCH  22  24
ENDBRANCH   1  22
TORSDOF 6
ENDMDL
MODEL 7
REMARK VINA RESULT:      -7.6      4.001      6.408
REMARK  6 active torsions:
REMARK  status: ('A' for Active; 'I' for Inactive)
REMARK    1  A    between atoms: C3_3  and  C4_4 
REMARK    2  A    between atoms: C5_5  and  N1_6 
REMARK    3  A    between atoms: N1_6  and  C6_7 
REMARK    4  A    between atoms: C7_9  and  N3_10 
REMARK    5  A    between atoms: N5_16  and  C12_17 
REMARK    6  A    between atoms: C12_17  and  C13_18 
ROOT
HETATM    1  C6  UNL     1      23.283   4.995  49.216  1.00  0.00     0.160 A 
HETATM    2  N2  UNL     1      23.703   6.059  49.951  1.00  0.00    -0.044 NA
HETATM    3  C7  UNL     1      24.001   5.934  51.276  1.00  0.00     0.724 A 
HETATM    4  N4  UNL     1      23.861   4.712  51.821  1.00  0.00    -0.044 NA
HETATM    5  C8  UNL     1      23.454   3.637  51.151  1.00  0.00     0.163 A 
HETATM    6  C9  UNL     1      23.149   3.757  49.801  1.00  0.00     0.059 A 
HETATM    7  C10 UNL     1      22.759   2.542  49.330  1.00  0.00     0.036 A 
HETATM    8  C11 UNL     1      22.838   1.691  50.427  1.00  0.00     0.094 A 
HETATM    9  N5  UNL     1      23.258   2.359  51.523  1.00  0.00    -0.336 N 
ENDROOT
BRANCH   9  10
HETATM   10  C12 UNL     1      23.467   1.823  52.858  1.00  0.00     0.168 C 
BRANCH  10  11
HETATM   11  C13 UNL     1      24.855   1.335  53.043  1.00  0.00    -0.038 A 
HETATM   12  C14 UNL     1      25.882   2.127  53.505  1.00  0.00     0.010 A 
HETATM   13  C15 UNL     1      27.181   1.755  53.703  1.00  0.00     0.026 A 
HETATM   14  C16 UNL     1      27.488   0.434  53.401  1.00  0.00     0.055 A 
HETATM   15 CL1  UNL     1      29.140  -0.117  53.630  1.00  0.00    -0.083 Cl
HETATM   16  C17 UNL     1      26.505  -0.413  52.934  1.00  0.00     0.056 A 
HETATM   17 CL2  UNL     1      26.973  -2.065  52.576  1.00  0.00    -0.083 Cl
HETATM   18  C18 UNL     1      25.199   0.032  52.755  1.00  0.00     0.034 A 
ENDBRANCH  10  11
ENDBRANCH   9  10
BRANCH   3  19
HETATM   19  N3  UNL     1      24.438   7.065  52.020  1.00  0.00    -0.231 N 
HETATM   20  H9  UNL     1      23.618   7.116  52.666  1.00  0.00     0.174 HD
HETATM   21  H10 UNL     1      25.360   7.340  51.606  1.00  0.00     0.174 HD
ENDBRANCH   3  19
BRANCH   1  22
HETATM   22  N1  UNL     1      22.992   5.222  47.829  1.00  0.00    -0.350 N 
HETATM   23  H8  UNL     1      23.736   4.938  47.134  1.00  0.00     0.166 HD
BRANCH  22  24
HETATM   24  C5  UNL     1      21.733   5.806  47.513  1.00  0.00     0.090 C 
HETATM   25  C4  UNL     1      20.867   5.234  46.692  1.00  0.00     0.017 C 
BRANCH  25  26
HETATM   26  C3  UNL     1      21.202   3.954  46.079  1.00  0.00    -0.003 C 
HETATM   27  C2  UNL     1      21.273   3.857  44.753  1.00  0.00    -0.031 C 
HETATM   28  C1  UNL     1      20.996   5.097  43.964  1.00  0.00     0.036 C 
ENDBRANCH  25  26
ENDBRANCH  22  24
ENDBRANCH   1  22
TORSDOF 6
ENDMDL
MODEL 8
REMARK VINA RESULT:      -7.6      4.167      7.552
REMARK  6 active torsions:
REMARK  status: ('A' for Active; 'I' for Inactive)
REMARK    1  A    between atoms: C3_3  and  C4_4 
REMARK    2  A    between atoms: C5_5  and  N1_6 
REMARK    3  A    between atoms: N1_6  and  C6_7 
REMARK    4  A    between atoms: C7_9  and  N3_10 
REMARK    5  A    between atoms: N5_16  and  C12_17 
REMARK    6  A    between atoms: C12_17  and  C13_18 
ROOT
HETATM    1  C6  UNL     1      24.310  -0.333  53.811  1.00  0.00     0.160 A 
HETATM    2  N2  UNL     1      23.210  -0.891  54.385  1.00  0.00    -0.044 NA
HETATM    3  C7  UNL     1      21.955  -0.441  54.101  1.00  0.00     0.724 A 
HETATM    4  N4  UNL     1      21.853   0.578  53.229  1.00  0.00    -0.044 NA
HETATM    5  C8  UNL     1      22.892   1.163  52.639  1.00  0.00     0.163 A 
HETATM    6  C9  UNL     1      24.175   0.710  52.923  1.00  0.00     0.059 A 
HETATM    7  C10 UNL     1      25.068   1.448  52.212  1.00  0.00     0.036 A 
HETATM    8  C11 UNL     1      24.294   2.354  51.495  1.00  0.00     0.094 A 
HETATM    9  N5  UNL     1      22.982   2.176  51.758  1.00  0.00    -0.336 N 
ENDROOT
BRANCH   9  10
HETATM   10  C12 UNL     1      21.861   2.921  51.208  1.00  0.00     0.168 C 
BRANCH  10  11
HETATM   11  C13 UNL     1      22.312   3.982  50.273  1.00  0.00    -0.038 A 
HETATM   12  C14 UNL     1      22.504   3.774  48.927  1.00  0.00     0.010 A 
HETATM   13  C15 UNL     1      22.915   4.693  48.004  1.00  0.00     0.026 A 
HETATM   14  C16 UNL     1      23.164   5.972  48.488  1.00  0.00     0.055 A 
HETATM   15 CL1  UNL     1      23.697   7.207  47.360  1.00  0.00    -0.083 Cl
HETATM   16  C17 UNL     1      22.990   6.247  49.828  1.00  0.00     0.056 A 
HETATM   17 CL2  UNL     1      23.325   7.884  50.361  1.00  0.00    -0.083 Cl
HETATM   18  C18 UNL     1      22.569   5.261  50.715  1.00  0.00     0.034 A 
ENDBRANCH  10  11
ENDBRANCH   9  10
BRANCH   3  19
HETATM   19  N3  UNL     1      20.823  -1.046  54.716  1.00  0.00    -0.231 N 
HETATM   20  H9  UNL     1      20.495  -0.200  55.236  1.00  0.00     0.174 HD
HETATM   21  H10 UNL     1      20.817  -2.041  54.388  1.00  0.00     0.174 HD
ENDBRANCH   3  19
BRANCH   1  22
HETATM   22  N1  UNL     1      25.590  -0.872  54.171  1.00  0.00    -0.350 N 
HETATM   23  H8  UNL     1      25.907  -1.734  53.648  1.00  0.00     0.166 HD
BRANCH  22  24
HETATM   24  C5  UNL     1      26.317  -0.201  55.193  1.00  0.00     0.090 C 
HETATM   25  C4  UNL     1      27.566   0.206  55.033  1.00  0.00     0.017 C 
BRANCH  25  26
HETATM   26  C3  UNL     1      28.237  -0.036  53.761  1.00  0.00    -0.003 C 
HETATM   27  C2  UNL     1      28.737   0.990  53.074  1.00  0.00    -0.031 C 
HETATM   28  C1  UNL     1      28.572   2.352  53.669  1.00  0.00     0.036 C 
ENDBRANCH  25  26
ENDBRANCH  22  24
ENDBRANCH   1  22
TORSDOF 6
ENDMDL
MODEL 9
REMARK VINA RESULT:      -7.6      4.087      8.365
REMARK  6 active torsions:
REMARK  status: ('A' for Active; 'I' for Inactive)
REMARK    1  A    between atoms: C3_3  and  C4_4 
REMARK    2  A    between atoms: C5_5  and  N1_6 
REMARK    3  A    between atoms: N1_6  and  C6_7 
REMARK    4  A    between atoms: C7_9  and  N3_10 
REMARK    5  A    between atoms: N5_16  and  C12_17 
REMARK    6  A    between atoms: C12_17  and  C13_18 
ROOT
HETATM    1  C6  UNL     1      24.501   4.681  50.092  1.00  0.00     0.160 A 
HETATM    2  N2  UNL     1      24.567   5.258  51.321  1.00  0.00    -0.044 NA
HETATM    3  C7  UNL     1      23.729   4.883  52.329  1.00  0.00     0.724 A 
HETATM    4  N4  UNL     1      22.834   3.917  52.053  1.00  0.00    -0.044 NA
HETATM    5  C8  UNL     1      22.723   3.318  50.870  1.00  0.00     0.163 A 
HETATM    6  C9  UNL     1      23.575   3.695  49.838  1.00  0.00     0.059 A 
HETATM    7  C10 UNL     1      23.281   2.955  48.735  1.00  0.00     0.036 A 
HETATM    8  C11 UNL     1      22.236   2.126  49.128  1.00  0.00     0.094 A 
HETATM    9  N5  UNL     1      21.904   2.351  50.418  1.00  0.00    -0.336 N 
ENDROOT
BRANCH   9  10
HETATM   10  C12 UNL     1      20.867   1.689  51.192  1.00  0.00     0.168 C 
BRANCH  10  11
HETATM   11  C13 UNL     1      21.438   0.884  52.301  1.00  0.00    -0.038 A 
HETATM   12  C14 UNL     1      20.721   0.514  53.415  1.00  0.00     0.010 A 
HETATM   13  C15 UNL     1      21.170  -0.223  54.474  1.00  0.00     0.026 A 
HETATM   14  C16 UNL     1      22.495  -0.636  54.408  1.00  0.00     0.055 A 
HETATM   15 CL1  UNL     1      23.144  -1.587  55.734  1.00  0.00    -0.083 Cl
HETATM   16  C17 UNL     1      23.269  -0.299  53.318  1.00  0.00     0.056 A 
HETATM   17 CL2  UNL     1      24.931  -0.858  53.310  1.00  0.00    -0.083 Cl
HETATM   18  C18 UNL     1      22.747   0.456  52.272  1.00  0.00     0.034 A 
ENDBRANCH  10  11
ENDBRANCH   9  10
BRANCH   3  19
HETATM   19  N3  UNL     1      23.822   5.506  53.605  1.00  0.00    -0.231 N 
HETATM   20  H9  UNL     1      23.932   4.630  54.165  1.00  0.00     0.174 HD
HETATM   21  H10 UNL     1      23.743   6.535  53.428  1.00  0.00     0.174 HD
ENDBRANCH   3  19
BRANCH   1  22
HETATM   22  N1  UNL     1      25.423   5.140  49.094  1.00  0.00    -0.350 N 
HETATM   23  H8  UNL     1      25.093   5.924  48.466  1.00  0.00     0.166 HD
BRANCH  22  24
HETATM   24  C5  UNL     1      26.694   4.504  49.037  1.00  0.00     0.090 C 
HETATM   25  C4  UNL     1      27.773   5.104  48.559  1.00  0.00     0.017 C 
BRANCH  25  26
HETATM   26  C3  UNL     1      27.669   6.472  48.068  1.00  0.00    -0.003 C 
HETATM   27  C2  UNL     1      28.768   7.121  47.686  1.00  0.00    -0.031 C 
HETATM   28  C1  UNL     1      30.064   6.382  47.789  1.00  0.00     0.036 C 
ENDBRANCH  25  26
ENDBRANCH  22  24
ENDBRANCH   1  22
TORSDOF 6
ENDMDL
