MODEL 1
REMARK VINA RESULT:      -8.7      0.000      0.000
REMARK  3 active torsions:
REMARK  status: ('A' for Active; 'I' for Inactive)
REMARK    1  A    between atoms: C8_8  and  S1_9 
REMARK    2  A    between atoms: C10_12  and  N2_13 
REMARK    3  A    between atoms: N2_13  and  C11_14 
ROOT
HETATM    1  C1  UNL     1      17.989  -1.986  53.812  1.00  0.00     0.036 C 
HETATM    2  C2  UNL     1      18.543  -0.920  52.947  1.00  0.00    -0.022 C 
HETATM    3  C3  UNL     1      19.799  -0.550  52.981  1.00  0.00    -0.035 C 
HETATM    4  C4  UNL     1      20.582  -1.314  53.973  1.00  0.00     0.005 C 
HETATM    5  C5  UNL     1      21.911  -1.106  54.166  1.00  0.00    -0.019 C 
HETATM    6  C6  UNL     1      23.185  -0.462  53.890  1.00  0.00     0.083 C 
HETATM    7  C7  UNL     1      23.585   0.454  52.968  1.00  0.00     0.035 A 
HETATM    8  C8  UNL     1      25.016   0.665  53.316  1.00  0.00     0.082 A 
HETATM    9  N1  UNL     1      25.604   1.509  52.490  1.00  0.00    -0.228 NA
HETATM   10  C10 UNL     1      24.579   1.880  51.565  1.00  0.00     0.133 A 
HETATM   11  C17 UNL     1      23.406   1.325  51.763  1.00  0.00     0.005 A 
HETATM   12  C18 UNL     1      22.197   1.353  50.895  1.00  0.00     0.308 C 
HETATM   13  N3  UNL     1      21.284   0.328  51.259  1.00  0.00     0.091 NA
HETATM   14  C19 UNL     1      20.392   0.617  52.301  1.00  0.00     0.308 C 
HETATM   15  H17 UNL     1      20.761   0.006  50.420  1.00  0.00     0.316 HD
ENDROOT
BRANCH  10  16
HETATM   16  N2  UNL     1      24.842   2.796  50.505  1.00  0.00    -0.341 N 
HETATM   17  H11 UNL     1      25.027   2.201  49.666  1.00  0.00     0.167 HD
BRANCH  16  18
HETATM   18  C11 UNL     1      24.864   4.210  50.510  1.00  0.00     0.035 A 
HETATM   19  C12 UNL     1      24.028   4.924  51.340  1.00  0.00     0.032 A 
HETATM   20  C13 UNL     1      24.142   6.299  51.258  1.00  0.00     0.046 A 
HETATM   21  C14 UNL     1      25.037   6.919  50.398  1.00  0.00     0.133 A 
HETATM   22  F1  UNL     1      25.190   8.260  50.276  1.00  0.00    -0.205 F 
HETATM   23  C15 UNL     1      25.861   6.155  49.578  1.00  0.00     0.051 A 
HETATM   24 BR1  UNL     1      27.120   6.943  48.368  1.00  0.00    -0.048 Br
HETATM   25  C16 UNL     1      25.766   4.782  49.642  1.00  0.00     0.051 A 
ENDBRANCH  16  18
ENDBRANCH  10  16
BRANCH   8  26
HETATM   26  S1  UNL     1      26.050   0.021  54.585  1.00  0.00    -0.118 SA
HETATM   27  C9  UNL     1      27.808   0.246  54.363  1.00  0.00     0.097 C 
ENDBRANCH   8  26
TORSDOF 3
ENDMDL
MODEL 2
REMARK VINA RESULT:      -8.7      3.494      5.376
REMARK  3 active torsions:
REMARK  status: ('A' for Active; 'I' for Inactive)
REMARK    1  A    between atoms: C8_8  and  S1_9 
REMARK    2  A    between atoms: C10_12  and  N2_13 
REMARK    3  A    between atoms: N2_13  and  C11_14 
ROOT
HETATM    1  C1  UNL     1      15.748  -1.269  52.447  1.00  0.00     0.036 C 
HETATM    2  C2  UNL     1      17.035  -1.484  53.145  1.00  0.00    -0.022 C 
HETATM    3  C3  UNL     1      18.163  -0.950  52.749  1.00  0.00    -0.035 C 
HETATM    4  C4  UNL     1      17.997  -0.120  51.539  1.00  0.00     0.005 C 
HETATM    5  C5  UNL     1      19.034   0.543  50.964  1.00  0.00    -0.019 C 
HETATM    6  C6  UNL     1      20.423   0.962  50.868  1.00  0.00     0.083 C 
HETATM    7  C7  UNL     1      21.511   0.770  51.663  1.00  0.00     0.035 A 
HETATM    8  C8  UNL     1      22.591   1.461  50.909  1.00  0.00     0.082 A 
HETATM    9  N1  UNL     1      23.743   1.419  51.552  1.00  0.00    -0.228 NA
HETATM   10  C10 UNL     1      23.458   0.703  52.755  1.00  0.00     0.133 A 
HETATM   11  C17 UNL     1      22.215   0.303  52.898  1.00  0.00     0.005 A 
HETATM   12  C18 UNL     1      21.555  -0.297  54.089  1.00  0.00     0.308 C 
HETATM   13  N3  UNL     1      20.140  -0.227  53.978  1.00  0.00     0.091 NA
HETATM   14  C19 UNL     1      19.511  -1.256  53.264  1.00  0.00     0.308 C 
HETATM   15  H17 UNL     1      19.715  -0.135  54.923  1.00  0.00     0.316 HD
ENDROOT
BRANCH  10  16
HETATM   16  N2  UNL     1      24.475   0.455  53.722  1.00  0.00    -0.341 N 
HETATM   17  H11 UNL     1      24.024   0.630  54.648  1.00  0.00     0.167 HD
BRANCH  16  18
HETATM   18  C11 UNL     1      25.821   0.056  53.543  1.00  0.00     0.035 A 
HETATM   19  C12 UNL     1      26.125  -1.178  53.013  1.00  0.00     0.032 A 
HETATM   20  C13 UNL     1      27.472  -1.454  52.885  1.00  0.00     0.046 A 
HETATM   21  C14 UNL     1      28.454  -0.549  53.265  1.00  0.00     0.133 A 
HETATM   22  F1  UNL     1      29.788  -0.767  53.162  1.00  0.00    -0.205 F 
HETATM   23  C15 UNL     1      28.097   0.685  53.796  1.00  0.00     0.051 A 
HETATM   24 BR1  UNL     1      29.399   1.982  54.340  1.00  0.00    -0.048 Br
HETATM   25  C16 UNL     1      26.760   0.984  53.934  1.00  0.00     0.051 A 
ENDBRANCH  16  18
ENDBRANCH  10  16
BRANCH   8  26
HETATM   26  S1  UNL     1      22.629   2.300  49.364  1.00  0.00    -0.118 SA
HETATM   27  C9  UNL     1      23.920   3.519  49.157  1.00  0.00     0.097 C 
ENDBRANCH   8  26
TORSDOF 3
ENDMDL
MODEL 3
REMARK VINA RESULT:      -8.4      4.480      7.803
REMARK  3 active torsions:
REMARK  status: ('A' for Active; 'I' for Inactive)
REMARK    1  A    between atoms: C8_8  and  S1_9 
REMARK    2  A    between atoms: C10_12  and  N2_13 
REMARK    3  A    between atoms: N2_13  and  C11_14 
ROOT
HETATM    1  C1  UNL     1      30.125  -0.470  53.455  1.00  0.00     0.036 C 
HETATM    2  C2  UNL     1      28.775  -0.778  53.978  1.00  0.00    -0.022 C 
HETATM    3  C3  UNL     1      27.704  -0.105  53.640  1.00  0.00    -0.035 C 
HETATM    4  C4  UNL     1      28.002   0.983  52.687  1.00  0.00     0.005 C 
HETATM    5  C5  UNL     1      27.036   1.799  52.189  1.00  0.00    -0.019 C 
HETATM    6  C6  UNL     1      25.666   2.259  52.041  1.00  0.00     0.083 C 
HETATM    7  C7  UNL     1      24.474   1.803  52.512  1.00  0.00     0.035 A 
HETATM    8  C8  UNL     1      23.508   2.802  51.980  1.00  0.00     0.082 A 
HETATM    9  N1  UNL     1      22.264   2.503  52.302  1.00  0.00    -0.228 NA
HETATM   10  C10 UNL     1      22.368   1.293  53.055  1.00  0.00     0.133 A 
HETATM   11  C17 UNL     1      23.585   0.827  53.218  1.00  0.00     0.005 A 
HETATM   12  C18 UNL     1      24.021  -0.479  53.783  1.00  0.00     0.308 C 
HETATM   13  N3  UNL     1      25.366  -0.765  53.430  1.00  0.00     0.091 NA
HETATM   14  C19 UNL     1      26.365  -0.217  54.247  1.00  0.00     0.308 C 
HETATM   15  H17 UNL     1      25.499  -1.792  53.343  1.00  0.00     0.316 HD
ENDROOT
BRANCH  10  16
HETATM   16  N2  UNL     1      21.209   0.654  53.583  1.00  0.00    -0.341 N 
HETATM   17  H11 UNL     1      21.408   0.518  54.600  1.00  0.00     0.167 HD
BRANCH  16  18
HETATM   18  C11 UNL     1      20.015   0.258  52.936  1.00  0.00     0.035 A 
HETATM   19  C12 UNL     1      19.515   0.985  51.878  1.00  0.00     0.032 A 
HETATM   20  C13 UNL     1      18.344   0.501  51.326  1.00  0.00     0.046 A 
HETATM   21  C14 UNL     1      17.714  -0.640  51.804  1.00  0.00     0.133 A 
HETATM   22  F1  UNL     1      16.566  -1.158  51.303  1.00  0.00    -0.205 F 
HETATM   23  C15 UNL     1      18.258  -1.339  52.876  1.00  0.00     0.051 A 
HETATM   24 BR1  UNL     1      17.443  -2.921  53.588  1.00  0.00    -0.048 Br
HETATM   25  C16 UNL     1      19.425  -0.877  53.444  1.00  0.00     0.051 A 
ENDBRANCH  16  18
ENDBRANCH  10  16
BRANCH   8  26
HETATM   26  S1  UNL     1      23.701   4.268  51.026  1.00  0.00    -0.118 SA
HETATM   27  C9  UNL     1      23.836   4.049  49.258  1.00  0.00     0.097 C 
ENDBRANCH   8  26
TORSDOF 3
ENDMDL
MODEL 4
REMARK VINA RESULT:      -8.3      2.977      4.612
REMARK  3 active torsions:
REMARK  status: ('A' for Active; 'I' for Inactive)
REMARK    1  A    between atoms: C8_8  and  S1_9 
REMARK    2  A    between atoms: C10_12  and  N2_13 
REMARK    3  A    between atoms: N2_13  and  C11_14 
ROOT
HETATM    1  C1  UNL     1      21.681  -1.653  54.348  1.00  0.00     0.036 C 
HETATM    2  C2  UNL     1      22.672  -0.566  54.178  1.00  0.00    -0.022 C 
HETATM    3  C3  UNL     1      22.725   0.195  53.115  1.00  0.00    -0.035 C 
HETATM    4  C4  UNL     1      21.693  -0.158  52.119  1.00  0.00     0.005 C 
HETATM    5  C5  UNL     1      21.556   0.513  50.945  1.00  0.00    -0.019 C 
HETATM    6  C6  UNL     1      21.904   1.546  49.984  1.00  0.00     0.083 C 
HETATM    7  C7  UNL     1      22.792   2.577  50.004  1.00  0.00     0.035 A 
HETATM    8  C8  UNL     1      22.616   3.186  48.659  1.00  0.00     0.082 A 
HETATM    9  N1  UNL     1      23.380   4.250  48.498  1.00  0.00    -0.228 NA
HETATM   10  C10 UNL     1      24.084   4.379  49.735  1.00  0.00     0.133 A 
HETATM   11  C17 UNL     1      23.806   3.473  50.644  1.00  0.00     0.005 A 
HETATM   12  C18 UNL     1      24.216   3.424  52.074  1.00  0.00     0.308 C 
HETATM   13  N3  UNL     1      23.405   2.516  52.807  1.00  0.00     0.091 NA
HETATM   14  C19 UNL     1      23.783   1.166  52.779  1.00  0.00     0.308 C 
HETATM   15  H17 UNL     1      23.311   2.841  53.790  1.00  0.00     0.316 HD
ENDROOT
BRANCH  10  16
HETATM   16  N2  UNL     1      25.019   5.434  49.943  1.00  0.00    -0.341 N 
HETATM   17  H11 UNL     1      24.612   6.017  50.708  1.00  0.00     0.167 HD
BRANCH  16  18
HETATM   18  C11 UNL     1      26.249   5.698  49.296  1.00  0.00     0.035 A 
HETATM   19  C12 UNL     1      27.122   4.675  48.999  1.00  0.00     0.032 A 
HETATM   20  C13 UNL     1      28.290   5.055  48.366  1.00  0.00     0.046 A 
HETATM   21  C14 UNL     1      28.565   6.378  48.048  1.00  0.00     0.133 A 
HETATM   22  F1  UNL     1      29.692   6.807  47.429  1.00  0.00    -0.205 F 
HETATM   23  C15 UNL     1      27.651   7.376  48.369  1.00  0.00     0.051 A 
HETATM   24 BR1  UNL     1      27.964   9.222  47.961  1.00  0.00    -0.048 Br
HETATM   25  C16 UNL     1      26.480   7.022  49.001  1.00  0.00     0.051 A 
ENDBRANCH  16  18
ENDBRANCH  10  16
BRANCH   8  26
HETATM   26  S1  UNL     1      21.610   2.773  47.276  1.00  0.00    -0.118 SA
HETATM   27  C9  UNL     1      21.785   3.813  45.833  1.00  0.00     0.097 C 
ENDBRANCH   8  26
TORSDOF 3
ENDMDL
MODEL 5
REMARK VINA RESULT:      -8.1      7.608     11.058
REMARK  3 active torsions:
REMARK  status: ('A' for Active; 'I' for Inactive)
REMARK    1  A    between atoms: C8_8  and  S1_9 
REMARK    2  A    between atoms: C10_12  and  N2_13 
REMARK    3  A    between atoms: N2_13  and  C11_14 
ROOT
HETATM    1  C1  UNL     1      25.057   4.919  49.204  1.00  0.00     0.036 C 
HETATM    2  C2  UNL     1      26.482   4.587  48.976  1.00  0.00    -0.022 C 
HETATM    3  C3  UNL     1      27.398   5.490  48.732  1.00  0.00    -0.035 C 
HETATM    4  C4  UNL     1      26.845   6.859  48.712  1.00  0.00     0.005 C 
HETATM    5  C5  UNL     1      27.621   7.953  48.492  1.00  0.00    -0.019 C 
HETATM    6  C6  UNL     1      28.883   8.628  48.239  1.00  0.00     0.083 C 
HETATM    7  C7  UNL     1      30.171   8.196  48.156  1.00  0.00     0.035 A 
HETATM    8  C8  UNL     1      30.914   9.445  47.839  1.00  0.00     0.082 A 
HETATM    9  N1  UNL     1      32.214   9.236  47.757  1.00  0.00    -0.228 NA
HETATM   10  C10 UNL     1      32.372   7.840  48.021  1.00  0.00     0.133 A 
HETATM   11  C17 UNL     1      31.263   7.179  48.261  1.00  0.00     0.005 A 
HETATM   12  C18 UNL     1      31.091   5.780  48.742  1.00  0.00     0.308 C 
HETATM   13  N3  UNL     1      29.780   5.571  49.245  1.00  0.00     0.091 NA
HETATM   14  C19 UNL     1      28.789   5.241  48.310  1.00  0.00     0.308 C 
HETATM   15  H17 UNL     1      29.802   4.864  50.007  1.00  0.00     0.316 HD
ENDROOT
BRANCH  10  16
HETATM   16  N2  UNL     1      33.660   7.232  48.021  1.00  0.00    -0.341 N 
HETATM   17  H11 UNL     1      34.266   7.867  48.587  1.00  0.00     0.167 HD
BRANCH  16  18
HETATM   18  C11 UNL     1      34.099   6.033  47.410  1.00  0.00     0.035 A 
HETATM   19  C12 UNL     1      34.672   5.030  48.160  1.00  0.00     0.032 A 
HETATM   20  C13 UNL     1      35.059   3.908  47.453  1.00  0.00     0.046 A 
HETATM   21  C14 UNL     1      34.883   3.797  46.082  1.00  0.00     0.133 A 
HETATM   22  F1  UNL     1      35.243   2.721  45.339  1.00  0.00    -0.205 F 
HETATM   23  C15 UNL     1      34.299   4.837  45.367  1.00  0.00     0.051 A 
HETATM   24 BR1  UNL     1      34.023   4.753  43.473  1.00  0.00    -0.048 Br
HETATM   25  C16 UNL     1      33.904   5.967  46.049  1.00  0.00     0.051 A 
ENDBRANCH  16  18
ENDBRANCH  10  16
BRANCH   8  26
HETATM   26  S1  UNL     1      30.407  11.106  47.560  1.00  0.00    -0.118 SA
HETATM   27  C9  UNL     1      30.421  12.187  48.983  1.00  0.00     0.097 C 
ENDBRANCH   8  26
TORSDOF 3
ENDMDL
MODEL 6
REMARK VINA RESULT:      -8.1      3.956      7.528
REMARK  3 active torsions:
REMARK  status: ('A' for Active; 'I' for Inactive)
REMARK    1  A    between atoms: C8_8  and  S1_9 
REMARK    2  A    between atoms: C10_12  and  N2_13 
REMARK    3  A    between atoms: N2_13  and  C11_14 
ROOT
HETATM    1  C1  UNL     1      27.539   5.538  48.576  1.00  0.00     0.036 C 
HETATM    2  C2  UNL     1      26.100   5.314  48.841  1.00  0.00    -0.022 C 
HETATM    3  C3  UNL     1      25.656   4.375  49.637  1.00  0.00    -0.035 C 
HETATM    4  C4  UNL     1      26.748   3.577  50.229  1.00  0.00     0.005 C 
HETATM    5  C5  UNL     1      26.517   2.559  51.098  1.00  0.00    -0.019 C 
HETATM    6  C6  UNL     1      25.665   1.695  51.899  1.00  0.00     0.083 C 
HETATM    7  C7  UNL     1      24.327   1.668  52.138  1.00  0.00     0.035 A 
HETATM    8  C8  UNL     1      24.176   0.483  53.025  1.00  0.00     0.082 A 
HETATM    9  N1  UNL     1      22.926   0.311  53.407  1.00  0.00    -0.228 NA
HETATM   10  C10 UNL     1      22.209   1.381  52.788  1.00  0.00     0.133 A 
HETATM   11  C17 UNL     1      22.929   2.198  52.054  1.00  0.00     0.005 A 
HETATM   12  C18 UNL     1      22.536   3.491  51.431  1.00  0.00     0.308 C 
HETATM   13  N3  UNL     1      23.680   4.247  51.060  1.00  0.00     0.091 NA
HETATM   14  C19 UNL     1      24.251   3.960  49.812  1.00  0.00     0.308 C 
HETATM   15  H17 UNL     1      23.471   5.264  51.133  1.00  0.00     0.316 HD
ENDROOT
BRANCH  10  16
HETATM   16  N2  UNL     1      20.804   1.530  52.973  1.00  0.00    -0.341 N 
HETATM   17  H11 UNL     1      20.670   2.515  53.294  1.00  0.00     0.167 HD
BRANCH  16  18
HETATM   18  C11 UNL     1      19.758   0.595  52.783  1.00  0.00     0.035 A 
HETATM   19  C12 UNL     1      19.590  -0.459  53.653  1.00  0.00     0.032 A 
HETATM   20  C13 UNL     1      18.535  -1.303  53.366  1.00  0.00     0.046 A 
HETATM   21  C14 UNL     1      17.700  -1.103  52.276  1.00  0.00     0.133 A 
HETATM   22  F1  UNL     1      16.652  -1.899  51.947  1.00  0.00    -0.205 F 
HETATM   23  C15 UNL     1      17.911  -0.024  51.425  1.00  0.00     0.051 A 
HETATM   24 BR1  UNL     1      16.798   0.313  49.901  1.00  0.00    -0.048 Br
HETATM   25  C16 UNL     1      18.956   0.832  51.690  1.00  0.00     0.051 A 
ENDBRANCH  16  18
ENDBRANCH  10  16
BRANCH   8  26
HETATM   26  S1  UNL     1      25.317  -0.703  53.646  1.00  0.00    -0.118 SA
HETATM   27  C9  UNL     1      26.471  -0.119  54.880  1.00  0.00     0.097 C 
ENDBRANCH   8  26
TORSDOF 3
ENDMDL
MODEL 7
REMARK VINA RESULT:      -8.0      3.885      7.543
REMARK  3 active torsions:
REMARK  status: ('A' for Active; 'I' for Inactive)
REMARK    1  A    between atoms: C8_8  and  S1_9 
REMARK    2  A    between atoms: C10_12  and  N2_13 
REMARK    3  A    between atoms: N2_13  and  C11_14 
ROOT
HETATM    1  C1  UNL     1      26.191   6.715  47.967  1.00  0.00     0.036 C 
HETATM    2  C2  UNL     1      24.998   6.221  48.692  1.00  0.00    -0.022 C 
HETATM    3  C3  UNL     1      25.001   5.133  49.419  1.00  0.00    -0.035 C 
HETATM    4  C4  UNL     1      26.319   4.466  49.426  1.00  0.00     0.005 C 
HETATM    5  C5  UNL     1      26.553   3.327  50.129  1.00  0.00    -0.019 C 
HETATM    6  C6  UNL     1      26.176   2.243  51.021  1.00  0.00     0.083 C 
HETATM    7  C7  UNL     1      25.043   1.962  51.720  1.00  0.00     0.035 A 
HETATM    8  C8  UNL     1      25.377   0.672  52.380  1.00  0.00     0.082 A 
HETATM    9  N1  UNL     1      24.396   0.247  53.153  1.00  0.00    -0.228 NA
HETATM   10  C10 UNL     1      23.382   1.247  53.031  1.00  0.00     0.133 A 
HETATM   11  C17 UNL     1      23.670   2.255  52.240  1.00  0.00     0.005 A 
HETATM   12  C18 UNL     1      22.927   3.528  52.036  1.00  0.00     0.308 C 
HETATM   13  N3  UNL     1      23.750   4.505  51.415  1.00  0.00     0.091 NA
HETATM   14  C19 UNL     1      23.826   4.469  50.015  1.00  0.00     0.308 C 
HETATM   15  H17 UNL     1      23.472   5.456  51.733  1.00  0.00     0.316 HD
ENDROOT
BRANCH  10  16
HETATM   16  N2  UNL     1      22.148   1.133  53.735  1.00  0.00    -0.341 N 
HETATM   17  H11 UNL     1      22.108   1.970  54.359  1.00  0.00     0.167 HD
BRANCH  16  18
HETATM   18  C11 UNL     1      21.147   0.136  53.658  1.00  0.00     0.035 A 
HETATM   19  C12 UNL     1      21.272  -1.042  54.360  1.00  0.00     0.032 A 
HETATM   20  C13 UNL     1      20.231  -1.937  54.207  1.00  0.00     0.046 A 
HETATM   21  C14 UNL     1      19.133  -1.668  53.403  1.00  0.00     0.133 A 
HETATM   22  F1  UNL     1      18.085  -2.508  53.217  1.00  0.00    -0.205 F 
HETATM   23  C15 UNL     1      19.052  -0.463  52.713  1.00  0.00     0.051 A 
HETATM   24 BR1  UNL     1      17.566  -0.025  51.586  1.00  0.00    -0.048 Br
HETATM   25  C16 UNL     1      20.078   0.446  52.849  1.00  0.00     0.051 A 
ENDBRANCH  16  18
ENDBRANCH  10  16
BRANCH   8  26
HETATM   26  S1  UNL     1      26.794  -0.370  52.331  1.00  0.00    -0.118 SA
HETATM   27  C9  UNL     1      27.994  -0.134  53.633  1.00  0.00     0.097 C 
ENDBRANCH   8  26
TORSDOF 3
ENDMDL
MODEL 8
REMARK VINA RESULT:      -8.0      2.231      5.164
REMARK  3 active torsions:
REMARK  status: ('A' for Active; 'I' for Inactive)
REMARK    1  A    between atoms: C8_8  and  S1_9 
REMARK    2  A    between atoms: C10_12  and  N2_13 
REMARK    3  A    between atoms: N2_13  and  C11_14 
ROOT
HETATM    1  C1  UNL     1      29.707  -0.589  53.833  1.00  0.00     0.036 C 
HETATM    2  C2  UNL     1      28.969   0.512  53.173  1.00  0.00    -0.022 C 
HETATM    3  C3  UNL     1      27.662   0.567  53.121  1.00  0.00    -0.035 C 
HETATM    4  C4  UNL     1      27.024  -0.585  53.788  1.00  0.00     0.005 C 
HETATM    5  C5  UNL     1      25.674  -0.723  53.867  1.00  0.00    -0.019 C 
HETATM    6  C6  UNL     1      24.303  -0.300  53.635  1.00  0.00     0.083 C 
HETATM    7  C7  UNL     1      23.753   0.820  53.094  1.00  0.00     0.035 A 
HETATM    8  C8  UNL     1      22.295   0.531  53.157  1.00  0.00     0.082 A 
HETATM    9  N1  UNL     1      21.574   1.539  52.705  1.00  0.00    -0.228 NA
HETATM   10  C10 UNL     1      22.534   2.530  52.332  1.00  0.00     0.133 A 
HETATM   11  C17 UNL     1      23.792   2.204  52.524  1.00  0.00     0.005 A 
HETATM   12  C18 UNL     1      25.008   3.054  52.415  1.00  0.00     0.308 C 
HETATM   13  N3  UNL     1      26.114   2.450  53.070  1.00  0.00     0.091 NA
HETATM   14  C19 UNL     1      26.852   1.514  52.331  1.00  0.00     0.308 C 
HETATM   15  H17 UNL     1      26.745   3.184  53.448  1.00  0.00     0.316 HD
ENDROOT
BRANCH  10  16
HETATM   16  N2  UNL     1      22.126   3.784  51.792  1.00  0.00    -0.341 N 
HETATM   17  H11 UNL     1      21.425   4.161  52.468  1.00  0.00     0.167 HD
BRANCH  16  18
HETATM   18  C11 UNL     1      22.536   4.439  50.606  1.00  0.00     0.035 A 
HETATM   19  C12 UNL     1      22.419   3.817  49.383  1.00  0.00     0.032 A 
HETATM   20  C13 UNL     1      22.850   4.556  48.298  1.00  0.00     0.046 A 
HETATM   21  C14 UNL     1      23.364   5.838  48.430  1.00  0.00     0.133 A 
HETATM   22  F1  UNL     1      23.801   6.606  47.402  1.00  0.00    -0.205 F 
HETATM   23  C15 UNL     1      23.462   6.424  49.688  1.00  0.00     0.051 A 
HETATM   24 BR1  UNL     1      24.161   8.189  49.945  1.00  0.00    -0.048 Br
HETATM   25  C16 UNL     1      23.039   5.707  50.785  1.00  0.00     0.051 A 
ENDBRANCH  16  18
ENDBRANCH  10  16
BRANCH   8  26
HETATM   26  S1  UNL     1      21.370  -0.861  53.705  1.00  0.00    -0.118 SA
HETATM   27  C9  UNL     1      19.602  -0.783  53.457  1.00  0.00     0.097 C 
ENDBRANCH   8  26
TORSDOF 3
ENDMDL
MODEL 9
REMARK VINA RESULT:      -7.5      4.602      8.102
REMARK  3 active torsions:
REMARK  status: ('A' for Active; 'I' for Inactive)
REMARK    1  A    between atoms: C8_8  and  S1_9 
REMARK    2  A    between atoms: C10_12  and  N2_13 
REMARK    3  A    between atoms: N2_13  and  C11_14 
ROOT
HETATM    1  C1  UNL     1      27.803   8.092  47.014  1.00  0.00     0.036 C 
HETATM    2  C2  UNL     1      28.012   6.862  47.812  1.00  0.00    -0.022 C 
HETATM    3  C3  UNL     1      27.042   6.231  48.423  1.00  0.00    -0.035 C 
HETATM    4  C4  UNL     1      25.733   6.886  48.225  1.00  0.00     0.005 C 
HETATM    5  C5  UNL     1      24.585   6.393  48.758  1.00  0.00    -0.019 C 
HETATM    6  C6  UNL     1      23.809   5.428  49.519  1.00  0.00     0.083 C 
HETATM    7  C7  UNL     1      24.122   4.252  50.127  1.00  0.00     0.035 A 
HETATM    8  C8  UNL     1      22.828   3.844  50.737  1.00  0.00     0.082 A 
HETATM    9  N1  UNL     1      22.919   2.680  51.350  1.00  0.00    -0.228 NA
HETATM   10  C10 UNL     1      24.277   2.278  51.162  1.00  0.00     0.133 A 
HETATM   11  C17 UNL     1      25.026   3.111  50.476  1.00  0.00     0.005 A 
HETATM   12  C18 UNL     1      26.407   2.918  49.954  1.00  0.00     0.308 C 
HETATM   13  N3  UNL     1      26.711   3.874  48.949  1.00  0.00     0.091 NA
HETATM   14  C19 UNL     1      27.182   5.121  49.384  1.00  0.00     0.308 C 
HETATM   15  H17 UNL     1      27.371   3.463  48.259  1.00  0.00     0.316 HD
ENDROOT
BRANCH  10  16
HETATM   16  N2  UNL     1      24.761   1.048  51.693  1.00  0.00    -0.341 N 
HETATM   17  H11 UNL     1      24.211   0.303  51.211  1.00  0.00     0.167 HD
BRANCH  16  18
HETATM   18  C11 UNL     1      25.764   0.809  52.663  1.00  0.00     0.035 A 
HETATM   19  C12 UNL     1      25.902   1.640  53.752  1.00  0.00     0.032 A 
HETATM   20  C13 UNL     1      26.915   1.304  54.630  1.00  0.00     0.046 A 
HETATM   21  C14 UNL     1      27.736   0.204  54.430  1.00  0.00     0.133 A 
HETATM   22  F1  UNL     1      28.743  -0.171  55.257  1.00  0.00    -0.205 F 
HETATM   23  C15 UNL     1      27.557  -0.606  53.314  1.00  0.00     0.051 A 
HETATM   24 BR1  UNL     1      28.653  -2.141  52.975  1.00  0.00    -0.048 Br
HETATM   25  C16 UNL     1      26.555  -0.292  52.423  1.00  0.00     0.051 A 
ENDBRANCH  16  18
ENDBRANCH  10  16
BRANCH   8  26
HETATM   26  S1  UNL     1      21.239   4.597  50.795  1.00  0.00    -0.118 SA
HETATM   27  C9  UNL     1      20.100   4.140  49.496  1.00  0.00     0.097 C 
ENDBRANCH   8  26
TORSDOF 3
ENDMDL
