MODEL 1
REMARK VINA RESULT:      -8.5      0.000      0.000
REMARK  6 active torsions:
REMARK  status: ('A' for Active; 'I' for Inactive)
REMARK    1  A    between atoms: C2_2  and  C3_3 
REMARK    2  A    between atoms: C3_3  and  C4_4 
REMARK    3  A    between atoms: C4_4  and  C5_5 
REMARK    4  A    between atoms: C5_5  and  C6_6 
REMARK    5  A    between atoms: C10_10  and  N1_11 
REMARK    6  A    between atoms: N1_11  and  O1_12 
ROOT
HETATM    1  C6  UNL     1      26.933   0.684  52.536  1.00  0.00     0.062 C 
HETATM    2  C7  UNL     1      25.983   0.021  53.467  1.00  0.00     0.011 C 
HETATM    3  C8  UNL     1      24.875  -0.464  54.043  1.00  0.00     0.023 C 
HETATM    4  C9  UNL     1      23.403  -0.570  53.848  1.00  0.00     0.006 C 
HETATM    5  C10 UNL     1      22.230  -0.373  53.184  1.00  0.00     0.033 C 
HETATM    6  C11 UNL     1      22.429   0.318  51.865  1.00  0.00     0.098 C 
HETATM    7  C12 UNL     1      21.904   1.679  51.879  1.00  0.00    -0.037 A 
HETATM    8  C13 UNL     1      20.606   1.998  52.177  1.00  0.00     0.027 A 
HETATM    9  C14 UNL     1      20.190   3.312  52.164  1.00  0.00     0.116 A 
HETATM   10  N2  UNL     1      20.987   4.363  51.869  1.00  0.00    -0.272 NA
HETATM   11  C15 UNL     1      22.283   4.062  51.569  1.00  0.00     0.130 A 
HETATM   12  C16 UNL     1      22.733   2.759  51.573  1.00  0.00     0.017 A 
HETATM   13  C17 UNL     1      24.167   2.727  51.212  1.00  0.00     0.072 A 
HETATM   14  C18 UNL     1      24.701   3.521  50.228  1.00  0.00     0.052 A 
HETATM   15  C19 UNL     1      26.073   3.330  50.032  1.00  0.00     0.121 A 
HETATM   16  N3  UNL     1      26.792   2.454  50.738  1.00  0.00    -0.245 NA
HETATM   17  C20 UNL     1      26.225   1.700  51.690  1.00  0.00     0.131 A 
HETATM   18  N4  UNL     1      24.925   1.875  51.885  1.00  0.00    -0.232 NA
ENDROOT
BRANCH   1  19
HETATM   19  C5  UNL     1      27.954   1.408  53.381  1.00  0.00     0.013 C 
BRANCH  19  20
HETATM   20  C4  UNL     1      28.769   0.500  54.236  1.00  0.00     0.001 C 
BRANCH  20  21
HETATM   21  C3  UNL     1      29.928  -0.127  53.495  1.00  0.00    -0.000 C 
BRANCH  21  22
HETATM   22  C2  UNL     1      30.092  -1.592  53.854  1.00  0.00    -0.005 C 
HETATM   23  C1  UNL     1      28.983  -2.367  53.134  1.00  0.00     0.005 C 
ENDBRANCH  21  22
ENDBRANCH  20  21
ENDBRANCH  19  20
ENDBRANCH   1  19
BRANCH   5  24
HETATM   24  N1  UNL     1      21.098  -0.892  53.845  1.00  0.00    -0.273 N 
HETATM   25  H16 UNL     1      20.068  -0.921  53.622  1.00  0.00     0.193 HD
BRANCH  24  26
HETATM   26  O1  UNL     1      21.178  -1.526  55.040  1.00  0.00    -0.290 OA
HETATM   27  H17 UNL     1      20.616  -2.337  55.065  1.00  0.00     0.244 HD
ENDBRANCH  24  26
ENDBRANCH   5  24
TORSDOF 6
ENDMDL
MODEL 2
REMARK VINA RESULT:      -8.1      2.515      5.409
REMARK  6 active torsions:
REMARK  status: ('A' for Active; 'I' for Inactive)
REMARK    1  A    between atoms: C2_2  and  C3_3 
REMARK    2  A    between atoms: C3_3  and  C4_4 
REMARK    3  A    between atoms: C4_4  and  C5_5 
REMARK    4  A    between atoms: C5_5  and  C6_6 
REMARK    5  A    between atoms: C10_10  and  N1_11 
REMARK    6  A    between atoms: N1_11  and  O1_12 
ROOT
HETATM    1  C6  UNL     1      25.344   3.215  50.091  1.00  0.00     0.062 C 
HETATM    2  C7  UNL     1      26.299   2.947  51.198  1.00  0.00     0.011 C 
HETATM    3  C8  UNL     1      26.947   2.392  52.231  1.00  0.00     0.023 C 
HETATM    4  C9  UNL     1      26.936   1.192  53.112  1.00  0.00     0.006 C 
HETATM    5  C10 UNL     1      26.470  -0.009  53.554  1.00  0.00     0.033 C 
HETATM    6  C11 UNL     1      25.323  -0.516  52.728  1.00  0.00     0.098 C 
HETATM    7  C12 UNL     1      24.065  -0.485  53.465  1.00  0.00    -0.037 A 
HETATM    8  C13 UNL     1      23.861  -1.122  54.661  1.00  0.00     0.027 A 
HETATM    9  C14 UNL     1      22.637  -1.043  55.292  1.00  0.00     0.116 A 
HETATM   10  N2  UNL     1      21.572  -0.363  54.813  1.00  0.00    -0.272 NA
HETATM   11  C15 UNL     1      21.760   0.275  53.623  1.00  0.00     0.130 A 
HETATM   12  C16 UNL     1      22.969   0.219  52.964  1.00  0.00     0.017 A 
HETATM   13  C17 UNL     1      22.888   0.994  51.707  1.00  0.00     0.072 A 
HETATM   14  C18 UNL     1      21.784   0.970  50.892  1.00  0.00     0.052 A 
HETATM   15  C19 UNL     1      21.912   1.761  49.746  1.00  0.00     0.121 A 
HETATM   16  N3  UNL     1      23.009   2.471  49.473  1.00  0.00    -0.245 NA
HETATM   17  C20 UNL     1      24.064   2.463  50.301  1.00  0.00     0.131 A 
HETATM   18  N4  UNL     1      23.951   1.717  51.391  1.00  0.00    -0.232 NA
ENDROOT
BRANCH   1  19
HETATM   19  C5  UNL     1      25.030   4.691  50.118  1.00  0.00     0.013 C 
BRANCH  19  20
HETATM   20  C4  UNL     1      25.456   5.412  48.885  1.00  0.00     0.001 C 
BRANCH  20  21
HETATM   21  C3  UNL     1      26.433   6.532  49.163  1.00  0.00    -0.000 C 
BRANCH  21  22
HETATM   22  C2  UNL     1      27.588   6.521  48.181  1.00  0.00    -0.005 C 
HETATM   23  C1  UNL     1      28.378   5.229  48.418  1.00  0.00     0.005 C 
ENDBRANCH  21  22
ENDBRANCH  20  21
ENDBRANCH  19  20
ENDBRANCH   1  19
BRANCH   5  24
HETATM   24  N1  UNL     1      27.182  -0.537  54.650  1.00  0.00    -0.273 N 
HETATM   25  H16 UNL     1      26.914  -1.123  55.485  1.00  0.00     0.193 HD
BRANCH  24  26
HETATM   26  O1  UNL     1      28.513  -0.344  54.817  1.00  0.00    -0.290 OA
HETATM   27  H17 UNL     1      29.045  -1.067  54.408  1.00  0.00     0.244 HD
ENDBRANCH  24  26
ENDBRANCH   5  24
TORSDOF 6
ENDMDL
MODEL 3
REMARK VINA RESULT:      -8.0      2.915      4.680
REMARK  6 active torsions:
REMARK  status: ('A' for Active; 'I' for Inactive)
REMARK    1  A    between atoms: C2_2  and  C3_3 
REMARK    2  A    between atoms: C3_3  and  C4_4 
REMARK    3  A    between atoms: C4_4  and  C5_5 
REMARK    4  A    between atoms: C5_5  and  C6_6 
REMARK    5  A    between atoms: C10_10  and  N1_11 
REMARK    6  A    between atoms: N1_11  and  O1_12 
ROOT
HETATM    1  C6  UNL     1      25.477   0.500  53.208  1.00  0.00     0.062 C 
HETATM    2  C7  UNL     1      26.363   1.317  52.338  1.00  0.00     0.011 C 
HETATM    3  C8  UNL     1      26.832   2.223  51.468  1.00  0.00     0.023 C 
HETATM    4  C9  UNL     1      26.390   3.339  50.587  1.00  0.00     0.006 C 
HETATM    5  C10 UNL     1      25.478   4.185  50.034  1.00  0.00     0.033 C 
HETATM    6  C11 UNL     1      24.094   3.967  50.573  1.00  0.00     0.098 C 
HETATM    7  C12 UNL     1      23.204   3.388  49.573  1.00  0.00    -0.037 A 
HETATM    8  C13 UNL     1      22.950   3.954  48.352  1.00  0.00     0.027 A 
HETATM    9  C14 UNL     1      22.093   3.340  47.464  1.00  0.00     0.116 A 
HETATM   10  N2  UNL     1      21.449   2.175  47.703  1.00  0.00    -0.272 NA
HETATM   11  C15 UNL     1      21.692   1.600  48.915  1.00  0.00     0.130 A 
HETATM   12  C16 UNL     1      22.544   2.185  49.827  1.00  0.00     0.017 A 
HETATM   13  C17 UNL     1      22.616   1.350  51.046  1.00  0.00     0.072 A 
HETATM   14  C18 UNL     1      21.516   0.739  51.593  1.00  0.00     0.052 A 
HETATM   15  C19 UNL     1      21.794   0.008  52.751  1.00  0.00     0.121 A 
HETATM   16  N3  UNL     1      23.020  -0.085  53.274  1.00  0.00    -0.245 NA
HETATM   17  C20 UNL     1      24.065   0.531  52.704  1.00  0.00     0.131 A 
HETATM   18  N4  UNL     1      23.811   1.226  51.604  1.00  0.00    -0.232 NA
ENDROOT
BRANCH   1  19
HETATM   19  C5  UNL     1      25.969  -0.924  53.135  1.00  0.00     0.013 C 
BRANCH  19  20
HETATM   20  C4  UNL     1      27.306  -1.059  52.490  1.00  0.00     0.001 C 
BRANCH  20  21
HETATM   21  C3  UNL     1      28.258  -1.929  53.279  1.00  0.00    -0.000 C 
BRANCH  21  22
HETATM   22  C2  UNL     1      29.653  -1.336  53.320  1.00  0.00    -0.005 C 
HETATM   23  C1  UNL     1      29.517   0.127  53.755  1.00  0.00     0.005 C 
ENDBRANCH  21  22
ENDBRANCH  20  21
ENDBRANCH  19  20
ENDBRANCH   1  19
BRANCH   5  24
HETATM   24  N1  UNL     1      26.027   5.105  49.117  1.00  0.00    -0.273 N 
HETATM   25  H16 UNL     1      25.793   5.380  48.126  1.00  0.00     0.193 HD
BRANCH  24  26
HETATM   26  O1  UNL     1      27.093   5.887  49.416  1.00  0.00    -0.290 OA
HETATM   27  H17 UNL     1      27.522   6.251  48.605  1.00  0.00     0.244 HD
ENDBRANCH  24  26
ENDBRANCH   5  24
TORSDOF 6
ENDMDL
MODEL 4
REMARK VINA RESULT:      -8.0      1.056      1.360
REMARK  6 active torsions:
REMARK  status: ('A' for Active; 'I' for Inactive)
REMARK    1  A    between atoms: C2_2  and  C3_3 
REMARK    2  A    between atoms: C3_3  and  C4_4 
REMARK    3  A    between atoms: C4_4  and  C5_5 
REMARK    4  A    between atoms: C5_5  and  C6_6 
REMARK    5  A    between atoms: C10_10  and  N1_11 
REMARK    6  A    between atoms: N1_11  and  O1_12 
ROOT
HETATM    1  C6  UNL     1      25.605  -0.023  53.375  1.00  0.00     0.062 C 
HETATM    2  C7  UNL     1      24.323  -0.470  53.981  1.00  0.00     0.011 C 
HETATM    3  C8  UNL     1      23.026  -0.713  54.212  1.00  0.00     0.023 C 
HETATM    4  C9  UNL     1      21.674  -0.520  53.619  1.00  0.00     0.006 C 
HETATM    5  C10 UNL     1      20.793  -0.096  52.671  1.00  0.00     0.033 C 
HETATM    6  C11 UNL     1      21.480   0.526  51.489  1.00  0.00     0.098 C 
HETATM    7  C12 UNL     1      21.252   1.965  51.421  1.00  0.00    -0.037 A 
HETATM    8  C13 UNL     1      20.011   2.544  51.370  1.00  0.00     0.027 A 
HETATM    9  C14 UNL     1      19.885   3.915  51.304  1.00  0.00     0.116 A 
HETATM   10  N2  UNL     1      20.924   4.779  51.285  1.00  0.00    -0.272 NA
HETATM   11  C15 UNL     1      22.165   4.217  51.336  1.00  0.00     0.130 A 
HETATM   12  C16 UNL     1      22.329   2.850  51.402  1.00  0.00     0.017 A 
HETATM   13  C17 UNL     1      23.772   2.524  51.443  1.00  0.00     0.072 A 
HETATM   14  C18 UNL     1      24.703   3.182  50.679  1.00  0.00     0.052 A 
HETATM   15  C19 UNL     1      26.009   2.714  50.854  1.00  0.00     0.121 A 
HETATM   16  N3  UNL     1      26.318   1.719  51.689  1.00  0.00    -0.245 NA
HETATM   17  C20 UNL     1      25.372   1.106  52.415  1.00  0.00     0.131 A 
HETATM   18  N4  UNL     1      24.130   1.544  52.257  1.00  0.00    -0.232 NA
ENDROOT
BRANCH   1  19
HETATM   19  C5  UNL     1      26.475   0.488  54.497  1.00  0.00     0.013 C 
BRANCH  19  20
HETATM   20  C4  UNL     1      27.799  -0.192  54.579  1.00  0.00     0.001 C 
BRANCH  20  21
HETATM   21  C3  UNL     1      28.927   0.638  54.009  1.00  0.00    -0.000 C 
BRANCH  21  22
HETATM   22  C2  UNL     1      30.060  -0.232  53.501  1.00  0.00    -0.005 C 
HETATM   23  C1  UNL     1      29.526  -1.666  53.401  1.00  0.00     0.005 C 
ENDBRANCH  21  22
ENDBRANCH  20  21
ENDBRANCH  19  20
ENDBRANCH   1  19
BRANCH   5  24
HETATM   24  N1  UNL     1      19.443  -0.367  52.975  1.00  0.00    -0.273 N 
HETATM   25  H16 UNL     1      18.524   0.033  52.650  1.00  0.00     0.193 HD
BRANCH  24  26
HETATM   26  O1  UNL     1      19.072  -1.326  53.859  1.00  0.00    -0.290 OA
HETATM   27  H17 UNL     1      19.685  -2.099  53.842  1.00  0.00     0.244 HD
ENDBRANCH  24  26
ENDBRANCH   5  24
TORSDOF 6
ENDMDL
MODEL 5
REMARK VINA RESULT:      -7.7      2.450      4.372
REMARK  6 active torsions:
REMARK  status: ('A' for Active; 'I' for Inactive)
REMARK    1  A    between atoms: C2_2  and  C3_3 
REMARK    2  A    between atoms: C3_3  and  C4_4 
REMARK    3  A    between atoms: C4_4  and  C5_5 
REMARK    4  A    between atoms: C5_5  and  C6_6 
REMARK    5  A    between atoms: C10_10  and  N1_11 
REMARK    6  A    between atoms: N1_11  and  O1_12 
ROOT
HETATM    1  C6  UNL     1      25.619   0.256  53.229  1.00  0.00     0.062 C 
HETATM    2  C7  UNL     1      25.400   1.172  52.080  1.00  0.00     0.011 C 
HETATM    3  C8  UNL     1      24.870   2.054  51.222  1.00  0.00     0.023 C 
HETATM    4  C9  UNL     1      23.651   2.878  50.991  1.00  0.00     0.006 C 
HETATM    5  C10 UNL     1      22.411   3.353  51.289  1.00  0.00     0.033 C 
HETATM    6  C11 UNL     1      21.894   2.823  52.595  1.00  0.00     0.098 C 
HETATM    7  C12 UNL     1      20.786   1.893  52.405  1.00  0.00    -0.037 A 
HETATM    8  C13 UNL     1      19.628   2.203  51.743  1.00  0.00     0.027 A 
HETATM    9  C14 UNL     1      18.628   1.264  51.610  1.00  0.00     0.116 A 
HETATM   10  N2  UNL     1      18.691   0.005  52.099  1.00  0.00    -0.272 NA
HETATM   11  C15 UNL     1      19.838  -0.319  52.762  1.00  0.00     0.130 A 
HETATM   12  C16 UNL     1      20.859   0.595  52.913  1.00  0.00     0.017 A 
HETATM   13  C17 UNL     1      21.971  -0.022  53.669  1.00  0.00     0.072 A 
HETATM   14  C18 UNL     1      21.767  -0.845  54.747  1.00  0.00     0.052 A 
HETATM   15  C19 UNL     1      22.948  -1.314  55.331  1.00  0.00     0.121 A 
HETATM   16  N3  UNL     1      24.161  -0.988  54.876  1.00  0.00    -0.245 NA
HETATM   17  C20 UNL     1      24.310  -0.180  53.818  1.00  0.00     0.131 A 
HETATM   18  N4  UNL     1      23.195   0.269  53.257  1.00  0.00    -0.232 NA
ENDROOT
BRANCH   1  19
HETATM   19  C5  UNL     1      26.323  -0.969  52.697  1.00  0.00     0.013 C 
BRANCH  19  20
HETATM   20  C4  UNL     1      27.778  -1.004  53.017  1.00  0.00     0.001 C 
BRANCH  20  21
HETATM   21  C3  UNL     1      28.163  -0.048  54.124  1.00  0.00    -0.000 C 
BRANCH  21  22
HETATM   22  C2  UNL     1      29.256   0.906  53.682  1.00  0.00    -0.005 C 
HETATM   23  C1  UNL     1      28.651   2.314  53.657  1.00  0.00     0.005 C 
ENDBRANCH  21  22
ENDBRANCH  20  21
ENDBRANCH  19  20
ENDBRANCH   1  19
BRANCH   5  24
HETATM   24  N1  UNL     1      21.900   4.266  50.343  1.00  0.00    -0.273 N 
HETATM   25  H16 UNL     1      20.932   4.496  49.995  1.00  0.00     0.193 HD
BRANCH  24  26
HETATM   26  O1  UNL     1      22.694   5.109  49.639  1.00  0.00    -0.290 OA
HETATM   27  H17 UNL     1      22.806   4.814  48.703  1.00  0.00     0.244 HD
ENDBRANCH  24  26
ENDBRANCH   5  24
TORSDOF 6
ENDMDL
MODEL 6
REMARK VINA RESULT:      -7.7      2.607      6.127
REMARK  6 active torsions:
REMARK  status: ('A' for Active; 'I' for Inactive)
REMARK    1  A    between atoms: C2_2  and  C3_3 
REMARK    2  A    between atoms: C3_3  and  C4_4 
REMARK    3  A    between atoms: C4_4  and  C5_5 
REMARK    4  A    between atoms: C5_5  and  C6_6 
REMARK    5  A    between atoms: C10_10  and  N1_11 
REMARK    6  A    between atoms: N1_11  and  O1_12 
ROOT
HETATM    1  C6  UNL     1      20.460   0.878  53.347  1.00  0.00     0.062 C 
HETATM    2  C7  UNL     1      21.526  -0.158  53.379  1.00  0.00     0.011 C 
HETATM    3  C8  UNL     1      22.710  -0.784  53.387  1.00  0.00     0.023 C 
HETATM    4  C9  UNL     1      24.175  -0.521  53.346  1.00  0.00     0.006 C 
HETATM    5  C10 UNL     1      25.285   0.266  53.290  1.00  0.00     0.033 C 
HETATM    6  C11 UNL     1      24.948   1.730  53.292  1.00  0.00     0.098 C 
HETATM    7  C12 UNL     1      25.228   2.355  52.004  1.00  0.00    -0.037 A 
HETATM    8  C13 UNL     1      26.455   2.344  51.396  1.00  0.00     0.027 A 
HETATM    9  C14 UNL     1      26.634   2.962  50.177  1.00  0.00     0.116 A 
HETATM   10  N2  UNL     1      25.662   3.610  49.497  1.00  0.00    -0.272 NA
HETATM   11  C15 UNL     1      24.434   3.630  50.091  1.00  0.00     0.130 A 
HETATM   12  C16 UNL     1      24.219   3.022  51.309  1.00  0.00     0.017 A 
HETATM   13  C17 UNL     1      22.806   3.202  51.711  1.00  0.00     0.072 A 
HETATM   14  C18 UNL     1      22.127   4.379  51.525  1.00  0.00     0.052 A 
HETATM   15  C19 UNL     1      20.807   4.348  51.986  1.00  0.00     0.121 A 
HETATM   16  N3  UNL     1      20.263   3.270  52.556  1.00  0.00    -0.245 NA
HETATM   17  C20 UNL     1      20.967   2.141  52.717  1.00  0.00     0.131 A 
HETATM   18  N4  UNL     1      22.220   2.160  52.281  1.00  0.00    -0.232 NA
ENDROOT
BRANCH   1  19
HETATM   19  C5  UNL     1      19.342   0.341  52.486  1.00  0.00     0.013 C 
BRANCH  19  20
HETATM   20  C4  UNL     1      19.742   0.111  51.068  1.00  0.00     0.001 C 
BRANCH  20  21
HETATM   21  C3  UNL     1      18.982   0.981  50.092  1.00  0.00    -0.000 C 
BRANCH  21  22
HETATM   22  C2  UNL     1      19.919   1.826  49.251  1.00  0.00    -0.005 C 
HETATM   23  C1  UNL     1      21.223   1.039  49.087  1.00  0.00     0.005 C 
ENDBRANCH  21  22
ENDBRANCH  20  21
ENDBRANCH  19  20
ENDBRANCH   1  19
BRANCH   5  24
HETATM   24  N1  UNL     1      26.500  -0.449  53.287  1.00  0.00    -0.273 N 
HETATM   25  H16 UNL     1      27.023  -1.002  52.557  1.00  0.00     0.193 HD
BRANCH  24  26
HETATM   26  O1  UNL     1      27.294  -0.545  54.381  1.00  0.00    -0.290 OA
HETATM   27  H17 UNL     1      27.612  -1.468  54.526  1.00  0.00     0.244 HD
ENDBRANCH  24  26
ENDBRANCH   5  24
TORSDOF 6
ENDMDL
MODEL 7
REMARK VINA RESULT:      -7.6      2.812      6.572
REMARK  6 active torsions:
REMARK  status: ('A' for Active; 'I' for Inactive)
REMARK    1  A    between atoms: C2_2  and  C3_3 
REMARK    2  A    between atoms: C3_3  and  C4_4 
REMARK    3  A    between atoms: C4_4  and  C5_5 
REMARK    4  A    between atoms: C5_5  and  C6_6 
REMARK    5  A    between atoms: C10_10  and  N1_11 
REMARK    6  A    between atoms: N1_11  and  O1_12 
ROOT
HETATM    1  C6  UNL     1      20.253   0.360  53.205  1.00  0.00     0.062 C 
HETATM    2  C7  UNL     1      21.436  -0.534  53.300  1.00  0.00     0.011 C 
HETATM    3  C8  UNL     1      22.688  -1.008  53.365  1.00  0.00     0.023 C 
HETATM    4  C9  UNL     1      24.110  -0.565  53.368  1.00  0.00     0.006 C 
HETATM    5  C10 UNL     1      25.115   0.352  53.331  1.00  0.00     0.033 C 
HETATM    6  C11 UNL     1      24.600   1.762  53.285  1.00  0.00     0.098 C 
HETATM    7  C12 UNL     1      24.849   2.391  51.992  1.00  0.00    -0.037 A 
HETATM    8  C13 UNL     1      26.090   2.520  51.428  1.00  0.00     0.027 A 
HETATM    9  C14 UNL     1      26.237   3.131  50.200  1.00  0.00     0.116 A 
HETATM   10  N2  UNL     1      25.218   3.638  49.472  1.00  0.00    -0.272 NA
HETATM   11  C15 UNL     1      23.976   3.518  50.022  1.00  0.00     0.130 A 
HETATM   12  C16 UNL     1      23.792   2.912  51.246  1.00  0.00     0.017 A 
HETATM   13  C17 UNL     1      22.354   2.924  51.595  1.00  0.00     0.072 A 
HETATM   14  C18 UNL     1      21.542   4.003  51.355  1.00  0.00     0.052 A 
HETATM   15  C19 UNL     1      20.219   3.818  51.771  1.00  0.00     0.121 A 
HETATM   16  N3  UNL     1      19.791   2.692  52.348  1.00  0.00    -0.245 NA
HETATM   17  C20 UNL     1      20.624   1.663  52.562  1.00  0.00     0.131 A 
HETATM   18  N4  UNL     1      21.880   1.829  52.169  1.00  0.00    -0.232 NA
ENDROOT
BRANCH   1  19
HETATM   19  C5  UNL     1      19.243  -0.329  52.320  1.00  0.00     0.013 C 
BRANCH  19  20
HETATM   20  C4  UNL     1      18.014  -0.760  53.044  1.00  0.00     0.001 C 
BRANCH  20  21
HETATM   21  C3  UNL     1      18.069  -2.203  53.495  1.00  0.00    -0.000 C 
BRANCH  21  22
HETATM   22  C2  UNL     1      16.783  -2.938  53.171  1.00  0.00    -0.005 C 
HETATM   23  C1  UNL     1      17.001  -4.415  53.515  1.00  0.00     0.005 C 
ENDBRANCH  21  22
ENDBRANCH  20  21
ENDBRANCH  19  20
ENDBRANCH   1  19
BRANCH   5  24
HETATM   24  N1  UNL     1      26.408  -0.206  53.388  1.00  0.00    -0.273 N 
HETATM   25  H16 UNL     1      27.380   0.200  53.451  1.00  0.00     0.193 HD
BRANCH  24  26
HETATM   26  O1  UNL     1      26.628  -1.543  53.371  1.00  0.00    -0.290 OA
HETATM   27  H17 UNL     1      26.091  -2.014  54.052  1.00  0.00     0.244 HD
ENDBRANCH  24  26
ENDBRANCH   5  24
TORSDOF 6
ENDMDL
MODEL 8
REMARK VINA RESULT:      -7.4      2.506      6.061
REMARK  6 active torsions:
REMARK  status: ('A' for Active; 'I' for Inactive)
REMARK    1  A    between atoms: C2_2  and  C3_3 
REMARK    2  A    between atoms: C3_3  and  C4_4 
REMARK    3  A    between atoms: C4_4  and  C5_5 
REMARK    4  A    between atoms: C5_5  and  C6_6 
REMARK    5  A    between atoms: C10_10  and  N1_11 
REMARK    6  A    between atoms: N1_11  and  O1_12 
ROOT
HETATM    1  C6  UNL     1      24.088   3.090  49.862  1.00  0.00     0.062 C 
HETATM    2  C7  UNL     1      25.204   3.169  50.841  1.00  0.00     0.011 C 
HETATM    3  C8  UNL     1      26.094   2.887  51.801  1.00  0.00     0.023 C 
HETATM    4  C9  UNL     1      26.508   1.802  52.733  1.00  0.00     0.006 C 
HETATM    5  C10 UNL     1      26.434   0.562  53.292  1.00  0.00     0.033 C 
HETATM    6  C11 UNL     1      25.373  -0.289  52.655  1.00  0.00     0.098 C 
HETATM    7  C12 UNL     1      24.249  -0.523  53.556  1.00  0.00    -0.037 A 
HETATM    8  C13 UNL     1      24.366  -1.089  54.797  1.00  0.00     0.027 A 
HETATM    9  C14 UNL     1      23.249  -1.276  55.585  1.00  0.00     0.116 A 
HETATM   10  N2  UNL     1      21.992  -0.936  55.223  1.00  0.00    -0.272 NA
HETATM   11  C15 UNL     1      21.861  -0.371  53.989  1.00  0.00     0.130 A 
HETATM   12  C16 UNL     1      22.955  -0.169  53.175  1.00  0.00     0.017 A 
HETATM   13  C17 UNL     1      22.521   0.453  51.905  1.00  0.00     0.072 A 
HETATM   14  C18 UNL     1      21.375   0.079  51.250  1.00  0.00     0.052 A 
HETATM   15  C19 UNL     1      21.150   0.778  50.060  1.00  0.00     0.121 A 
HETATM   16  N3  UNL     1      21.979   1.722  49.606  1.00  0.00    -0.245 NA
HETATM   17  C20 UNL     1      23.088   2.053  50.282  1.00  0.00     0.131 A 
HETATM   18  N4  UNL     1      23.308   1.396  51.412  1.00  0.00    -0.232 NA
ENDROOT
BRANCH   1  19
HETATM   19  C5  UNL     1      23.398   4.432  49.861  1.00  0.00     0.013 C 
BRANCH  19  20
HETATM   20  C4  UNL     1      23.346   5.075  51.204  1.00  0.00     0.001 C 
BRANCH  20  21
HETATM   21  C3  UNL     1      21.959   5.544  51.582  1.00  0.00    -0.000 C 
BRANCH  21  22
HETATM   22  C2  UNL     1      20.899   4.918  50.697  1.00  0.00    -0.005 C 
HETATM   23  C1  UNL     1      20.046   4.001  51.581  1.00  0.00     0.005 C 
ENDBRANCH  21  22
ENDBRANCH  20  21
ENDBRANCH  19  20
ENDBRANCH   1  19
BRANCH   5  24
HETATM   24  N1  UNL     1      27.386   0.328  54.305  1.00  0.00    -0.273 N 
HETATM   25  H16 UNL     1      27.719   0.880  55.140  1.00  0.00     0.193 HD
BRANCH  24  26
HETATM   26  O1  UNL     1      28.123  -0.808  54.367  1.00  0.00    -0.290 OA
HETATM   27  H17 UNL     1      29.025  -0.684  53.988  1.00  0.00     0.244 HD
ENDBRANCH  24  26
ENDBRANCH   5  24
TORSDOF 6
ENDMDL
MODEL 9
REMARK VINA RESULT:      -7.1      3.120      6.742
REMARK  6 active torsions:
REMARK  status: ('A' for Active; 'I' for Inactive)
REMARK    1  A    between atoms: C2_2  and  C3_3 
REMARK    2  A    between atoms: C3_3  and  C4_4 
REMARK    3  A    between atoms: C4_4  and  C5_5 
REMARK    4  A    between atoms: C5_5  and  C6_6 
REMARK    5  A    between atoms: C10_10  and  N1_11 
REMARK    6  A    between atoms: N1_11  and  O1_12 
ROOT
HETATM    1  C6  UNL     1      21.820   4.021  50.533  1.00  0.00     0.062 C 
HETATM    2  C7  UNL     1      22.955   4.258  51.463  1.00  0.00     0.011 C 
HETATM    3  C8  UNL     1      23.982   4.092  52.308  1.00  0.00     0.023 C 
HETATM    4  C9  UNL     1      24.790   3.034  52.976  1.00  0.00     0.006 C 
HETATM    5  C10 UNL     1      25.143   1.751  53.265  1.00  0.00     0.033 C 
HETATM    6  C11 UNL     1      24.323   0.748  52.507  1.00  0.00     0.098 C 
HETATM    7  C12 UNL     1      23.415   0.013  53.381  1.00  0.00    -0.037 A 
HETATM    8  C13 UNL     1      23.818  -0.711  54.472  1.00  0.00     0.027 A 
HETATM    9  C14 UNL     1      22.893  -1.379  55.245  1.00  0.00     0.116 A 
HETATM   10  N2  UNL     1      21.561  -1.384  55.012  1.00  0.00    -0.272 NA
HETATM   11  C15 UNL     1      21.145  -0.668  53.929  1.00  0.00     0.130 A 
HETATM   12  C16 UNL     1      22.042   0.013  53.134  1.00  0.00     0.017 A 
HETATM   13  C17 UNL     1      21.318   0.695  52.039  1.00  0.00     0.072 A 
HETATM   14  C18 UNL     1      20.274   0.113  51.365  1.00  0.00     0.052 A 
HETATM   15  C19 UNL     1      19.734   0.918  50.357  1.00  0.00     0.121 A 
HETATM   16  N3  UNL     1      20.196   2.140  50.079  1.00  0.00    -0.245 NA
HETATM   17  C20 UNL     1      21.219   2.667  50.765  1.00  0.00     0.131 A 
HETATM   18  N4  UNL     1      21.737   1.911  51.724  1.00  0.00    -0.232 NA
ENDROOT
BRANCH   1  19
HETATM   19  C5  UNL     1      20.768   5.059  50.839  1.00  0.00     0.013 C 
BRANCH  19  20
HETATM   20  C4  UNL     1      21.270   6.459  50.748  1.00  0.00     0.001 C 
BRANCH  20  21
HETATM   21  C3  UNL     1      21.546   6.897  49.328  1.00  0.00    -0.000 C 
BRANCH  21  22
HETATM   22  C2  UNL     1      23.001   7.281  49.135  1.00  0.00    -0.005 C 
HETATM   23  C1  UNL     1      23.570   6.381  48.033  1.00  0.00     0.005 C 
ENDBRANCH  21  22
ENDBRANCH  20  21
ENDBRANCH  19  20
ENDBRANCH   1  19
BRANCH   5  24
HETATM   24  N1  UNL     1      26.219   1.639  54.170  1.00  0.00    -0.273 N 
HETATM   25  H16 UNL     1      26.466   0.955  54.933  1.00  0.00     0.193 HD
BRANCH  24  26
HETATM   26  O1  UNL     1      27.246   2.522  54.195  1.00  0.00    -0.290 OA
HETATM   27  H17 UNL     1      26.934   3.454  54.100  1.00  0.00     0.244 HD
ENDBRANCH  24  26
ENDBRANCH   5  24
TORSDOF 6
ENDMDL
