MODEL 1
REMARK VINA RESULT:      -7.4      0.000      0.000
REMARK  7 active torsions:
REMARK  status: ('A' for Active; 'I' for Inactive)
REMARK    1  A    between atoms: C1_2  and  C2_3 
REMARK       I    between atoms: C1_2  and  N4_13 
REMARK    2  A    between atoms: C3_4  and  C4_5 
REMARK    3  A    between atoms: N1_7  and  C6_8 
REMARK    4  A    between atoms: C6_8  and  C7_9 
REMARK    5  A    between atoms: N4_13  and  C8_14 
REMARK    6  A    between atoms: C8_14  and  C9_15 
REMARK    7  A    between atoms: C13_20  and  C14_21 
ROOT
HETATM    1  O1  UNL     1      21.370  -2.112  54.729  1.00  0.00    -0.268 OA
HETATM    2  C1  UNL     1      22.046  -1.095  54.467  1.00  0.00     0.244 C 
HETATM    3  N4  UNL     1      21.282  -0.100  53.828  1.00  0.00    -0.336 N 
HETATM    4  H8  UNL     1      21.651   0.823  53.525  1.00  0.00     0.168 HD
ENDROOT
BRANCH   2   5
HETATM    5  C2  UNL     1      23.453  -0.894  54.758  1.00  0.00     0.077 C 
HETATM    6  C3  UNL     1      24.286  -0.488  53.815  1.00  0.00     0.040 C 
BRANCH   6   7
HETATM    7  C4  UNL     1      25.691  -0.290  54.110  1.00  0.00     0.098 A 
HETATM    8  C5  UNL     1      26.646   0.205  53.244  1.00  0.00     0.147 A 
HETATM    9  N1  UNL     1      27.802   0.214  53.949  1.00  0.00    -0.258 N 
HETATM   10  N2  UNL     1      27.584  -0.249  55.182  1.00  0.00    -0.066 NA
HETATM   11  N3  UNL     1      26.305  -0.554  55.280  1.00  0.00    -0.131 NA
BRANCH   9  12
HETATM   12  C6  UNL     1      29.137   0.642  53.517  1.00  0.00     0.183 C 
BRANCH  12  13
HETATM   13  C7  UNL     1      29.465   1.931  54.255  1.00  0.00     0.244 C 
HETATM   14  F1  UNL     1      28.555   2.902  53.892  1.00  0.00    -0.254 F 
ENDBRANCH  12  13
ENDBRANCH   9  12
ENDBRANCH   6   7
ENDBRANCH   2   5
BRANCH   3  15
HETATM   15  C8  UNL     1      19.917  -0.406  53.593  1.00  0.00     0.077 C 
BRANCH  15  16
HETATM   16  C9  UNL     1      19.309  -0.020  52.498  1.00  0.00     0.037 A 
HETATM   17  C10 UNL     1      20.066   0.270  51.601  1.00  0.00     0.027 A 
HETATM   18  C11 UNL     1      20.702   0.523  50.817  1.00  0.00    -0.036 A 
HETATM   19  C14 UNL     1      18.907   0.461  51.107  1.00  0.00     0.106 A 
HETATM   20  C13 UNL     1      20.011   0.778  50.111  1.00  0.00     0.084 A 
HETATM   21  C12 UNL     1      21.474   0.845  49.825  1.00  0.00     0.174 A 
HETATM   22  F2  UNL     1      21.630   1.271  48.565  1.00  0.00    -0.233 F 
HETATM   23 CL1  UNL     1      17.982   1.995  51.366  1.00  0.00    -0.123 Cl
ENDBRANCH  15  16
ENDBRANCH   3  15
TORSDOF 7
ENDMDL
MODEL 2
REMARK VINA RESULT:      -7.1      3.336      8.490
REMARK  7 active torsions:
REMARK  status: ('A' for Active; 'I' for Inactive)
REMARK    1  A    between atoms: C1_2  and  C2_3 
REMARK       I    between atoms: C1_2  and  N4_13 
REMARK    2  A    between atoms: C3_4  and  C4_5 
REMARK    3  A    between atoms: N1_7  and  C6_8 
REMARK    4  A    between atoms: C6_8  and  C7_9 
REMARK    5  A    between atoms: N4_13  and  C8_14 
REMARK    6  A    between atoms: C8_14  and  C9_15 
REMARK    7  A    between atoms: C13_20  and  C14_21 
ROOT
HETATM    1  O1  UNL     1      22.801  -1.640  55.460  1.00  0.00    -0.268 OA
HETATM    2  C1  UNL     1      22.211  -1.125  54.487  1.00  0.00     0.244 C 
HETATM    3  N4  UNL     1      23.103  -0.507  53.591  1.00  0.00    -0.336 N 
HETATM    4  H8  UNL     1      22.819  -0.021  52.718  1.00  0.00     0.168 HD
ENDROOT
BRANCH   2   5
HETATM    5  C2  UNL     1      20.780  -1.126  54.246  1.00  0.00     0.077 C 
HETATM    6  C3  UNL     1      20.272  -0.503  53.197  1.00  0.00     0.040 C 
BRANCH   6   7
HETATM    7  C4  UNL     1      18.843  -0.506  52.961  1.00  0.00     0.098 A 
HETATM    8  C5  UNL     1      18.182   0.143  51.935  1.00  0.00     0.147 A 
HETATM    9  N1  UNL     1      16.870  -0.142  52.115  1.00  0.00    -0.258 N 
HETATM   10  N2  UNL     1      16.719  -0.922  53.187  1.00  0.00    -0.066 NA
HETATM   11  N3  UNL     1      17.913  -1.143  53.700  1.00  0.00    -0.131 NA
BRANCH   9  12
HETATM   12  C6  UNL     1      15.720   0.290  51.313  1.00  0.00     0.183 C 
BRANCH  12  13
HETATM   13  C7  UNL     1      14.968   1.338  52.119  1.00  0.00     0.244 C 
HETATM   14  F1  UNL     1      15.737   2.480  52.202  1.00  0.00    -0.254 F 
ENDBRANCH  12  13
ENDBRANCH   9  12
ENDBRANCH   6   7
ENDBRANCH   2   5
BRANCH   3  15
HETATM   15  C8  UNL     1      24.479  -0.568  53.929  1.00  0.00     0.077 C 
BRANCH  15  16
HETATM   16  C9  UNL     1      25.413  -0.393  53.025  1.00  0.00     0.037 A 
HETATM   17  C10 UNL     1      26.531  -0.373  53.482  1.00  0.00     0.027 A 
HETATM   18  C11 UNL     1      27.502  -0.354  53.858  1.00  0.00    -0.036 A 
HETATM   19  C14 UNL     1      26.702  -0.208  52.231  1.00  0.00     0.106 A 
HETATM   20  C13 UNL     1      28.019  -0.212  52.990  1.00  0.00     0.084 A 
HETATM   21  C12 UNL     1      28.720  -0.326  54.302  1.00  0.00     0.174 A 
HETATM   22  F2  UNL     1      30.036  -0.209  54.079  1.00  0.00    -0.233 F 
HETATM   23 CL1  UNL     1      26.562   1.412  51.437  1.00  0.00    -0.123 Cl
ENDBRANCH  15  16
ENDBRANCH   3  15
TORSDOF 7
ENDMDL
MODEL 3
REMARK VINA RESULT:      -7.0      6.117      7.529
REMARK  7 active torsions:
REMARK  status: ('A' for Active; 'I' for Inactive)
REMARK    1  A    between atoms: C1_2  and  C2_3 
REMARK       I    between atoms: C1_2  and  N4_13 
REMARK    2  A    between atoms: C3_4  and  C4_5 
REMARK    3  A    between atoms: N1_7  and  C6_8 
REMARK    4  A    between atoms: C6_8  and  C7_9 
REMARK    5  A    between atoms: N4_13  and  C8_14 
REMARK    6  A    between atoms: C8_14  and  C9_15 
REMARK    7  A    between atoms: C13_20  and  C14_21 
ROOT
HETATM    1  O1  UNL     1      24.154   3.130  49.267  1.00  0.00    -0.268 OA
HETATM    2  C1  UNL     1      25.021   3.657  49.995  1.00  0.00     0.244 C 
HETATM    3  N4  UNL     1      24.979   3.166  51.313  1.00  0.00    -0.336 N 
HETATM    4  H8  UNL     1      25.613   3.472  52.077  1.00  0.00     0.168 HD
ENDROOT
BRANCH   2   5
HETATM    5  C2  UNL     1      25.989   4.663  49.595  1.00  0.00     0.077 C 
HETATM    6  C3  UNL     1      27.095   4.319  48.960  1.00  0.00     0.040 C 
BRANCH   6   7
HETATM    7  C4  UNL     1      28.058   5.326  48.563  1.00  0.00     0.098 A 
HETATM    8  C5  UNL     1      27.817   6.680  48.427  1.00  0.00     0.147 A 
HETATM    9  N1  UNL     1      28.998   7.219  48.043  1.00  0.00    -0.258 N 
HETATM   10  N2  UNL     1      29.923   6.261  47.944  1.00  0.00    -0.066 NA
HETATM   11  N3  UNL     1      29.354   5.115  48.259  1.00  0.00    -0.131 NA
BRANCH   9  12
HETATM   12  C6  UNL     1      29.316   8.622  47.755  1.00  0.00     0.183 C 
BRANCH  12  13
HETATM   13  C7  UNL     1      29.447   9.345  49.087  1.00  0.00     0.244 C 
HETATM   14  F1  UNL     1      30.675   9.051  49.640  1.00  0.00    -0.254 F 
ENDBRANCH  12  13
ENDBRANCH   9  12
ENDBRANCH   6   7
ENDBRANCH   2   5
BRANCH   3  15
HETATM   15  C8  UNL     1      23.991   2.186  51.589  1.00  0.00     0.077 C 
BRANCH  15  16
HETATM   16  C9  UNL     1      24.115   1.356  52.596  1.00  0.00     0.037 A 
HETATM   17  C10 UNL     1      25.052   0.601  52.488  1.00  0.00     0.027 A 
HETATM   18  C11 UNL     1      25.855  -0.058  52.412  1.00  0.00    -0.036 A 
HETATM   19  C14 UNL     1      24.520   0.281  53.600  1.00  0.00     0.106 A 
HETATM   20  C13 UNL     1      25.736  -0.574  53.283  1.00  0.00     0.084 A 
HETATM   21  C12 UNL     1      26.848  -0.889  52.339  1.00  0.00     0.174 A 
HETATM   22  F2  UNL     1      27.561  -1.896  52.861  1.00  0.00    -0.233 F 
HETATM   23 CL1  UNL     1      23.106  -0.843  53.713  1.00  0.00    -0.123 Cl
ENDBRANCH  15  16
ENDBRANCH   3  15
TORSDOF 7
ENDMDL
MODEL 4
REMARK VINA RESULT:      -7.0      6.358      7.418
REMARK  7 active torsions:
REMARK  status: ('A' for Active; 'I' for Inactive)
REMARK    1  A    between atoms: C1_2  and  C2_3 
REMARK       I    between atoms: C1_2  and  N4_13 
REMARK    2  A    between atoms: C3_4  and  C4_5 
REMARK    3  A    between atoms: N1_7  and  C6_8 
REMARK    4  A    between atoms: C6_8  and  C7_9 
REMARK    5  A    between atoms: N4_13  and  C8_14 
REMARK    6  A    between atoms: C8_14  and  C9_15 
REMARK    7  A    between atoms: C13_20  and  C14_21 
ROOT
HETATM    1  O1  UNL     1      24.274   3.157  49.423  1.00  0.00    -0.268 OA
HETATM    2  C1  UNL     1      25.124   3.740  50.129  1.00  0.00     0.244 C 
HETATM    3  N4  UNL     1      25.059   3.340  51.477  1.00  0.00    -0.336 N 
HETATM    4  H8  UNL     1      25.677   3.702  52.229  1.00  0.00     0.168 HD
ENDROOT
BRANCH   2   5
HETATM    5  C2  UNL     1      26.094   4.721  49.679  1.00  0.00     0.077 C 
HETATM    6  C3  UNL     1      27.144   4.354  48.965  1.00  0.00     0.040 C 
BRANCH   6   7
HETATM    7  C4  UNL     1      28.110   5.337  48.518  1.00  0.00     0.098 A 
HETATM    8  C5  UNL     1      27.894   6.696  48.391  1.00  0.00     0.147 A 
HETATM    9  N1  UNL     1      29.067   7.207  47.947  1.00  0.00    -0.258 N 
HETATM   10  N2  UNL     1      29.963   6.227  47.804  1.00  0.00    -0.066 NA
HETATM   11  N3  UNL     1      29.383   5.094  48.150  1.00  0.00    -0.131 NA
BRANCH   9  12
HETATM   12  C6  UNL     1      29.403   8.601  47.640  1.00  0.00     0.183 C 
BRANCH  12  13
HETATM   13  C7  UNL     1      29.269   9.399  48.928  1.00  0.00     0.244 C 
HETATM   14  F1  UNL     1      30.393   9.200  49.701  1.00  0.00    -0.254 F 
ENDBRANCH  12  13
ENDBRANCH   9  12
ENDBRANCH   6   7
ENDBRANCH   2   5
BRANCH   3  15
HETATM   15  C8  UNL     1      24.071   2.375  51.801  1.00  0.00     0.077 C 
BRANCH  15  16
HETATM   16  C9  UNL     1      24.390   1.232  52.358  1.00  0.00     0.037 A 
HETATM   17  C10 UNL     1      23.489   0.734  52.992  1.00  0.00     0.027 A 
HETATM   18  C11 UNL     1      22.726   0.291  53.542  1.00  0.00    -0.036 A 
HETATM   19  C14 UNL     1      24.453  -0.090  53.116  1.00  0.00     0.106 A 
HETATM   20  C13 UNL     1      23.208  -0.550  53.858  1.00  0.00     0.084 A 
HETATM   21  C12 UNL     1      21.789  -0.282  54.233  1.00  0.00     0.174 A 
HETATM   22  F2  UNL     1      21.363  -1.298  54.995  1.00  0.00    -0.233 F 
HETATM   23 CL1  UNL     1      25.754   0.115  54.357  1.00  0.00    -0.123 Cl
ENDBRANCH  15  16
ENDBRANCH   3  15
TORSDOF 7
ENDMDL
MODEL 5
REMARK VINA RESULT:      -6.9      2.720      3.346
REMARK  7 active torsions:
REMARK  status: ('A' for Active; 'I' for Inactive)
REMARK    1  A    between atoms: C1_2  and  C2_3 
REMARK       I    between atoms: C1_2  and  N4_13 
REMARK    2  A    between atoms: C3_4  and  C4_5 
REMARK    3  A    between atoms: N1_7  and  C6_8 
REMARK    4  A    between atoms: C6_8  and  C7_9 
REMARK    5  A    between atoms: N4_13  and  C8_14 
REMARK    6  A    between atoms: C8_14  and  C9_15 
REMARK    7  A    between atoms: C13_20  and  C14_21 
ROOT
HETATM    1  O1  UNL     1      22.443   1.551  50.080  1.00  0.00    -0.268 OA
HETATM    2  C1  UNL     1      22.457   1.221  51.285  1.00  0.00     0.244 C 
HETATM    3  N4  UNL     1      21.164   0.966  51.780  1.00  0.00    -0.336 N 
HETATM    4  H8  UNL     1      20.953   0.678  52.756  1.00  0.00     0.168 HD
ENDROOT
BRANCH   2   5
HETATM    5  C2  UNL     1      23.628   1.095  52.133  1.00  0.00     0.077 C 
HETATM    6  C3  UNL     1      23.894  -0.042  52.752  1.00  0.00     0.040 C 
BRANCH   6   7
HETATM    7  C4  UNL     1      25.064  -0.163  53.597  1.00  0.00     0.098 A 
HETATM    8  C5  UNL     1      26.362   0.152  53.246  1.00  0.00     0.147 A 
HETATM    9  N1  UNL     1      27.109  -0.120  54.344  1.00  0.00    -0.258 N 
HETATM   10  N2  UNL     1      26.324  -0.577  55.322  1.00  0.00    -0.066 NA
HETATM   11  N3  UNL     1      25.086  -0.604  54.871  1.00  0.00    -0.131 NA
BRANCH   9  12
HETATM   12  C6  UNL     1      28.556   0.030  54.529  1.00  0.00     0.183 C 
BRANCH  12  13
HETATM   13  C7  UNL     1      29.242  -0.960  53.600  1.00  0.00     0.244 C 
HETATM   14  F1  UNL     1      30.561  -1.095  53.979  1.00  0.00    -0.254 F 
ENDBRANCH  12  13
ENDBRANCH   9  12
ENDBRANCH   6   7
ENDBRANCH   2   5
BRANCH   3  15
HETATM   15  C8  UNL     1      20.095   1.122  50.862  1.00  0.00     0.077 C 
BRANCH  15  16
HETATM   16  C9  UNL     1      18.861   0.828  51.194  1.00  0.00     0.037 A 
HETATM   17  C10 UNL     1      18.776  -0.089  51.977  1.00  0.00     0.027 A 
HETATM   18  C11 UNL     1      18.683  -0.876  52.651  1.00  0.00    -0.036 A 
HETATM   19  C14 UNL     1      17.568   0.257  51.767  1.00  0.00     0.106 A 
HETATM   20  C13 UNL     1      17.668  -0.904  52.744  1.00  0.00     0.084 A 
HETATM   21  C12 UNL     1      18.542  -1.855  53.491  1.00  0.00     0.174 A 
HETATM   22  F2  UNL     1      17.754  -2.654  54.222  1.00  0.00    -0.233 F 
HETATM   23 CL1  UNL     1      16.621  -0.339  50.344  1.00  0.00    -0.123 Cl
ENDBRANCH  15  16
ENDBRANCH   3  15
TORSDOF 7
ENDMDL
MODEL 6
REMARK VINA RESULT:      -6.7      6.618      8.796
REMARK  7 active torsions:
REMARK  status: ('A' for Active; 'I' for Inactive)
REMARK    1  A    between atoms: C1_2  and  C2_3 
REMARK       I    between atoms: C1_2  and  N4_13 
REMARK    2  A    between atoms: C3_4  and  C4_5 
REMARK    3  A    between atoms: N1_7  and  C6_8 
REMARK    4  A    between atoms: C6_8  and  C7_9 
REMARK    5  A    between atoms: N4_13  and  C8_14 
REMARK    6  A    between atoms: C8_14  and  C9_15 
REMARK    7  A    between atoms: C13_20  and  C14_21 
ROOT
HETATM    1  O1  UNL     1      24.991   5.237  48.745  1.00  0.00    -0.268 OA
HETATM    2  C1  UNL     1      25.848   4.850  49.568  1.00  0.00     0.244 C 
HETATM    3  N4  UNL     1      27.081   5.506  49.397  1.00  0.00    -0.336 N 
HETATM    4  H8  UNL     1      27.926   5.332  49.976  1.00  0.00     0.168 HD
ENDROOT
BRANCH   2   5
HETATM    5  C2  UNL     1      25.663   3.849  50.602  1.00  0.00     0.077 C 
HETATM    6  C3  UNL     1      26.554   2.889  50.779  1.00  0.00     0.040 C 
BRANCH   6   7
HETATM    7  C4  UNL     1      26.365   1.892  51.813  1.00  0.00     0.098 A 
HETATM    8  C5  UNL     1      27.222   1.632  52.865  1.00  0.00     0.147 A 
HETATM    9  N1  UNL     1      26.640   0.629  53.565  1.00  0.00    -0.258 N 
HETATM   10  N2  UNL     1      25.489   0.282  52.985  1.00  0.00    -0.066 NA
HETATM   11  N3  UNL     1      25.322   1.046  51.924  1.00  0.00    -0.131 NA
BRANCH   9  12
HETATM   12  C6  UNL     1      27.118  -0.039  54.780  1.00  0.00     0.183 C 
BRANCH  12  13
HETATM   13  C7  UNL     1      28.614   0.212  54.882  1.00  0.00     0.244 C 
HETATM   14  F1  UNL     1      29.289  -0.843  54.305  1.00  0.00    -0.254 F 
ENDBRANCH  12  13
ENDBRANCH   9  12
ENDBRANCH   6   7
ENDBRANCH   2   5
BRANCH   3  15
HETATM   15  C8  UNL     1      27.147   6.465  48.354  1.00  0.00     0.077 C 
BRANCH  15  16
HETATM   16  C9  UNL     1      28.267   7.081  48.063  1.00  0.00     0.037 A 
HETATM   17  C10 UNL     1      29.210   6.337  47.936  1.00  0.00     0.027 A 
HETATM   18  C11 UNL     1      30.034   5.711  47.823  1.00  0.00    -0.036 A 
HETATM   19  C14 UNL     1      29.695   7.495  47.724  1.00  0.00     0.106 A 
HETATM   20  C13 UNL     1      30.749   6.405  47.607  1.00  0.00     0.084 A 
HETATM   21  C12 UNL     1      31.075   4.951  47.676  1.00  0.00     0.174 A 
HETATM   22  F2  UNL     1      32.382   4.808  47.417  1.00  0.00    -0.233 F 
HETATM   23 CL1  UNL     1      30.221   8.588  49.067  1.00  0.00    -0.123 Cl
ENDBRANCH  15  16
ENDBRANCH   3  15
TORSDOF 7
ENDMDL
MODEL 7
REMARK VINA RESULT:      -6.7      6.902      9.616
REMARK  7 active torsions:
REMARK  status: ('A' for Active; 'I' for Inactive)
REMARK    1  A    between atoms: C1_2  and  C2_3 
REMARK       I    between atoms: C1_2  and  N4_13 
REMARK    2  A    between atoms: C3_4  and  C4_5 
REMARK    3  A    between atoms: N1_7  and  C6_8 
REMARK    4  A    between atoms: C6_8  and  C7_9 
REMARK    5  A    between atoms: N4_13  and  C8_14 
REMARK    6  A    between atoms: C8_14  and  C9_15 
REMARK    7  A    between atoms: C13_20  and  C14_21 
ROOT
HETATM    1  O1  UNL     1      26.267   6.219  48.247  1.00  0.00    -0.268 OA
HETATM    2  C1  UNL     1      26.662   5.269  48.955  1.00  0.00     0.244 C 
HETATM    3  N4  UNL     1      28.062   5.134  48.929  1.00  0.00    -0.336 N 
HETATM    4  H8  UNL     1      28.594   4.408  49.448  1.00  0.00     0.168 HD
ENDROOT
BRANCH   2   5
HETATM    5  C2  UNL     1      25.832   4.371  49.738  1.00  0.00     0.077 C 
HETATM    6  C3  UNL     1      26.368   3.356  50.393  1.00  0.00     0.040 C 
BRANCH   6   7
HETATM    7  C4  UNL     1      25.536   2.463  51.173  1.00  0.00     0.098 A 
HETATM    8  C5  UNL     1      25.960   1.339  51.856  1.00  0.00     0.147 A 
HETATM    9  N1  UNL     1      24.846   0.827  52.432  1.00  0.00    -0.258 N 
HETATM   10  N2  UNL     1      23.789   1.584  52.128  1.00  0.00    -0.066 NA
HETATM   11  N3  UNL     1      24.207   2.575  51.365  1.00  0.00    -0.131 NA
BRANCH   9  12
HETATM   12  C6  UNL     1      24.715  -0.367  53.275  1.00  0.00     0.183 C 
BRANCH  12  13
HETATM   13  C7  UNL     1      26.004  -0.510  54.069  1.00  0.00     0.244 C 
HETATM   14  F1  UNL     1      26.068   0.495  55.011  1.00  0.00    -0.254 F 
ENDBRANCH  12  13
ENDBRANCH   9  12
ENDBRANCH   6   7
ENDBRANCH   2   5
BRANCH   3  15
HETATM   15  C8  UNL     1      28.771   6.067  48.129  1.00  0.00     0.077 C 
BRANCH  15  16
HETATM   16  C9  UNL     1      30.065   6.233  48.259  1.00  0.00     0.037 A 
HETATM   17  C10 UNL     1      30.719   5.339  47.775  1.00  0.00     0.027 A 
HETATM   18  C11 UNL     1      31.298   4.579  47.365  1.00  0.00    -0.036 A 
HETATM   19  C14 UNL     1      31.588   6.142  48.249  1.00  0.00     0.106 A 
HETATM   20  C13 UNL     1      32.228   4.932  47.588  1.00  0.00     0.084 A 
HETATM   21  C12 UNL     1      32.042   3.643  46.860  1.00  0.00     0.174 A 
HETATM   22  F2  UNL     1      33.254   3.131  46.607  1.00  0.00    -0.233 F 
HETATM   23 CL1  UNL     1      32.090   6.114  49.987  1.00  0.00    -0.123 Cl
ENDBRANCH  15  16
ENDBRANCH   3  15
TORSDOF 7
ENDMDL
MODEL 8
REMARK VINA RESULT:      -6.6      7.255      8.900
REMARK  7 active torsions:
REMARK  status: ('A' for Active; 'I' for Inactive)
REMARK    1  A    between atoms: C1_2  and  C2_3 
REMARK       I    between atoms: C1_2  and  N4_13 
REMARK    2  A    between atoms: C3_4  and  C4_5 
REMARK    3  A    between atoms: N1_7  and  C6_8 
REMARK    4  A    between atoms: C6_8  and  C7_9 
REMARK    5  A    between atoms: N4_13  and  C8_14 
REMARK    6  A    between atoms: C8_14  and  C9_15 
REMARK    7  A    between atoms: C13_20  and  C14_21 
ROOT
HETATM    1  O1  UNL     1      25.050   3.732  49.295  1.00  0.00    -0.268 OA
HETATM    2  C1  UNL     1      26.170   4.197  49.594  1.00  0.00     0.244 C 
HETATM    3  N4  UNL     1      26.773   3.491  50.652  1.00  0.00    -0.336 N 
HETATM    4  H8  UNL     1      27.705   3.714  51.054  1.00  0.00     0.168 HD
ENDROOT
BRANCH   2   5
HETATM    5  C2  UNL     1      26.831   5.327  48.969  1.00  0.00     0.077 C 
HETATM    6  C3  UNL     1      28.081   5.231  48.548  1.00  0.00     0.040 C 
BRANCH   6   7
HETATM    7  C4  UNL     1      28.736   6.361  47.924  1.00  0.00     0.098 A 
HETATM    8  C5  UNL     1      28.169   7.593  47.662  1.00  0.00     0.147 A 
HETATM    9  N1  UNL     1      29.148   8.324  47.078  1.00  0.00    -0.258 N 
HETATM   10  N2  UNL     1      30.261   7.593  46.980  1.00  0.00    -0.066 NA
HETATM   11  N3  UNL     1      30.012   6.405  47.492  1.00  0.00    -0.131 NA
BRANCH   9  12
HETATM   12  C6  UNL     1      29.095   9.708  46.593  1.00  0.00     0.183 C 
BRANCH  12  13
HETATM   13  C7  UNL     1      30.051  10.528  47.445  1.00  0.00     0.244 C 
HETATM   14  F1  UNL     1      29.780  10.297  48.777  1.00  0.00    -0.254 F 
ENDBRANCH  12  13
ENDBRANCH   9  12
ENDBRANCH   6   7
ENDBRANCH   2   5
BRANCH   3  15
HETATM   15  C8  UNL     1      26.035   2.404  51.187  1.00  0.00     0.077 C 
BRANCH  15  16
HETATM   16  C9  UNL     1      26.634   1.346  51.675  1.00  0.00     0.037 A 
HETATM   17  C10 UNL     1      25.990   0.773  52.522  1.00  0.00     0.027 A 
HETATM   18  C11 UNL     1      25.450   0.266  53.253  1.00  0.00    -0.036 A 
HETATM   19  C14 UNL     1      27.060   0.088  52.425  1.00  0.00     0.106 A 
HETATM   20  C13 UNL     1      26.107  -0.486  53.461  1.00  0.00     0.084 A 
HETATM   21  C12 UNL     1      24.796  -0.383  54.167  1.00  0.00     0.174 A 
HETATM   22  F2  UNL     1      24.712  -1.400  55.034  1.00  0.00    -0.233 F 
HETATM   23 CL1  UNL     1      28.579   0.531  53.303  1.00  0.00    -0.123 Cl
ENDBRANCH  15  16
ENDBRANCH   3  15
TORSDOF 7
ENDMDL
MODEL 9
REMARK VINA RESULT:      -6.5      2.356      2.834
REMARK  7 active torsions:
REMARK  status: ('A' for Active; 'I' for Inactive)
REMARK    1  A    between atoms: C1_2  and  C2_3 
REMARK       I    between atoms: C1_2  and  N4_13 
REMARK    2  A    between atoms: C3_4  and  C4_5 
REMARK    3  A    between atoms: N1_7  and  C6_8 
REMARK    4  A    between atoms: C6_8  and  C7_9 
REMARK    5  A    between atoms: N4_13  and  C8_14 
REMARK    6  A    between atoms: C8_14  and  C9_15 
REMARK    7  A    between atoms: C13_20  and  C14_21 
ROOT
HETATM    1  O1  UNL     1      21.765  -1.701  53.738  1.00  0.00    -0.268 OA
HETATM    2  C1  UNL     1      22.314  -0.597  53.537  1.00  0.00     0.244 C 
HETATM    3  N4  UNL     1      21.465   0.304  52.868  1.00  0.00    -0.336 N 
HETATM    4  H8  UNL     1      21.725   1.275  52.605  1.00  0.00     0.168 HD
ENDROOT
BRANCH   2   5
HETATM    5  C2  UNL     1      23.662  -0.220  53.920  1.00  0.00     0.077 C 
HETATM    6  C3  UNL     1      24.458   0.399  53.066  1.00  0.00     0.040 C 
BRANCH   6   7
HETATM    7  C4  UNL     1      25.803   0.773  53.452  1.00  0.00     0.098 A 
HETATM    8  C5  UNL     1      26.962   0.082  53.156  1.00  0.00     0.147 A 
HETATM    9  N1  UNL     1      27.964   0.800  53.717  1.00  0.00    -0.258 N 
HETATM   10  N2  UNL     1      27.462   1.876  54.327  1.00  0.00    -0.066 NA
HETATM   11  N3  UNL     1      26.154   1.861  54.167  1.00  0.00    -0.131 NA
BRANCH   9  12
HETATM   12  C6  UNL     1      29.405   0.525  53.712  1.00  0.00     0.183 C 
BRANCH  12  13
HETATM   13  C7  UNL     1      29.587  -0.952  53.395  1.00  0.00     0.244 C 
HETATM   14  F1  UNL     1      30.629  -1.449  54.150  1.00  0.00    -0.254 F 
ENDBRANCH  12  13
ENDBRANCH   9  12
ENDBRANCH   6   7
ENDBRANCH   2   5
BRANCH   3  15
HETATM   15  C8  UNL     1      20.169  -0.174  52.542  1.00  0.00     0.077 C 
BRANCH  15  16
HETATM   16  C9  UNL     1      19.300   0.582  51.916  1.00  0.00     0.037 A 
HETATM   17  C10 UNL     1      18.234   0.043  51.732  1.00  0.00     0.027 A 
HETATM   18  C11 UNL     1      17.309  -0.404  51.566  1.00  0.00    -0.036 A 
HETATM   19  C14 UNL     1      18.093   1.201  51.219  1.00  0.00     0.106 A 
HETATM   20  C13 UNL     1      16.834   0.359  51.084  1.00  0.00     0.084 A 
HETATM   21  C12 UNL     1      16.148  -0.940  51.347  1.00  0.00     0.174 A 
HETATM   22  F2  UNL     1      14.907  -0.861  50.851  1.00  0.00    -0.233 F 
HETATM   23 CL1  UNL     1      18.641   1.591  49.539  1.00  0.00    -0.123 Cl
ENDBRANCH  15  16
ENDBRANCH   3  15
TORSDOF 7
ENDMDL
