MODEL 1
REMARK VINA RESULT:      -8.2      0.000      0.000
REMARK  1 active torsions:
REMARK  status: ('A' for Active; 'I' for Inactive)
REMARK    1  A    between atoms: C11_12  and  O2_14 
ROOT
HETATM    1  C1  UNL     1      21.930   3.061  46.545  1.00  0.00     0.044 C 
HETATM    2  C2  UNL     1      22.254   2.830  47.947  1.00  0.00    -0.077 A 
HETATM    3  C3  UNL     1      21.706   1.743  48.448  1.00  0.00     0.016 A 
HETATM    4  C4  UNL     1      22.033   1.526  49.832  1.00  0.00    -0.012 A 
HETATM    5  C5  UNL     1      22.838   2.577  50.147  1.00  0.00     0.023 A 
HETATM    6  C6  UNL     1      23.039   3.491  48.984  1.00  0.00     0.091 A 
HETATM    7  N1  UNL     1      23.492   2.835  51.343  1.00  0.00    -0.368 N 
HETATM    8  C7  UNL     1      24.125   3.098  52.523  1.00  0.00     0.088 C 
HETATM    9  C8  UNL     1      24.993   2.673  53.366  1.00  0.00     0.018 C 
HETATM   10  C9  UNL     1      25.949   1.753  53.864  1.00  0.00     0.015 C 
HETATM   11  C10 UNL     1      26.340   0.611  53.429  1.00  0.00     0.021 A 
HETATM   12  C11 UNL     1      27.040  -0.696  53.244  1.00  0.00     0.211 A 
HETATM   13  O1  UNL     1      27.264  -1.798  52.627  1.00  0.00    -0.270 OA
HETATM   14  C12 UNL     1      25.286  -0.449  53.187  1.00  0.00     0.124 A 
HETATM   15  C13 UNL     1      23.941  -0.542  53.369  1.00  0.00     0.028 C 
HETATM   16  C14 UNL     1      22.505  -1.045  53.402  1.00  0.00     0.125 C 
HETATM   17  N2  UNL     1      21.651  -0.163  52.778  1.00  0.00    -0.398 N 
HETATM   18  C15 UNL     1      20.894   0.669  51.984  1.00  0.00     0.083 C 
HETATM   19  C16 UNL     1      21.916   0.765  51.100  1.00  0.00     0.030 C 
HETATM   20  H7  UNL     1      24.175   2.046  51.105  1.00  0.00     0.165 HD
HETATM   21  H16 UNL     1      20.958   0.296  53.445  1.00  0.00     0.158 HD
ENDROOT
BRANCH  12  22
HETATM   22  O2  UNL     1      28.028  -1.214  54.065  1.00  0.00    -0.335 OA
HETATM   23  H11 UNL     1      28.864  -1.647  53.708  1.00  0.00     0.220 HD
ENDBRANCH  12  22
TORSDOF 1
ENDMDL
MODEL 2
REMARK VINA RESULT:      -8.2      2.982      6.436
REMARK  1 active torsions:
REMARK  status: ('A' for Active; 'I' for Inactive)
REMARK    1  A    between atoms: C11_12  and  O2_14 
ROOT
HETATM    1  C1  UNL     1      29.203  -1.808  53.107  1.00  0.00     0.044 C 
HETATM    2  C2  UNL     1      27.877  -1.203  53.099  1.00  0.00    -0.077 A 
HETATM    3  C3  UNL     1      27.890   0.106  52.960  1.00  0.00     0.016 A 
HETATM    4  C4  UNL     1      26.576   0.691  52.954  1.00  0.00    -0.012 A 
HETATM    5  C5  UNL     1      25.742  -0.375  53.097  1.00  0.00     0.023 A 
HETATM    6  C6  UNL     1      26.495  -1.658  53.207  1.00  0.00     0.091 A 
HETATM    7  N1  UNL     1      24.354  -0.391  53.093  1.00  0.00    -0.368 N 
HETATM    8  C7  UNL     1      22.990  -0.408  53.104  1.00  0.00     0.088 C 
HETATM    9  C8  UNL     1      21.931  -0.157  52.425  1.00  0.00     0.018 C 
HETATM   10  C9  UNL     1      21.220   0.284  51.281  1.00  0.00     0.015 C 
HETATM   11  C10 UNL     1      21.620   0.781  50.169  1.00  0.00     0.021 A 
HETATM   12  C11 UNL     1      21.689   1.357  48.791  1.00  0.00     0.211 A 
HETATM   13  O1  UNL     1      22.317   1.829  47.778  1.00  0.00    -0.270 OA
HETATM   14  C12 UNL     1      22.508   2.007  50.222  1.00  0.00     0.124 A 
HETATM   15  C13 UNL     1      22.990   2.815  51.205  1.00  0.00     0.028 C 
HETATM   16  C14 UNL     1      23.717   3.919  51.959  1.00  0.00     0.125 C 
HETATM   17  N2  UNL     1      24.497   3.404  52.970  1.00  0.00    -0.398 N 
HETATM   18  C15 UNL     1      25.389   2.808  53.834  1.00  0.00     0.083 C 
HETATM   19  C16 UNL     1      25.665   1.861  52.905  1.00  0.00     0.030 C 
HETATM   20  H7  UNL     1      24.385  -0.225  52.037  1.00  0.00     0.165 HD
HETATM   21  H16 UNL     1      24.158   3.674  53.944  1.00  0.00     0.158 HD
ENDROOT
BRANCH  12  22
HETATM   22  O2  UNL     1      20.610   1.611  47.960  1.00  0.00    -0.335 OA
HETATM   23  H11 UNL     1      19.800   2.127  48.259  1.00  0.00     0.220 HD
ENDBRANCH  12  22
TORSDOF 1
ENDMDL
MODEL 3
REMARK VINA RESULT:      -7.3      5.568      7.698
REMARK  1 active torsions:
REMARK  status: ('A' for Active; 'I' for Inactive)
REMARK    1  A    between atoms: C11_12  and  O2_14 
ROOT
HETATM    1  C1  UNL     1      25.396   0.985  53.311  1.00  0.00     0.044 C 
HETATM    2  C2  UNL     1      25.628   1.916  52.214  1.00  0.00    -0.077 A 
HETATM    3  C3  UNL     1      24.562   2.605  51.867  1.00  0.00     0.016 A 
HETATM    4  C4  UNL     1      24.804   3.521  50.784  1.00  0.00    -0.012 A 
HETATM    5  C5  UNL     1      26.121   3.342  50.491  1.00  0.00     0.023 A 
HETATM    6  C6  UNL     1      26.748   2.309  51.366  1.00  0.00     0.091 A 
HETATM    7  N1  UNL     1      26.897   4.019  49.562  1.00  0.00    -0.368 N 
HETATM    8  C7  UNL     1      27.660   4.673  48.639  1.00  0.00     0.088 C 
HETATM    9  C8  UNL     1      28.129   5.812  48.282  1.00  0.00     0.018 C 
HETATM   10  C9  UNL     1      28.315   7.212  48.399  1.00  0.00     0.015 C 
HETATM   11  C10 UNL     1      27.839   8.069  49.226  1.00  0.00     0.021 A 
HETATM   12  C11 UNL     1      27.517   9.321  49.977  1.00  0.00     0.211 A 
HETATM   13  O1  UNL     1      26.922   9.980  50.902  1.00  0.00    -0.270 OA
HETATM   14  C12 UNL     1      26.334   8.148  49.372  1.00  0.00     0.124 A 
HETATM   15  C13 UNL     1      25.267   7.545  48.780  1.00  0.00     0.028 C 
HETATM   16  C14 UNL     1      23.854   7.127  48.401  1.00  0.00     0.125 C 
HETATM   17  N2  UNL     1      23.710   5.758  48.443  1.00  0.00    -0.398 N 
HETATM   18  C15 UNL     1      23.591   4.407  48.685  1.00  0.00     0.083 C 
HETATM   19  C16 UNL     1      24.347   4.534  49.801  1.00  0.00     0.030 C 
HETATM   20  H7  UNL     1      26.889   4.865  50.217  1.00  0.00     0.165 HD
HETATM   21  H16 UNL     1      23.539   5.322  47.485  1.00  0.00     0.158 HD
ENDROOT
BRANCH  12  22
HETATM   22  O2  UNL     1      28.016  10.584  49.705  1.00  0.00    -0.335 OA
HETATM   23  H11 UNL     1      28.837  10.955  50.152  1.00  0.00     0.220 HD
ENDBRANCH  12  22
TORSDOF 1
ENDMDL
MODEL 4
REMARK VINA RESULT:      -7.0      4.412      6.362
REMARK  1 active torsions:
REMARK  status: ('A' for Active; 'I' for Inactive)
REMARK    1  A    between atoms: C11_12  and  O2_14 
ROOT
HETATM    1  C1  UNL     1      28.662   6.620  47.450  1.00  0.00     0.044 C 
HETATM    2  C2  UNL     1      27.667   6.021  48.331  1.00  0.00    -0.077 A 
HETATM    3  C3  UNL     1      26.663   6.821  48.620  1.00  0.00     0.016 A 
HETATM    4  C4  UNL     1      25.688   6.218  49.490  1.00  0.00    -0.012 A 
HETATM    5  C5  UNL     1      26.176   4.967  49.713  1.00  0.00     0.023 A 
HETATM    6  C6  UNL     1      27.470   4.743  49.004  1.00  0.00     0.091 A 
HETATM    7  N1  UNL     1      25.600   3.933  50.437  1.00  0.00    -0.368 N 
HETATM    8  C7  UNL     1      25.043   2.920  51.160  1.00  0.00     0.088 C 
HETATM    9  C8  UNL     1      24.037   2.130  51.260  1.00  0.00     0.018 C 
HETATM   10  C9  UNL     1      22.782   1.603  50.867  1.00  0.00     0.015 C 
HETATM   11  C10 UNL     1      21.972   1.938  49.931  1.00  0.00     0.021 A 
HETATM   12  C11 UNL     1      20.818   2.013  48.983  1.00  0.00     0.211 A 
HETATM   13  O1  UNL     1      20.178   2.525  47.997  1.00  0.00    -0.270 OA
HETATM   14  C12 UNL     1      21.503   3.377  49.885  1.00  0.00     0.124 A 
HETATM   15  C13 UNL     1      21.682   4.482  50.658  1.00  0.00     0.028 C 
HETATM   16  C14 UNL     1      21.625   5.898  51.213  1.00  0.00     0.125 C 
HETATM   17  N2  UNL     1      22.887   6.397  51.441  1.00  0.00    -0.398 N 
HETATM   18  C15 UNL     1      24.173   6.892  51.468  1.00  0.00     0.083 C 
HETATM   19  C16 UNL     1      24.443   6.272  50.295  1.00  0.00     0.030 C 
HETATM   20  H7  UNL     1      24.902   3.802  49.637  1.00  0.00     0.165 HD
HETATM   21  H16 UNL     1      23.098   6.556  52.474  1.00  0.00     0.158 HD
ENDROOT
BRANCH  12  22
HETATM   22  O2  UNL     1      19.716   1.174  48.974  1.00  0.00    -0.335 OA
HETATM   23  H11 UNL     1      19.309   0.818  48.125  1.00  0.00     0.220 HD
ENDBRANCH  12  22
TORSDOF 1
ENDMDL
MODEL 5
REMARK VINA RESULT:      -7.0      3.617      6.476
REMARK  1 active torsions:
REMARK  status: ('A' for Active; 'I' for Inactive)
REMARK    1  A    between atoms: C11_12  and  O2_14 
ROOT
HETATM    1  C1  UNL     1      21.561  -1.922  54.471  1.00  0.00     0.044 C 
HETATM    2  C2  UNL     1      21.835  -0.622  53.872  1.00  0.00    -0.077 A 
HETATM    3  C3  UNL     1      23.054  -0.502  53.392  1.00  0.00     0.016 A 
HETATM    4  C4  UNL     1      23.312   0.785  52.804  1.00  0.00    -0.012 A 
HETATM    5  C5  UNL     1      22.138   1.456  52.957  1.00  0.00     0.023 A 
HETATM    6  C6  UNL     1      21.110   0.625  53.651  1.00  0.00     0.091 A 
HETATM    7  N1  UNL     1      21.807   2.728  52.513  1.00  0.00    -0.368 N 
HETATM    8  C7  UNL     1      21.483   3.984  52.090  1.00  0.00     0.088 C 
HETATM    9  C8  UNL     1      21.341   4.742  51.065  1.00  0.00     0.018 C 
HETATM   10  C9  UNL     1      21.363   5.037  49.679  1.00  0.00     0.015 C 
HETATM   11  C10 UNL     1      21.697   4.330  48.662  1.00  0.00     0.021 A 
HETATM   12  C11 UNL     1      21.975   3.840  47.278  1.00  0.00     0.211 A 
HETATM   13  O1  UNL     1      22.357   2.955  46.432  1.00  0.00    -0.270 OA
HETATM   14  C12 UNL     1      23.076   3.704  48.661  1.00  0.00     0.124 A 
HETATM   15  C13 UNL     1      24.157   3.734  49.485  1.00  0.00     0.028 C 
HETATM   16  C14 UNL     1      25.529   3.497  50.100  1.00  0.00     0.125 C 
HETATM   17  N2  UNL     1      25.425   3.080  51.408  1.00  0.00    -0.398 N 
HETATM   18  C15 UNL     1      25.239   2.494  52.641  1.00  0.00     0.083 C 
HETATM   19  C16 UNL     1      24.209   1.767  52.147  1.00  0.00     0.030 C 
HETATM   20  H7  UNL     1      21.753   2.334  51.519  1.00  0.00     0.165 HD
HETATM   21  H16 UNL     1      25.807   3.787  52.108  1.00  0.00     0.158 HD
ENDROOT
BRANCH  12  22
HETATM   22  O2  UNL     1      21.800   4.561  46.108  1.00  0.00    -0.335 OA
HETATM   23  H11 UNL     1      22.481   5.217  45.765  1.00  0.00     0.220 HD
ENDBRANCH  12  22
TORSDOF 1
ENDMDL
MODEL 6
REMARK VINA RESULT:      -7.0      3.160      4.910
REMARK  1 active torsions:
REMARK  status: ('A' for Active; 'I' for Inactive)
REMARK    1  A    between atoms: C11_12  and  O2_14 
ROOT
HETATM    1  C1  UNL     1      23.819   8.183  50.108  1.00  0.00     0.044 C 
HETATM    2  C2  UNL     1      23.712   6.730  50.113  1.00  0.00    -0.077 A 
HETATM    3  C3  UNL     1      24.600   6.133  50.880  1.00  0.00     0.016 A 
HETATM    4  C4  UNL     1      24.483   4.700  50.877  1.00  0.00    -0.012 A 
HETATM    5  C5  UNL     1      23.438   4.457  50.041  1.00  0.00     0.023 A 
HETATM    6  C6  UNL     1      22.868   5.719  49.484  1.00  0.00     0.091 A 
HETATM    7  N1  UNL     1      22.853   3.240  49.721  1.00  0.00    -0.368 N 
HETATM    8  C7  UNL     1      22.285   2.044  49.394  1.00  0.00     0.088 C 
HETATM    9  C8  UNL     1      21.664   1.017  49.848  1.00  0.00     0.018 C 
HETATM   10  C9  UNL     1      21.073   0.226  50.865  1.00  0.00     0.015 C 
HETATM   11  C10 UNL     1      20.998   0.387  52.135  1.00  0.00     0.021 A 
HETATM   12  C11 UNL     1      20.700   0.230  53.591  1.00  0.00     0.211 A 
HETATM   13  O1  UNL     1      20.754   0.602  54.817  1.00  0.00    -0.270 OA
HETATM   14  C12 UNL     1      22.290   0.595  52.897  1.00  0.00     0.124 A 
HETATM   15  C13 UNL     1      23.613   0.605  52.582  1.00  0.00     0.028 C 
HETATM   16  C14 UNL     1      25.130   0.702  52.660  1.00  0.00     0.125 C 
HETATM   17  N2  UNL     1      25.623   1.593  51.734  1.00  0.00    -0.398 N 
HETATM   18  C15 UNL     1      26.022   2.628  50.917  1.00  0.00     0.083 C 
HETATM   19  C16 UNL     1      24.939   3.350  51.290  1.00  0.00     0.030 C 
HETATM   20  H7  UNL     1      22.414   3.229  50.697  1.00  0.00     0.165 HD
HETATM   21  H16 UNL     1      26.210   1.131  50.974  1.00  0.00     0.158 HD
ENDROOT
BRANCH  12  22
HETATM   22  O2  UNL     1      19.991  -0.809  54.170  1.00  0.00    -0.335 OA
HETATM   23  H11 UNL     1      19.523  -1.518  53.629  1.00  0.00     0.220 HD
ENDBRANCH  12  22
TORSDOF 1
ENDMDL
MODEL 7
REMARK VINA RESULT:      -7.0      4.336      6.493
REMARK  1 active torsions:
REMARK  status: ('A' for Active; 'I' for Inactive)
REMARK    1  A    between atoms: C11_12  and  O2_14 
ROOT
HETATM    1  C1  UNL     1      22.605  -0.195  54.001  1.00  0.00     0.044 C 
HETATM    2  C2  UNL     1      23.148   0.575  52.890  1.00  0.00    -0.077 A 
HETATM    3  C3  UNL     1      22.238   0.990  52.035  1.00  0.00     0.016 A 
HETATM    4  C4  UNL     1      22.786   1.750  50.943  1.00  0.00    -0.012 A 
HETATM    5  C5  UNL     1      24.123   1.774  51.199  1.00  0.00     0.023 A 
HETATM    6  C6  UNL     1      24.462   1.028  52.446  1.00  0.00     0.091 A 
HETATM    7  N1  UNL     1      25.124   2.426  50.495  1.00  0.00    -0.368 N 
HETATM    8  C7  UNL     1      26.113   3.054  49.796  1.00  0.00     0.088 C 
HETATM    9  C8  UNL     1      26.557   4.189  49.395  1.00  0.00     0.018 C 
HETATM   10  C9  UNL     1      26.527   5.599  49.262  1.00  0.00     0.015 C 
HETATM   11  C10 UNL     1      25.673   6.474  49.648  1.00  0.00     0.021 A 
HETATM   12  C11 UNL     1      24.945   7.748  49.935  1.00  0.00     0.211 A 
HETATM   13  O1  UNL     1      23.965   8.424  50.411  1.00  0.00    -0.270 OA
HETATM   14  C12 UNL     1      24.234   6.295  49.213  1.00  0.00     0.124 A 
HETATM   15  C13 UNL     1      23.561   5.418  48.419  1.00  0.00     0.028 C 
HETATM   16  C14 UNL     1      22.468   4.689  47.651  1.00  0.00     0.125 C 
HETATM   17  N2  UNL     1      22.469   3.342  47.935  1.00  0.00    -0.398 N 
HETATM   18  C15 UNL     1      22.413   2.049  48.407  1.00  0.00     0.083 C 
HETATM   19  C16 UNL     1      22.647   2.490  49.665  1.00  0.00     0.030 C 
HETATM   20  H7  UNL     1      24.766   3.350  50.898  1.00  0.00     0.165 HD
HETATM   21  H16 UNL     1      22.740   2.735  47.102  1.00  0.00     0.158 HD
ENDROOT
BRANCH  12  22
HETATM   22  O2  UNL     1      25.369   9.022  49.595  1.00  0.00    -0.335 OA
HETATM   23  H11 UNL     1      25.001   9.853  50.026  1.00  0.00     0.220 HD
ENDBRANCH  12  22
TORSDOF 1
ENDMDL
MODEL 8
REMARK VINA RESULT:      -6.7      3.142      4.788
REMARK  1 active torsions:
REMARK  status: ('A' for Active; 'I' for Inactive)
REMARK    1  A    between atoms: C11_12  and  O2_14 
ROOT
HETATM    1  C1  UNL     1      26.260   7.425  49.798  1.00  0.00     0.044 C 
HETATM    2  C2  UNL     1      25.091   6.567  49.941  1.00  0.00    -0.077 A 
HETATM    3  C3  UNL     1      25.035   5.594  49.057  1.00  0.00     0.016 A 
HETATM    4  C4  UNL     1      23.877   4.754  49.208  1.00  0.00    -0.012 A 
HETATM    5  C5  UNL     1      23.218   5.291  50.271  1.00  0.00     0.023 A 
HETATM    6  C6  UNL     1      23.928   6.484  50.817  1.00  0.00     0.091 A 
HETATM    7  N1  UNL     1      22.063   4.836  50.890  1.00  0.00    -0.368 N 
HETATM    8  C7  UNL     1      20.919   4.399  51.491  1.00  0.00     0.088 C 
HETATM    9  C8  UNL     1      20.373   3.430  52.130  1.00  0.00     0.018 C 
HETATM   10  C9  UNL     1      20.347   2.144  52.725  1.00  0.00     0.015 C 
HETATM   11  C10 UNL     1      21.225   1.212  52.779  1.00  0.00     0.021 A 
HETATM   12  C11 UNL     1      21.963  -0.058  53.060  1.00  0.00     0.211 A 
HETATM   13  O1  UNL     1      22.982  -0.832  52.980  1.00  0.00    -0.270 OA
HETATM   14  C12 UNL     1      21.805   0.713  51.472  1.00  0.00     0.124 A 
HETATM   15  C13 UNL     1      21.592   0.971  50.153  1.00  0.00     0.028 C 
HETATM   16  C14 UNL     1      21.673   0.960  48.634  1.00  0.00     0.125 C 
HETATM   17  N2  UNL     1      21.836   2.232  48.132  1.00  0.00    -0.398 N 
HETATM   18  C15 UNL     1      22.181   3.499  47.719  1.00  0.00     0.083 C 
HETATM   19  C16 UNL     1      23.015   3.625  48.779  1.00  0.00     0.030 C 
HETATM   20  H7  UNL     1      22.640   4.041  51.315  1.00  0.00     0.165 HD
HETATM   21  H16 UNL     1      20.999   2.573  47.567  1.00  0.00     0.158 HD
ENDROOT
BRANCH  12  22
HETATM   22  O2  UNL     1      21.482  -1.135  53.786  1.00  0.00    -0.335 OA
HETATM   23  H11 UNL     1      21.955  -2.022  53.825  1.00  0.00     0.220 HD
ENDBRANCH  12  22
TORSDOF 1
ENDMDL
MODEL 9
REMARK VINA RESULT:      -6.7      4.221      6.721
REMARK  1 active torsions:
REMARK  status: ('A' for Active; 'I' for Inactive)
REMARK    1  A    between atoms: C11_12  and  O2_14 
ROOT
HETATM    1  C1  UNL     1      28.358   2.106  53.725  1.00  0.00     0.044 C 
HETATM    2  C2  UNL     1      27.135   2.215  52.940  1.00  0.00    -0.077 A 
HETATM    3  C3  UNL     1      26.034   2.136  53.656  1.00  0.00     0.016 A 
HETATM    4  C4  UNL     1      24.834   2.246  52.870  1.00  0.00    -0.012 A 
HETATM    5  C5  UNL     1      25.289   2.406  51.597  1.00  0.00     0.023 A 
HETATM    6  C6  UNL     1      26.780   2.393  51.536  1.00  0.00     0.091 A 
HETATM    7  N1  UNL     1      24.556   2.621  50.439  1.00  0.00    -0.368 N 
HETATM    8  C7  UNL     1      23.837   2.819  49.297  1.00  0.00     0.088 C 
HETATM    9  C8  UNL     1      23.017   3.600  48.695  1.00  0.00     0.018 C 
HETATM   10  C9  UNL     1      22.199   4.751  48.578  1.00  0.00     0.015 C 
HETATM   11  C10 UNL     1      21.932   5.695  49.404  1.00  0.00     0.021 A 
HETATM   12  C11 UNL     1      21.407   6.935  50.054  1.00  0.00     0.211 A 
HETATM   13  O1  UNL     1      21.291   7.751  51.036  1.00  0.00    -0.270 OA
HETATM   14  C12 UNL     1      21.383   5.310  50.762  1.00  0.00     0.124 A 
HETATM   15  C13 UNL     1      21.019   4.148  51.369  1.00  0.00     0.028 C 
HETATM   16  C14 UNL     1      20.525   3.124  52.380  1.00  0.00     0.125 C 
HETATM   17  N2  UNL     1      21.435   2.103  52.544  1.00  0.00    -0.398 N 
HETATM   18  C15 UNL     1      22.465   1.224  52.791  1.00  0.00     0.083 C 
HETATM   19  C16 UNL     1      23.357   2.241  52.730  1.00  0.00     0.030 C 
HETATM   20  H7  UNL     1      24.373   3.620  50.777  1.00  0.00     0.165 HD
HETATM   21  H16 UNL     1      21.080   1.161  52.193  1.00  0.00     0.158 HD
ENDROOT
BRANCH  12  22
HETATM   22  O2  UNL     1      20.566   7.867  49.469  1.00  0.00    -0.335 OA
HETATM   23  H11 UNL     1      20.434   7.934  48.474  1.00  0.00     0.220 HD
ENDBRANCH  12  22
TORSDOF 1
ENDMDL
