MODEL 1
REMARK VINA RESULT:      -7.9      0.000      0.000
REMARK  5 active torsions:
REMARK  status: ('A' for Active; 'I' for Inactive)
REMARK       I    between atoms: C3_3  and  N1_5 
REMARK    1  A    between atoms: N1_5  and  C4_6 
REMARK    2  A    between atoms: C7_9  and  N2_10 
REMARK    3  A    between atoms: N2_10  and  C8_11 
REMARK    4  A    between atoms: C8_11  and  C9_12 
REMARK    5  A    between atoms: C10_13  and  C11_14 
ROOT
HETATM    1  C1  UNL     1      30.213  -0.592  53.452  1.00  0.00     0.022 C 
HETATM    2  C2  UNL     1      29.015  -0.772  53.546  1.00  0.00    -0.016 C 
HETATM    3  C3  UNL     1      27.593  -0.999  53.679  1.00  0.00     0.301 C 
HETATM    4  O1  UNL     1      27.061  -1.975  53.060  1.00  0.00    -0.258 OA
HETATM    5  N1  UNL     1      26.801  -0.135  54.497  1.00  0.00    -0.301 N 
HETATM    6  H2  UNL     1      27.328   0.650  54.974  1.00  0.00     0.171 HD
ENDROOT
BRANCH   5   7
HETATM    7  C4  UNL     1      25.415  -0.451  54.555  1.00  0.00     0.131 A 
HETATM    8  C5  UNL     1      24.488  -0.086  53.600  1.00  0.00     0.068 A 
HETATM    9  C6  UNL     1      23.150  -0.406  53.683  1.00  0.00     0.043 A 
HETATM   10  C7  UNL     1      22.319   0.004  52.684  1.00  0.00     0.138 A 
HETATM   11  C14 UNL     1      22.743  -1.128  54.785  1.00  0.00     0.089 A 
HETATM   12  N3  UNL     1      21.038  -0.356  52.856  1.00  0.00    -0.224 NA
HETATM   13  C13 UNL     1      20.618  -1.057  53.917  1.00  0.00     0.236 A 
HETATM   14  N4  UNL     1      21.448  -1.456  54.896  1.00  0.00    -0.240 NA
HETATM   15  C15 UNL     1      23.662  -1.505  55.759  1.00  0.00     0.151 A 
HETATM   16  N5  UNL     1      24.961  -1.166  55.628  1.00  0.00    -0.241 NA
BRANCH  10  17
HETATM   17  N2  UNL     1      22.706   0.750  51.532  1.00  0.00    -0.371 N 
HETATM   18  H4  UNL     1      23.286   0.366  50.757  1.00  0.00     0.161 HD
BRANCH  17  19
HETATM   19  C8  UNL     1      22.274   2.140  51.416  1.00  0.00     0.148 C 
BRANCH  19  20
HETATM   20  C9  UNL     1      22.887   3.004  52.453  1.00  0.00    -0.006 C 
HETATM   21  C10 UNL     1      24.148   3.389  52.385  1.00  0.00     0.012 C 
BRANCH  21  22
HETATM   22  C11 UNL     1      25.164   3.101  51.385  1.00  0.00    -0.013 A 
HETATM   23  C12 UNL     1      26.157   2.235  51.308  1.00  0.00     0.124 A 
HETATM   24 BR1  UNL     1      25.838   3.590  49.673  1.00  0.00    -0.128 Br
ENDBRANCH  21  22
ENDBRANCH  19  20
ENDBRANCH  17  19
ENDBRANCH  10  17
ENDBRANCH   5   7
TORSDOF 5
ENDMDL
MODEL 2
REMARK VINA RESULT:      -7.0      3.297      4.575
REMARK  5 active torsions:
REMARK  status: ('A' for Active; 'I' for Inactive)
REMARK       I    between atoms: C3_3  and  N1_5 
REMARK    1  A    between atoms: N1_5  and  C4_6 
REMARK    2  A    between atoms: C7_9  and  N2_10 
REMARK    3  A    between atoms: N2_10  and  C8_11 
REMARK    4  A    between atoms: C8_11  and  C9_12 
REMARK    5  A    between atoms: C10_13  and  C11_14 
ROOT
HETATM    1  C1  UNL     1      30.024  -0.480  53.750  1.00  0.00     0.022 C 
HETATM    2  C2  UNL     1      28.964   0.101  53.636  1.00  0.00    -0.016 C 
HETATM    3  C3  UNL     1      27.711   0.808  53.484  1.00  0.00     0.301 C 
HETATM    4  O1  UNL     1      27.421   1.736  54.304  1.00  0.00    -0.258 OA
HETATM    5  N1  UNL     1      26.816   0.464  52.424  1.00  0.00    -0.301 N 
HETATM    6  H2  UNL     1      27.140  -0.321  51.791  1.00  0.00     0.171 HD
ENDROOT
BRANCH   5   7
HETATM    7  C4  UNL     1      25.614   1.223  52.369  1.00  0.00     0.131 A 
HETATM    8  C5  UNL     1      25.513   2.492  51.839  1.00  0.00     0.068 A 
HETATM    9  C6  UNL     1      24.333   3.204  51.799  1.00  0.00     0.043 A 
HETATM   10  C7  UNL     1      24.345   4.453  51.252  1.00  0.00     0.138 A 
HETATM   11  C14 UNL     1      23.213   2.595  52.322  1.00  0.00     0.089 A 
HETATM   12  N3  UNL     1      23.149   5.064  51.260  1.00  0.00    -0.224 NA
HETATM   13  C13 UNL     1      22.047   4.493  51.763  1.00  0.00     0.236 A 
HETATM   14  N4  UNL     1      22.049   3.261  52.299  1.00  0.00    -0.240 NA
HETATM   15  C15 UNL     1      23.294   1.315  52.862  1.00  0.00     0.151 A 
HETATM   16  N5  UNL     1      24.475   0.662  52.875  1.00  0.00    -0.241 NA
BRANCH  10  17
HETATM   17  N2  UNL     1      25.484   5.112  50.703  1.00  0.00    -0.371 N 
HETATM   18  H4  UNL     1      26.156   5.677  51.262  1.00  0.00     0.161 HD
BRANCH  17  19
HETATM   19  C8  UNL     1      25.739   4.998  49.270  1.00  0.00     0.148 C 
BRANCH  19  20
HETATM   20  C9  UNL     1      27.080   4.434  48.984  1.00  0.00    -0.006 C 
HETATM   21  C10 UNL     1      28.060   5.175  48.500  1.00  0.00     0.012 C 
BRANCH  21  22
HETATM   22  C11 UNL     1      28.086   6.587  48.155  1.00  0.00    -0.013 A 
HETATM   23  C12 UNL     1      28.791   7.312  47.306  1.00  0.00     0.124 A 
HETATM   24 BR1  UNL     1      27.313   8.289  48.522  1.00  0.00    -0.128 Br
ENDBRANCH  21  22
ENDBRANCH  19  20
ENDBRANCH  17  19
ENDBRANCH  10  17
ENDBRANCH   5   7
TORSDOF 5
ENDMDL
MODEL 3
REMARK VINA RESULT:      -6.9      2.926      5.545
REMARK  5 active torsions:
REMARK  status: ('A' for Active; 'I' for Inactive)
REMARK       I    between atoms: C3_3  and  N1_5 
REMARK    1  A    between atoms: N1_5  and  C4_6 
REMARK    2  A    between atoms: C7_9  and  N2_10 
REMARK    3  A    between atoms: N2_10  and  C8_11 
REMARK    4  A    between atoms: C8_11  and  C9_12 
REMARK    5  A    between atoms: C10_13  and  C11_14 
ROOT
HETATM    1  C1  UNL     1      27.031   6.231  48.582  1.00  0.00     0.022 C 
HETATM    2  C2  UNL     1      26.224   5.526  49.153  1.00  0.00    -0.016 C 
HETATM    3  C3  UNL     1      25.245   4.693  49.818  1.00  0.00     0.301 C 
HETATM    4  O1  UNL     1      24.581   5.174  50.790  1.00  0.00    -0.258 OA
HETATM    5  N1  UNL     1      25.032   3.349  49.382  1.00  0.00    -0.301 N 
HETATM    6  H2  UNL     1      25.629   3.035  48.566  1.00  0.00     0.171 HD
ENDROOT
BRANCH   5   7
HETATM    7  C4  UNL     1      24.047   2.621  50.107  1.00  0.00     0.131 A 
HETATM    8  C5  UNL     1      24.272   1.984  51.309  1.00  0.00     0.068 A 
HETATM    9  C6  UNL     1      23.298   1.285  51.989  1.00  0.00     0.043 A 
HETATM   10  C7  UNL     1      23.627   0.691  53.172  1.00  0.00     0.138 A 
HETATM   11  C14 UNL     1      22.044   1.237  51.419  1.00  0.00     0.089 A 
HETATM   12  N3  UNL     1      22.612   0.037  53.756  1.00  0.00    -0.224 NA
HETATM   13  C13 UNL     1      21.386  -0.024  53.220  1.00  0.00     0.236 A 
HETATM   14  N4  UNL     1      21.073   0.565  52.055  1.00  0.00    -0.240 NA
HETATM   15  C15 UNL     1      21.797   1.873  50.206  1.00  0.00     0.151 A 
HETATM   16  N5  UNL     1      22.787   2.544  49.582  1.00  0.00    -0.241 NA
BRANCH  10  17
HETATM   17  N2  UNL     1      24.912   0.722  53.790  1.00  0.00    -0.371 N 
HETATM   18  H4  UNL     1      25.422   1.598  54.029  1.00  0.00     0.161 HD
BRANCH  17  19
HETATM   19  C8  UNL     1      25.567  -0.542  54.114  1.00  0.00     0.148 C 
BRANCH  19  20
HETATM   20  C9  UNL     1      26.147  -1.194  52.915  1.00  0.00    -0.006 C 
HETATM   21  C10 UNL     1      27.436  -1.126  52.638  1.00  0.00     0.012 C 
BRANCH  21  22
HETATM   22  C11 UNL     1      28.516  -0.466  53.356  1.00  0.00    -0.013 A 
HETATM   23  C12 UNL     1      29.724  -0.836  53.739  1.00  0.00     0.124 A 
HETATM   24 BR1  UNL     1      29.055   1.151  54.203  1.00  0.00    -0.128 Br
ENDBRANCH  21  22
ENDBRANCH  19  20
ENDBRANCH  17  19
ENDBRANCH  10  17
ENDBRANCH   5   7
TORSDOF 5
ENDMDL
MODEL 4
REMARK VINA RESULT:      -6.6      2.539      5.423
REMARK  5 active torsions:
REMARK  status: ('A' for Active; 'I' for Inactive)
REMARK       I    between atoms: C3_3  and  N1_5 
REMARK    1  A    between atoms: N1_5  and  C4_6 
REMARK    2  A    between atoms: C7_9  and  N2_10 
REMARK    3  A    between atoms: N2_10  and  C8_11 
REMARK    4  A    between atoms: C8_11  and  C9_12 
REMARK    5  A    between atoms: C10_13  and  C11_14 
ROOT
HETATM    1  C1  UNL     1      18.412   1.283  50.263  1.00  0.00     0.022 C 
HETATM    2  C2  UNL     1      19.489   0.979  50.735  1.00  0.00    -0.016 C 
HETATM    3  C3  UNL     1      20.781   0.638  51.289  1.00  0.00     0.301 C 
HETATM    4  O1  UNL     1      21.572  -0.091  50.610  1.00  0.00    -0.258 OA
HETATM    5  N1  UNL     1      21.159   1.118  52.581  1.00  0.00    -0.301 N 
HETATM    6  H2  UNL     1      20.437   1.718  53.072  1.00  0.00     0.171 HD
ENDROOT
BRANCH   5   7
HETATM    7  C4  UNL     1      22.450   0.722  53.026  1.00  0.00     0.131 A 
HETATM    8  C5  UNL     1      23.620   1.389  52.728  1.00  0.00     0.068 A 
HETATM    9  C6  UNL     1      24.859   0.981  53.174  1.00  0.00     0.043 A 
HETATM   10  C7  UNL     1      25.953   1.714  52.821  1.00  0.00     0.138 A 
HETATM   11  C14 UNL     1      24.904  -0.154  53.956  1.00  0.00     0.089 A 
HETATM   12  N3  UNL     1      27.110   1.237  53.303  1.00  0.00    -0.224 NA
HETATM   13  C13 UNL     1      27.179   0.137  54.064  1.00  0.00     0.236 A 
HETATM   14  N4  UNL     1      26.094  -0.577  54.406  1.00  0.00    -0.240 NA
HETATM   15  C15 UNL     1      23.735  -0.841  54.267  1.00  0.00     0.151 A 
HETATM   16  N5  UNL     1      22.548  -0.398  53.805  1.00  0.00    -0.241 NA
BRANCH  10  17
HETATM   17  N2  UNL     1      25.942   2.891  52.016  1.00  0.00    -0.371 N 
HETATM   18  H4  UNL     1      25.700   3.839  52.373  1.00  0.00     0.161 HD
BRANCH  17  19
HETATM   19  C8  UNL     1      26.287   2.779  50.601  1.00  0.00     0.148 C 
BRANCH  19  20
HETATM   20  C9  UNL     1      26.126   4.066  49.883  1.00  0.00    -0.006 C 
HETATM   21  C10 UNL     1      24.980   4.417  49.328  1.00  0.00     0.012 C 
BRANCH  21  22
HETATM   22  C11 UNL     1      23.708   3.712  49.277  1.00  0.00    -0.013 A 
HETATM   23  C12 UNL     1      22.651   3.668  50.067  1.00  0.00     0.124 A 
HETATM   24 BR1  UNL     1      22.647   2.496  48.267  1.00  0.00    -0.128 Br
ENDBRANCH  21  22
ENDBRANCH  19  20
ENDBRANCH  17  19
ENDBRANCH  10  17
ENDBRANCH   5   7
TORSDOF 5
ENDMDL
MODEL 5
REMARK VINA RESULT:      -6.5      2.802      4.262
REMARK  5 active torsions:
REMARK  status: ('A' for Active; 'I' for Inactive)
REMARK       I    between atoms: C3_3  and  N1_5 
REMARK    1  A    between atoms: N1_5  and  C4_6 
REMARK    2  A    between atoms: C7_9  and  N2_10 
REMARK    3  A    between atoms: N2_10  and  C8_11 
REMARK    4  A    between atoms: C8_11  and  C9_12 
REMARK    5  A    between atoms: C10_13  and  C11_14 
ROOT
HETATM    1  C1  UNL     1      27.802   5.367  48.419  1.00  0.00     0.022 C 
HETATM    2  C2  UNL     1      27.213   4.527  49.069  1.00  0.00    -0.016 C 
HETATM    3  C3  UNL     1      26.530   3.511  49.840  1.00  0.00     0.301 C 
HETATM    4  O1  UNL     1      25.669   2.772  49.264  1.00  0.00    -0.258 OA
HETATM    5  N1  UNL     1      26.822   3.345  51.229  1.00  0.00    -0.301 N 
HETATM    6  H2  UNL     1      27.551   4.005  51.623  1.00  0.00     0.171 HD
ENDROOT
BRANCH   5   7
HETATM    7  C4  UNL     1      26.091   2.318  51.888  1.00  0.00     0.131 A 
HETATM    8  C5  UNL     1      24.718   2.286  52.005  1.00  0.00     0.068 A 
HETATM    9  C6  UNL     1      24.036   1.276  52.650  1.00  0.00     0.043 A 
HETATM   10  C7  UNL     1      22.676   1.342  52.709  1.00  0.00     0.138 A 
HETATM   11  C14 UNL     1      24.789   0.258  53.197  1.00  0.00     0.089 A 
HETATM   12  N3  UNL     1      22.106   0.313  53.357  1.00  0.00    -0.224 NA
HETATM   13  C13 UNL     1      22.816  -0.686  53.896  1.00  0.00     0.236 A 
HETATM   14  N4  UNL     1      24.157  -0.739  53.832  1.00  0.00    -0.240 NA
HETATM   15  C15 UNL     1      26.176   0.273  53.090  1.00  0.00     0.151 A 
HETATM   16  N5  UNL     1      26.793   1.286  52.446  1.00  0.00    -0.241 NA
BRANCH  10  17
HETATM   17  N2  UNL     1      21.867   2.377  52.155  1.00  0.00    -0.371 N 
HETATM   18  H4  UNL     1      21.914   3.374  52.452  1.00  0.00     0.161 HD
BRANCH  17  19
HETATM   19  C8  UNL     1      20.909   2.037  51.107  1.00  0.00     0.148 C 
BRANCH  19  20
HETATM   20  C9  UNL     1      21.533   1.253  50.013  1.00  0.00    -0.006 C 
HETATM   21  C10 UNL     1      22.135   1.835  48.992  1.00  0.00     0.012 C 
BRANCH  21  22
HETATM   22  C11 UNL     1      22.329   3.247  48.699  1.00  0.00    -0.013 A 
HETATM   23  C12 UNL     1      22.209   3.982  47.608  1.00  0.00     0.124 A 
HETATM   24 BR1  UNL     1      22.817   4.933  49.436  1.00  0.00    -0.128 Br
ENDBRANCH  21  22
ENDBRANCH  19  20
ENDBRANCH  17  19
ENDBRANCH  10  17
ENDBRANCH   5   7
TORSDOF 5
ENDMDL
MODEL 6
REMARK VINA RESULT:      -6.4      3.309      4.468
REMARK  5 active torsions:
REMARK  status: ('A' for Active; 'I' for Inactive)
REMARK       I    between atoms: C3_3  and  N1_5 
REMARK    1  A    between atoms: N1_5  and  C4_6 
REMARK    2  A    between atoms: C7_9  and  N2_10 
REMARK    3  A    between atoms: N2_10  and  C8_11 
REMARK    4  A    between atoms: C8_11  and  C9_12 
REMARK    5  A    between atoms: C10_13  and  C11_14 
ROOT
HETATM    1  C1  UNL     1      30.151  -0.818  53.811  1.00  0.00     0.022 C 
HETATM    2  C2  UNL     1      29.083  -0.255  53.676  1.00  0.00    -0.016 C 
HETATM    3  C3  UNL     1      27.823   0.433  53.501  1.00  0.00     0.301 C 
HETATM    4  O1  UNL     1      27.466   1.299  54.362  1.00  0.00    -0.258 OA
HETATM    5  N1  UNL     1      26.994   0.139  52.375  1.00  0.00    -0.301 N 
HETATM    6  H2  UNL     1      27.371  -0.595  51.711  1.00  0.00     0.171 HD
ENDROOT
BRANCH   5   7
HETATM    7  C4  UNL     1      25.777   0.874  52.304  1.00  0.00     0.131 A 
HETATM    8  C5  UNL     1      25.657   2.139  51.768  1.00  0.00     0.068 A 
HETATM    9  C6  UNL     1      24.464   2.827  51.712  1.00  0.00     0.043 A 
HETATM   10  C7  UNL     1      24.456   4.074  51.162  1.00  0.00     0.138 A 
HETATM   11  C14 UNL     1      23.350   2.197  52.224  1.00  0.00     0.089 A 
HETATM   12  N3  UNL     1      23.249   4.661  51.154  1.00  0.00    -0.224 NA
HETATM   13  C13 UNL     1      22.153   4.069  51.645  1.00  0.00     0.236 A 
HETATM   14  N4  UNL     1      22.174   2.839  52.185  1.00  0.00    -0.240 NA
HETATM   15  C15 UNL     1      23.451   0.921  52.769  1.00  0.00     0.151 A 
HETATM   16  N5  UNL     1      24.644   0.292  52.798  1.00  0.00    -0.241 NA
BRANCH  10  17
HETATM   17  N2  UNL     1      25.588   4.755  50.624  1.00  0.00    -0.371 N 
HETATM   18  H4  UNL     1      26.576   4.496  50.831  1.00  0.00     0.161 HD
BRANCH  17  19
HETATM   19  C8  UNL     1      25.369   5.886  49.727  1.00  0.00     0.148 C 
BRANCH  19  20
HETATM   20  C9  UNL     1      25.484   7.186  50.430  1.00  0.00    -0.006 C 
HETATM   21  C10 UNL     1      24.492   8.057  50.454  1.00  0.00     0.012 C 
BRANCH  21  22
HETATM   22  C11 UNL     1      23.165   7.984  49.862  1.00  0.00    -0.013 A 
HETATM   23  C12 UNL     1      22.707   8.041  48.625  1.00  0.00     0.124 A 
HETATM   24 BR1  UNL     1      21.308   7.785  50.236  1.00  0.00    -0.128 Br
ENDBRANCH  21  22
ENDBRANCH  19  20
ENDBRANCH  17  19
ENDBRANCH  10  17
ENDBRANCH   5   7
TORSDOF 5
ENDMDL
MODEL 7
REMARK VINA RESULT:      -6.4      1.925      2.162
REMARK  5 active torsions:
REMARK  status: ('A' for Active; 'I' for Inactive)
REMARK       I    between atoms: C3_3  and  N1_5 
REMARK    1  A    between atoms: N1_5  and  C4_6 
REMARK    2  A    between atoms: C7_9  and  N2_10 
REMARK    3  A    between atoms: N2_10  and  C8_11 
REMARK    4  A    between atoms: C8_11  and  C9_12 
REMARK    5  A    between atoms: C10_13  and  C11_14 
ROOT
HETATM    1  C1  UNL     1      29.392   0.234  54.397  1.00  0.00     0.022 C 
HETATM    2  C2  UNL     1      28.179   0.272  54.372  1.00  0.00    -0.016 C 
HETATM    3  C3  UNL     1      26.734   0.320  54.316  1.00  0.00     0.301 C 
HETATM    4  O1  UNL     1      26.143   1.427  54.524  1.00  0.00    -0.258 OA
HETATM    5  N1  UNL     1      25.986  -0.864  54.031  1.00  0.00    -0.301 N 
HETATM    6  H2  UNL     1      26.562  -1.739  53.872  1.00  0.00     0.171 HD
ENDROOT
BRANCH   5   7
HETATM    7  C4  UNL     1      24.573  -0.701  54.003  1.00  0.00     0.131 A 
HETATM    8  C5  UNL     1      23.873  -0.118  52.967  1.00  0.00     0.068 A 
HETATM    9  C6  UNL     1      22.502   0.026  52.967  1.00  0.00     0.043 A 
HETATM   10  C7  UNL     1      21.910   0.619  51.892  1.00  0.00     0.138 A 
HETATM   11  C14 UNL     1      21.819  -0.445  54.068  1.00  0.00     0.089 A 
HETATM   12  N3  UNL     1      20.574   0.712  51.986  1.00  0.00    -0.224 NA
HETATM   13  C13 UNL     1      19.890   0.262  53.045  1.00  0.00     0.236 A 
HETATM   14  N4  UNL     1      20.485  -0.321  54.099  1.00  0.00    -0.240 NA
HETATM   15  C15 UNL     1      22.508  -1.037  55.123  1.00  0.00     0.151 A 
HETATM   16  N5  UNL     1      23.851  -1.153  55.072  1.00  0.00    -0.241 NA
BRANCH  10  17
HETATM   17  N2  UNL     1      22.584   1.116  50.738  1.00  0.00    -0.371 N 
HETATM   18  H4  UNL     1      22.923   0.516  49.957  1.00  0.00     0.161 HD
BRANCH  17  19
HETATM   19  C8  UNL     1      22.824   2.552  50.628  1.00  0.00     0.148 C 
BRANCH  19  20
HETATM   20  C9  UNL     1      24.216   2.916  50.988  1.00  0.00    -0.006 C 
HETATM   21  C10 UNL     1      24.586   4.171  51.167  1.00  0.00     0.012 C 
BRANCH  21  22
HETATM   22  C11 UNL     1      23.813   5.399  51.070  1.00  0.00    -0.013 A 
HETATM   23  C12 UNL     1      24.130   6.678  50.983  1.00  0.00     0.124 A 
HETATM   24 BR1  UNL     1      22.054   6.124  50.998  1.00  0.00    -0.128 Br
ENDBRANCH  21  22
ENDBRANCH  19  20
ENDBRANCH  17  19
ENDBRANCH  10  17
ENDBRANCH   5   7
TORSDOF 5
ENDMDL
MODEL 8
REMARK VINA RESULT:      -6.2      2.579      5.212
REMARK  5 active torsions:
REMARK  status: ('A' for Active; 'I' for Inactive)
REMARK       I    between atoms: C3_3  and  N1_5 
REMARK    1  A    between atoms: N1_5  and  C4_6 
REMARK    2  A    between atoms: C7_9  and  N2_10 
REMARK    3  A    between atoms: N2_10  and  C8_11 
REMARK    4  A    between atoms: C8_11  and  C9_12 
REMARK    5  A    between atoms: C10_13  and  C11_14 
ROOT
HETATM    1  C1  UNL     1      19.854  -1.502  53.663  1.00  0.00     0.022 C 
HETATM    2  C2  UNL     1      20.954  -0.990  53.736  1.00  0.00    -0.016 C 
HETATM    3  C3  UNL     1      22.262  -0.383  53.846  1.00  0.00     0.301 C 
HETATM    4  O1  UNL     1      22.352   0.883  53.921  1.00  0.00    -0.258 OA
HETATM    5  N1  UNL     1      23.434  -1.201  53.872  1.00  0.00    -0.301 N 
HETATM    6  H2  UNL     1      23.262  -2.244  53.804  1.00  0.00     0.171 HD
ENDROOT
BRANCH   5   7
HETATM    7  C4  UNL     1      24.666  -0.499  53.982  1.00  0.00     0.131 A 
HETATM    8  C5  UNL     1      25.177   0.342  53.016  1.00  0.00     0.068 A 
HETATM    9  C6  UNL     1      26.376   1.010  53.151  1.00  0.00     0.043 A 
HETATM   10  C7  UNL     1      26.790   1.818  52.134  1.00  0.00     0.138 A 
HETATM   11  C14 UNL     1      27.079   0.810  54.320  1.00  0.00     0.089 A 
HETATM   12  N3  UNL     1      27.966   2.422  52.361  1.00  0.00    -0.224 NA
HETATM   13  C13 UNL     1      28.667   2.244  53.488  1.00  0.00     0.236 A 
HETATM   14  N4  UNL     1      28.249   1.444  54.483  1.00  0.00    -0.240 NA
HETATM   15  C15 UNL     1      26.580  -0.035  55.307  1.00  0.00     0.151 A 
HETATM   16  N5  UNL     1      25.401  -0.664  55.123  1.00  0.00    -0.241 NA
BRANCH  10  17
HETATM   17  N2  UNL     1      26.088   2.047  50.914  1.00  0.00    -0.371 N 
HETATM   18  H4  UNL     1      26.154   1.428  50.079  1.00  0.00     0.161 HD
BRANCH  17  19
HETATM   19  C8  UNL     1      25.221   3.217  50.811  1.00  0.00     0.148 C 
BRANCH  19  20
HETATM   20  C9  UNL     1      23.879   2.872  50.282  1.00  0.00    -0.006 C 
HETATM   21  C10 UNL     1      23.259   3.634  49.399  1.00  0.00     0.012 C 
BRANCH  21  22
HETATM   22  C11 UNL     1      23.680   4.880  48.777  1.00  0.00    -0.013 A 
HETATM   23  C12 UNL     1      23.177   5.647  47.826  1.00  0.00     0.124 A 
HETATM   24 BR1  UNL     1      25.021   6.231  48.761  1.00  0.00    -0.128 Br
ENDBRANCH  21  22
ENDBRANCH  19  20
ENDBRANCH  17  19
ENDBRANCH  10  17
ENDBRANCH   5   7
TORSDOF 5
ENDMDL
MODEL 9
REMARK VINA RESULT:      -6.1      2.947      5.868
REMARK  5 active torsions:
REMARK  status: ('A' for Active; 'I' for Inactive)
REMARK       I    between atoms: C3_3  and  N1_5 
REMARK    1  A    between atoms: N1_5  and  C4_6 
REMARK    2  A    between atoms: C7_9  and  N2_10 
REMARK    3  A    between atoms: N2_10  and  C8_11 
REMARK    4  A    between atoms: C8_11  and  C9_12 
REMARK    5  A    between atoms: C10_13  and  C11_14 
ROOT
HETATM    1  C1  UNL     1      22.176   5.096  47.905  1.00  0.00     0.022 C 
HETATM    2  C2  UNL     1      22.806   4.611  48.824  1.00  0.00    -0.016 C 
HETATM    3  C3  UNL     1      23.535   4.022  49.926  1.00  0.00     0.301 C 
HETATM    4  O1  UNL     1      23.677   4.688  51.000  1.00  0.00    -0.258 OA
HETATM    5  N1  UNL     1      24.086   2.709  49.803  1.00  0.00    -0.301 N 
HETATM    6  H2  UNL     1      23.918   2.230  48.873  1.00  0.00     0.171 HD
ENDROOT
BRANCH   5   7
HETATM    7  C4  UNL     1      24.783   2.230  50.946  1.00  0.00     0.131 A 
HETATM    8  C5  UNL     1      24.307   1.260  51.803  1.00  0.00     0.068 A 
HETATM    9  C6  UNL     1      25.006   0.814  52.905  1.00  0.00     0.043 A 
HETATM   10  C7  UNL     1      24.444  -0.150  53.688  1.00  0.00     0.138 A 
HETATM   11  C14 UNL     1      26.240   1.383  53.140  1.00  0.00     0.089 A 
HETATM   12  N3  UNL     1      25.201  -0.516  54.734  1.00  0.00    -0.224 NA
HETATM   13  C13 UNL     1      26.402   0.023  54.982  1.00  0.00     0.236 A 
HETATM   14  N4  UNL     1      26.946   0.972  54.203  1.00  0.00    -0.240 NA
HETATM   15  C15 UNL     1      26.737   2.364  52.287  1.00  0.00     0.151 A 
HETATM   16  N5  UNL     1      26.011   2.763  51.222  1.00  0.00    -0.241 NA
BRANCH  10  17
HETATM   17  N2  UNL     1      23.172  -0.759  53.474  1.00  0.00    -0.371 N 
HETATM   18  H4  UNL     1      23.000  -1.520  52.785  1.00  0.00     0.161 HD
BRANCH  17  19
HETATM   19  C8  UNL     1      22.031  -0.300  54.261  1.00  0.00     0.148 C 
BRANCH  19  20
HETATM   20  C9  UNL     1      20.744  -0.806  53.726  1.00  0.00    -0.006 C 
HETATM   21  C10 UNL     1      20.080  -0.166  52.781  1.00  0.00     0.012 C 
BRANCH  21  22
HETATM   22  C11 UNL     1      20.398   1.072  52.086  1.00  0.00    -0.013 A 
HETATM   23  C12 UNL     1      20.567   1.395  50.817  1.00  0.00     0.124 A 
HETATM   24 BR1  UNL     1      20.774   2.925  52.310  1.00  0.00    -0.128 Br
ENDBRANCH  21  22
ENDBRANCH  19  20
ENDBRANCH  17  19
ENDBRANCH  10  17
ENDBRANCH   5   7
TORSDOF 5
ENDMDL
