MODEL 1
REMARK VINA RESULT:      -8.3      0.000      0.000
REMARK  4 active torsions:
REMARK  status: ('A' for Active; 'I' for Inactive)
REMARK    1  A    between atoms: C3_3  and  C4_4 
REMARK    2  A    between atoms: C4_4  and  C6_6 
REMARK    3  A    between atoms: C6_6  and  C7_7 
REMARK    4  A    between atoms: C7_7  and  N1_8 
ROOT
HETATM    1  C1  UNL     1      22.892   2.073  50.281  1.00  0.00     0.069 C 
HETATM    2  C2  UNL     1      23.585   1.674  51.504  1.00  0.00     0.013 C 
HETATM    3  C3  UNL     1      24.716   2.298  51.738  1.00  0.00    -0.008 C 
HETATM    4  S1  UNL     1      25.668   1.885  53.365  1.00  0.00    -0.178 SA
HETATM    5  C12 UNL     1      27.293   2.342  53.497  1.00  0.00     0.032 A 
HETATM    6  C13 UNL     1      28.679   2.151  53.602  1.00  0.00     0.009 A 
HETATM    7  C14 UNL     1      29.303   0.731  53.630  1.00  0.00     0.052 A 
HETATM    8  C15 UNL     1      28.967  -0.672  53.611  1.00  0.00     0.170 A 
HETATM    9  F1  UNL     1      30.213  -0.943  53.669  1.00  0.00    -0.196 F 
HETATM   10  C16 UNL     1      27.697  -0.394  53.551  1.00  0.00    -0.030 A 
HETATM   11  C17 UNL     1      26.659  -0.145  53.502  1.00  0.00    -0.053 A 
HETATM   12  C18 UNL     1      25.388   0.185  53.442  1.00  0.00     0.040 A 
HETATM   13  C19 UNL     1      24.540  -0.785  53.466  1.00  0.00     0.019 C 
HETATM   14  C20 UNL     1      23.238  -0.116  53.395  1.00  0.00     0.148 C 
HETATM   15  N2  UNL     1      22.920   0.655  52.259  1.00  0.00    -0.389 N 
HETATM   16  H18 UNL     1      24.762   2.621  54.575  1.00  0.00     0.096 HD
HETATM   17  H25 UNL     1      21.963   0.473  51.822  1.00  0.00     0.159 HD
ENDROOT
BRANCH   3  18
HETATM   18  C4  UNL     1      25.491   3.311  51.097  1.00  0.00     0.024 C 
HETATM   19  C5  UNL     1      26.409   2.665  50.006  1.00  0.00     0.015 C 
BRANCH  18  20
HETATM   20  C6  UNL     1      25.036   4.584  50.555  1.00  0.00     0.029 C 
BRANCH  20  21
HETATM   21  C7  UNL     1      25.113   4.880  49.114  1.00  0.00     0.126 C 
BRANCH  21  22
HETATM   22  N1  UNL     1      25.740   6.216  49.006  1.00  0.00    -0.348 N 
HETATM   23  C8  UNL     1      25.077   7.509  49.209  1.00  0.00     0.152 C 
HETATM   24  C9  UNL     1      26.138   8.332  49.954  1.00  0.00     0.188 C 
HETATM   25  O1  UNL     1      27.165   8.700  49.076  1.00  0.00    -0.380 OA
HETATM   26  C10 UNL     1      27.931   7.599  48.790  1.00  0.00     0.270 C 
HETATM   27  C11 UNL     1      27.115   6.364  48.675  1.00  0.00     0.243 C 
HETATM   28  O2  UNL     1      27.760   5.356  48.227  1.00  0.00    -0.271 OA
ENDBRANCH  21  22
ENDBRANCH  20  21
ENDBRANCH  18  20
ENDBRANCH   3  18
TORSDOF 4
ENDMDL
MODEL 2
REMARK VINA RESULT:      -8.2      2.555      3.248
REMARK  4 active torsions:
REMARK  status: ('A' for Active; 'I' for Inactive)
REMARK    1  A    between atoms: C3_3  and  C4_4 
REMARK    2  A    between atoms: C4_4  and  C6_6 
REMARK    3  A    between atoms: C6_6  and  C7_7 
REMARK    4  A    between atoms: C7_7  and  N1_8 
ROOT
HETATM    1  C1  UNL     1      22.873   1.931  50.186  1.00  0.00     0.069 C 
HETATM    2  C2  UNL     1      23.554   1.605  51.438  1.00  0.00     0.013 C 
HETATM    3  C3  UNL     1      24.673   2.254  51.654  1.00  0.00    -0.008 C 
HETATM    4  S1  UNL     1      25.606   1.939  53.314  1.00  0.00    -0.178 SA
HETATM    5  C12 UNL     1      27.224   2.423  53.445  1.00  0.00     0.032 A 
HETATM    6  C13 UNL     1      28.610   2.256  53.579  1.00  0.00     0.009 A 
HETATM    7  C14 UNL     1      29.251   0.847  53.689  1.00  0.00     0.052 A 
HETATM    8  C15 UNL     1      28.933  -0.559  53.738  1.00  0.00     0.170 A 
HETATM    9  F1  UNL     1      30.181  -0.811  53.828  1.00  0.00    -0.196 F 
HETATM   10  C16 UNL     1      27.661  -0.301  53.646  1.00  0.00    -0.030 A 
HETATM   11  C17 UNL     1      26.620  -0.069  53.570  1.00  0.00    -0.053 A 
HETATM   12  C18 UNL     1      25.347   0.241  53.475  1.00  0.00     0.040 A 
HETATM   13  C19 UNL     1      24.510  -0.737  53.538  1.00  0.00     0.019 C 
HETATM   14  C20 UNL     1      23.201  -0.089  53.414  1.00  0.00     0.148 C 
HETATM   15  N2  UNL     1      22.890   0.617  52.235  1.00  0.00    -0.389 N 
HETATM   16  H18 UNL     1      24.673   2.724  54.472  1.00  0.00     0.096 HD
HETATM   17  H25 UNL     1      21.942   0.401  51.795  1.00  0.00     0.159 HD
ENDROOT
BRANCH   3  18
HETATM   18  C4  UNL     1      25.445   3.243  50.973  1.00  0.00     0.024 C 
HETATM   19  C5  UNL     1      26.469   2.548  50.015  1.00  0.00     0.015 C 
BRANCH  18  20
HETATM   20  C6  UNL     1      24.972   4.434  50.281  1.00  0.00     0.029 C 
BRANCH  20  21
HETATM   21  C7  UNL     1      24.352   5.554  51.009  1.00  0.00     0.126 C 
BRANCH  21  22
HETATM   22  N1  UNL     1      22.939   5.591  50.572  1.00  0.00    -0.348 N 
HETATM   23  C8  UNL     1      22.429   6.150  49.315  1.00  0.00     0.152 C 
HETATM   24  C9  UNL     1      21.338   5.149  48.906  1.00  0.00     0.188 C 
HETATM   25  O1  UNL     1      20.217   5.296  49.731  1.00  0.00    -0.380 OA
HETATM   26  C10 UNL     1      20.499   4.786  50.972  1.00  0.00     0.270 C 
HETATM   27  C11 UNL     1      21.899   5.059  51.384  1.00  0.00     0.243 C 
HETATM   28  O2  UNL     1      22.148   4.767  52.603  1.00  0.00    -0.271 OA
ENDBRANCH  21  22
ENDBRANCH  20  21
ENDBRANCH  18  20
ENDBRANCH   3  18
TORSDOF 4
ENDMDL
MODEL 3
REMARK VINA RESULT:      -8.2      4.472      7.130
REMARK  4 active torsions:
REMARK  status: ('A' for Active; 'I' for Inactive)
REMARK    1  A    between atoms: C3_3  and  C4_4 
REMARK    2  A    between atoms: C4_4  and  C6_6 
REMARK    3  A    between atoms: C6_6  and  C7_7 
REMARK    4  A    between atoms: C7_7  and  N1_8 
ROOT
HETATM    1  C1  UNL     1      21.821  -0.383  54.637  1.00  0.00     0.069 C 
HETATM    2  C2  UNL     1      21.268  -0.100  53.314  1.00  0.00     0.013 C 
HETATM    3  C3  UNL     1      22.112   0.412  52.450  1.00  0.00    -0.008 C 
HETATM    4  S1  UNL     1      21.489   0.756  50.657  1.00  0.00    -0.178 SA
HETATM    5  C12 UNL     1      22.399   1.778  49.659  1.00  0.00     0.032 A 
HETATM    6  C13 UNL     1      22.677   2.929  48.908  1.00  0.00     0.009 A 
HETATM    7  C14 UNL     1      21.659   4.096  48.803  1.00  0.00     0.052 A 
HETATM    8  C15 UNL     1      20.340   4.508  49.214  1.00  0.00     0.170 A 
HETATM    9  F1  UNL     1      20.517   5.605  48.586  1.00  0.00    -0.196 F 
HETATM   10  C16 UNL     1      20.160   3.390  49.854  1.00  0.00    -0.030 A 
HETATM   11  C17 UNL     1      20.031   2.464  50.374  1.00  0.00    -0.053 A 
HETATM   12  C18 UNL     1      19.897   1.320  51.005  1.00  0.00     0.040 A 
HETATM   13  C19 UNL     1      18.757   1.103  51.566  1.00  0.00     0.019 C 
HETATM   14  C20 UNL     1      18.908  -0.225  52.167  1.00  0.00     0.148 C 
HETATM   15  N2  UNL     1      19.880  -0.421  53.169  1.00  0.00    -0.389 N 
HETATM   16  H18 UNL     1      21.363  -0.769  49.960  1.00  0.00     0.096 HD
HETATM   17  H25 UNL     1      19.551  -0.930  54.048  1.00  0.00     0.159 HD
ENDROOT
BRANCH   3  18
HETATM   18  C4  UNL     1      23.492   0.781  52.445  1.00  0.00     0.024 C 
HETATM   19  C5  UNL     1      23.643   2.267  52.913  1.00  0.00     0.015 C 
BRANCH  18  20
HETATM   20  C6  UNL     1      24.621   0.052  53.006  1.00  0.00     0.029 C 
BRANCH  20  21
HETATM   21  C7  UNL     1      25.936   0.040  52.343  1.00  0.00     0.126 C 
BRANCH  21  22
HETATM   22  N1  UNL     1      26.879   0.665  53.297  1.00  0.00    -0.348 N 
HETATM   23  C8  UNL     1      27.157   0.218  54.666  1.00  0.00     0.152 C 
HETATM   24  C9  UNL     1      28.674   0.423  54.798  1.00  0.00     0.188 C 
HETATM   25  O1  UNL     1      28.967   1.788  54.903  1.00  0.00    -0.380 OA
HETATM   26  C10 UNL     1      28.791   2.384  53.681  1.00  0.00     0.270 C 
HETATM   27  C11 UNL     1      27.633   1.817  52.944  1.00  0.00     0.243 C 
HETATM   28  O2  UNL     1      27.321   2.467  51.889  1.00  0.00    -0.271 OA
ENDBRANCH  21  22
ENDBRANCH  20  21
ENDBRANCH  18  20
ENDBRANCH   3  18
TORSDOF 4
ENDMDL
MODEL 4
REMARK VINA RESULT:      -7.9      2.953      4.101
REMARK  4 active torsions:
REMARK  status: ('A' for Active; 'I' for Inactive)
REMARK    1  A    between atoms: C3_3  and  C4_4 
REMARK    2  A    between atoms: C4_4  and  C6_6 
REMARK    3  A    between atoms: C6_6  and  C7_7 
REMARK    4  A    between atoms: C7_7  and  N1_8 
ROOT
HETATM    1  C1  UNL     1      19.151   0.259  51.410  1.00  0.00     0.069 C 
HETATM    2  C2  UNL     1      20.291   0.335  52.322  1.00  0.00     0.013 C 
HETATM    3  C3  UNL     1      21.289   1.082  51.912  1.00  0.00    -0.008 C 
HETATM    4  S1  UNL     1      22.810   1.297  53.080  1.00  0.00    -0.178 SA
HETATM    5  C12 UNL     1      24.258   1.889  52.434  1.00  0.00     0.032 A 
HETATM    6  C13 UNL     1      25.602   1.846  52.036  1.00  0.00     0.009 A 
HETATM    7  C14 UNL     1      26.459   0.563  52.205  1.00  0.00     0.052 A 
HETATM    8  C15 UNL     1      26.415  -0.789  52.707  1.00  0.00     0.170 A 
HETATM    9  F1  UNL     1      27.630  -0.934  52.345  1.00  0.00    -0.196 F 
HETATM   10  C16 UNL     1      25.175  -0.640  53.075  1.00  0.00    -0.030 A 
HETATM   11  C17 UNL     1      24.158  -0.498  53.371  1.00  0.00    -0.053 A 
HETATM   12  C18 UNL     1      22.908  -0.300  53.726  1.00  0.00     0.040 A 
HETATM   13  C19 UNL     1      22.326  -1.268  54.346  1.00  0.00     0.019 C 
HETATM   14  C20 UNL     1      20.978  -0.756  54.610  1.00  0.00     0.148 C 
HETATM   15  N2  UNL     1      20.141  -0.427  53.525  1.00  0.00    -0.389 N 
HETATM   16  H18 UNL     1      22.259   2.320  54.296  1.00  0.00     0.096 HD
HETATM   17  H25 UNL     1      19.146  -0.811  53.567  1.00  0.00     0.159 HD
ENDROOT
BRANCH   3  18
HETATM   18  C4  UNL     1      21.581   1.883  50.767  1.00  0.00     0.024 C 
HETATM   19  C5  UNL     1      21.621   0.983  49.487  1.00  0.00     0.015 C 
BRANCH  18  20
HETATM   20  C6  UNL     1      20.966   3.142  50.369  1.00  0.00     0.029 C 
BRANCH  20  21
HETATM   21  C7  UNL     1      20.517   4.129  51.366  1.00  0.00     0.126 C 
BRANCH  21  22
HETATM   22  N1  UNL     1      21.583   5.154  51.433  1.00  0.00    -0.348 N 
HETATM   23  C8  UNL     1      22.793   5.101  52.260  1.00  0.00     0.152 C 
HETATM   24  C9  UNL     1      23.874   5.681  51.335  1.00  0.00     0.188 C 
HETATM   25  O1  UNL     1      23.705   7.064  51.208  1.00  0.00    -0.380 OA
HETATM   26  C10 UNL     1      22.611   7.316  50.418  1.00  0.00     0.270 C 
HETATM   27  C11 UNL     1      21.515   6.344  50.657  1.00  0.00     0.243 C 
HETATM   28  O2  UNL     1      20.415   6.651  50.083  1.00  0.00    -0.271 OA
ENDBRANCH  21  22
ENDBRANCH  20  21
ENDBRANCH  18  20
ENDBRANCH   3  18
TORSDOF 4
ENDMDL
MODEL 5
REMARK VINA RESULT:      -7.9      3.693      6.788
REMARK  4 active torsions:
REMARK  status: ('A' for Active; 'I' for Inactive)
REMARK    1  A    between atoms: C3_3  and  C4_4 
REMARK    2  A    between atoms: C4_4  and  C6_6 
REMARK    3  A    between atoms: C6_6  and  C7_7 
REMARK    4  A    between atoms: C7_7  and  N1_8 
ROOT
HETATM    1  C1  UNL     1      20.729   2.965  52.484  1.00  0.00     0.069 C 
HETATM    2  C2  UNL     1      21.415   3.176  51.209  1.00  0.00     0.013 C 
HETATM    3  C3  UNL     1      22.703   2.931  51.218  1.00  0.00    -0.008 C 
HETATM    4  S1  UNL     1      23.680   3.116  49.564  1.00  0.00    -0.178 SA
HETATM    5  C12 UNL     1      25.369   3.217  49.621  1.00  0.00     0.032 A 
HETATM    6  C13 UNL     1      26.627   3.821  49.482  1.00  0.00     0.009 A 
HETATM    7  C14 UNL     1      26.775   5.287  48.993  1.00  0.00     0.052 A 
HETATM    8  C15 UNL     1      26.018   6.426  48.536  1.00  0.00     0.170 A 
HETATM    9  F1  UNL     1      27.114   7.070  48.412  1.00  0.00    -0.196 F 
HETATM   10  C16 UNL     1      24.902   5.770  48.663  1.00  0.00    -0.030 A 
HETATM   11  C17 UNL     1      23.996   5.214  48.773  1.00  0.00    -0.053 A 
HETATM   12  C18 UNL     1      22.896   4.510  48.918  1.00  0.00     0.040 A 
HETATM   13  C19 UNL     1      21.798   5.079  48.556  1.00  0.00     0.019 C 
HETATM   14  C20 UNL     1      20.772   4.067  48.823  1.00  0.00     0.148 C 
HETATM   15  N2  UNL     1      20.567   3.626  50.146  1.00  0.00    -0.389 N 
HETATM   16  H18 UNL     1      23.212   1.783  48.653  1.00  0.00     0.096 HD
HETATM   17  H25 UNL     1      19.553   3.599  50.480  1.00  0.00     0.159 HD
ENDROOT
BRANCH   3  18
HETATM   18  C4  UNL     1      23.667   2.489  52.174  1.00  0.00     0.024 C 
HETATM   19  C5  UNL     1      24.170   3.706  53.020  1.00  0.00     0.015 C 
BRANCH  18  20
HETATM   20  C6  UNL     1      23.575   1.358  53.088  1.00  0.00     0.029 C 
BRANCH  20  21
HETATM   21  C7  UNL     1      24.191   0.059  52.770  1.00  0.00     0.126 C 
BRANCH  21  22
HETATM   22  N1  UNL     1      25.645   0.234  52.982  1.00  0.00    -0.348 N 
HETATM   23  C8  UNL     1      26.614   0.741  52.004  1.00  0.00     0.152 C 
HETATM   24  C9  UNL     1      27.542   1.620  52.856  1.00  0.00     0.188 C 
HETATM   25  O1  UNL     1      28.368   0.818  53.652  1.00  0.00    -0.380 OA
HETATM   26  C10 UNL     1      27.626   0.270  54.666  1.00  0.00     0.270 C 
HETATM   27  C11 UNL     1      26.257  -0.096  54.223  1.00  0.00     0.243 C 
HETATM   28  O2  UNL     1      25.598  -0.776  55.081  1.00  0.00    -0.271 OA
ENDBRANCH  21  22
ENDBRANCH  20  21
ENDBRANCH  18  20
ENDBRANCH   3  18
TORSDOF 4
ENDMDL
MODEL 6
REMARK VINA RESULT:      -7.7      4.771      7.571
REMARK  4 active torsions:
REMARK  status: ('A' for Active; 'I' for Inactive)
REMARK    1  A    between atoms: C3_3  and  C4_4 
REMARK    2  A    between atoms: C4_4  and  C6_6 
REMARK    3  A    between atoms: C6_6  and  C7_7 
REMARK    4  A    between atoms: C7_7  and  N1_8 
ROOT
HETATM    1  C1  UNL     1      22.481  -1.218  53.237  1.00  0.00     0.069 C 
HETATM    2  C2  UNL     1      23.511  -0.181  53.251  1.00  0.00     0.013 C 
HETATM    3  C3  UNL     1      23.145   0.981  52.763  1.00  0.00    -0.008 C 
HETATM    4  S1  UNL     1      24.417   2.431  52.803  1.00  0.00    -0.178 SA
HETATM    5  C12 UNL     1      24.140   3.787  51.827  1.00  0.00     0.032 A 
HETATM    6  C13 UNL     1      24.377   4.689  50.780  1.00  0.00     0.009 A 
HETATM    7  C14 UNL     1      25.575   4.510  49.809  1.00  0.00     0.052 A 
HETATM    8  C15 UNL     1      26.717   3.672  49.538  1.00  0.00     0.170 A 
HETATM    9  F1  UNL     1      26.993   4.418  48.540  1.00  0.00    -0.196 F 
HETATM   10  C16 UNL     1      26.435   2.911  50.556  1.00  0.00    -0.030 A 
HETATM   11  C17 UNL     1      26.187   2.299  51.396  1.00  0.00    -0.053 A 
HETATM   12  C18 UNL     1      25.861   1.561  52.434  1.00  0.00     0.040 A 
HETATM   13  C19 UNL     1      26.662   0.596  52.727  1.00  0.00     0.019 C 
HETATM   14  C20 UNL     1      26.050  -0.024  53.906  1.00  0.00     0.148 C 
HETATM   15  N2  UNL     1      24.768  -0.599  53.794  1.00  0.00    -0.389 N 
HETATM   16  H18 UNL     1      24.479   2.886  54.420  1.00  0.00     0.096 HD
HETATM   17  H25 UNL     1      24.657  -1.580  54.202  1.00  0.00     0.159 HD
ENDROOT
BRANCH   3  18
HETATM   18  C4  UNL     1      21.958   1.539  52.198  1.00  0.00     0.024 C 
HETATM   19  C5  UNL     1      21.864   1.158  50.683  1.00  0.00     0.015 C 
BRANCH  18  20
HETATM   20  C6  UNL     1      20.602   1.489  52.724  1.00  0.00     0.029 C 
BRANCH  20  21
HETATM   21  C7  UNL     1      19.433   1.767  51.871  1.00  0.00     0.126 C 
BRANCH  21  22
HETATM   22  N1  UNL     1      18.599   0.545  51.911  1.00  0.00    -0.348 N 
HETATM   23  C8  UNL     1      18.789  -0.611  52.794  1.00  0.00     0.152 C 
HETATM   24  C9  UNL     1      17.353  -0.996  53.179  1.00  0.00     0.188 C 
HETATM   25  O1  UNL     1      16.709  -1.599  52.092  1.00  0.00    -0.380 OA
HETATM   26  C10 UNL     1      16.414  -0.643  51.154  1.00  0.00     0.270 C 
HETATM   27  C11 UNL     1      17.482   0.383  51.047  1.00  0.00     0.243 C 
HETATM   28  O2  UNL     1      17.337   1.182  50.060  1.00  0.00    -0.271 OA
ENDBRANCH  21  22
ENDBRANCH  20  21
ENDBRANCH  18  20
ENDBRANCH   3  18
TORSDOF 4
ENDMDL
MODEL 7
REMARK VINA RESULT:      -7.4      2.127      2.661
REMARK  4 active torsions:
REMARK  status: ('A' for Active; 'I' for Inactive)
REMARK    1  A    between atoms: C3_3  and  C4_4 
REMARK    2  A    between atoms: C4_4  and  C6_6 
REMARK    3  A    between atoms: C6_6  and  C7_7 
REMARK    4  A    between atoms: C7_7  and  N1_8 
ROOT
HETATM    1  C1  UNL     1      22.179   3.084  50.100  1.00  0.00     0.069 C 
HETATM    2  C2  UNL     1      22.810   2.488  51.277  1.00  0.00     0.013 C 
HETATM    3  C3  UNL     1      24.027   2.906  51.534  1.00  0.00    -0.008 C 
HETATM    4  S1  UNL     1      24.914   2.224  53.106  1.00  0.00    -0.178 SA
HETATM    5  C12 UNL     1      26.593   2.408  53.240  1.00  0.00     0.032 A 
HETATM    6  C13 UNL     1      27.931   1.994  53.303  1.00  0.00     0.009 A 
HETATM    7  C14 UNL     1      28.323   0.495  53.211  1.00  0.00     0.052 A 
HETATM    8  C15 UNL     1      27.769  -0.831  53.093  1.00  0.00     0.170 A 
HETATM    9  F1  UNL     1      28.956  -1.299  53.107  1.00  0.00    -0.196 F 
HETATM   10  C16 UNL     1      26.559  -0.353  53.079  1.00  0.00    -0.030 A 
HETATM   11  C17 UNL     1      25.572   0.058  53.070  1.00  0.00    -0.053 A 
HETATM   12  C18 UNL     1      24.370   0.588  53.061  1.00  0.00     0.040 A 
HETATM   13  C19 UNL     1      23.379  -0.235  53.028  1.00  0.00     0.019 C 
HETATM   14  C20 UNL     1      22.199   0.634  53.034  1.00  0.00     0.148 C 
HETATM   15  N2  UNL     1      21.998   1.530  51.965  1.00  0.00    -0.389 N 
HETATM   16  H18 UNL     1      24.145   2.997  54.386  1.00  0.00     0.096 HD
HETATM   17  H25 UNL     1      21.021   1.536  51.535  1.00  0.00     0.159 HD
ENDROOT
BRANCH   3  18
HETATM   18  C4  UNL     1      24.948   3.831  50.956  1.00  0.00     0.024 C 
HETATM   19  C5  UNL     1      25.682   3.162  49.746  1.00  0.00     0.015 C 
BRANCH  18  20
HETATM   20  C6  UNL     1      24.714   5.219  50.582  1.00  0.00     0.029 C 
BRANCH  20  21
HETATM   21  C7  UNL     1      24.127   6.184  51.528  1.00  0.00     0.126 C 
BRANCH  21  22
HETATM   22  N1  UNL     1      23.699   7.343  50.715  1.00  0.00    -0.348 N 
HETATM   23  C8  UNL     1      24.572   8.370  50.134  1.00  0.00     0.152 C 
HETATM   24  C9  UNL     1      23.942   8.623  48.756  1.00  0.00     0.188 C 
HETATM   25  O1  UNL     1      22.750   9.343  48.897  1.00  0.00    -0.380 OA
HETATM   26  C10 UNL     1      21.782   8.518  49.410  1.00  0.00     0.270 C 
HETATM   27  C11 UNL     1      22.328   7.572  50.415  1.00  0.00     0.243 C 
HETATM   28  O2  UNL     1      21.434   6.916  51.051  1.00  0.00    -0.271 OA
ENDBRANCH  21  22
ENDBRANCH  20  21
ENDBRANCH  18  20
ENDBRANCH   3  18
TORSDOF 4
ENDMDL
MODEL 8
REMARK VINA RESULT:      -7.4      2.038      2.821
REMARK  4 active torsions:
REMARK  status: ('A' for Active; 'I' for Inactive)
REMARK    1  A    between atoms: C3_3  and  C4_4 
REMARK    2  A    between atoms: C4_4  and  C6_6 
REMARK    3  A    between atoms: C6_6  and  C7_7 
REMARK    4  A    between atoms: C7_7  and  N1_8 
ROOT
HETATM    1  C1  UNL     1      19.663   1.163  51.173  1.00  0.00     0.069 C 
HETATM    2  C2  UNL     1      20.776   1.076  52.117  1.00  0.00     0.013 C 
HETATM    3  C3  UNL     1      21.922   1.540  51.679  1.00  0.00    -0.008 C 
HETATM    4  S1  UNL     1      23.433   1.528  52.880  1.00  0.00    -0.178 SA
HETATM    5  C12 UNL     1      24.988   1.720  52.238  1.00  0.00     0.032 A 
HETATM    6  C13 UNL     1      26.295   1.342  51.897  1.00  0.00     0.009 A 
HETATM    7  C14 UNL     1      26.840  -0.075  52.218  1.00  0.00     0.052 A 
HETATM    8  C15 UNL     1      26.487  -1.327  52.840  1.00  0.00     0.170 A 
HETATM    9  F1  UNL     1      27.645  -1.772  52.540  1.00  0.00    -0.196 F 
HETATM   10  C16 UNL     1      25.306  -0.873  53.145  1.00  0.00    -0.030 A 
HETATM   11  C17 UNL     1      24.341  -0.482  53.388  1.00  0.00    -0.053 A 
HETATM   12  C18 UNL     1      23.161   0.021  53.674  1.00  0.00     0.040 A 
HETATM   13  C19 UNL     1      22.367  -0.728  54.358  1.00  0.00     0.019 C 
HETATM   14  C20 UNL     1      21.163   0.091  54.522  1.00  0.00     0.148 C 
HETATM   15  N2  UNL     1      20.440   0.489  53.379  1.00  0.00    -0.389 N 
HETATM   16  H18 UNL     1      23.104   2.763  53.974  1.00  0.00     0.096 HD
HETATM   17  H25 UNL     1      19.383   0.339  53.418  1.00  0.00     0.159 HD
ENDROOT
BRANCH   3  18
HETATM   18  C4  UNL     1      22.405   2.140  50.476  1.00  0.00     0.024 C 
HETATM   19  C5  UNL     1      22.009   1.255  49.248  1.00  0.00     0.015 C 
BRANCH  18  20
HETATM   20  C6  UNL     1      22.277   3.526  50.048  1.00  0.00     0.029 C 
BRANCH  20  21
HETATM   21  C7  UNL     1      23.010   4.611  50.722  1.00  0.00     0.126 C 
BRANCH  21  22
HETATM   22  N1  UNL     1      23.719   5.349  49.653  1.00  0.00    -0.348 N 
HETATM   23  C8  UNL     1      23.103   6.169  48.604  1.00  0.00     0.152 C 
HETATM   24  C9  UNL     1      24.061   7.365  48.489  1.00  0.00     0.188 C 
HETATM   25  O1  UNL     1      25.244   6.973  47.853  1.00  0.00    -0.380 OA
HETATM   26  C10 UNL     1      25.987   6.205  48.713  1.00  0.00     0.270 C 
HETATM   27  C11 UNL     1      25.137   5.319  49.548  1.00  0.00     0.243 C 
HETATM   28  O2  UNL     1      25.794   4.458  50.226  1.00  0.00    -0.271 OA
ENDBRANCH  21  22
ENDBRANCH  20  21
ENDBRANCH  18  20
ENDBRANCH   3  18
TORSDOF 4
ENDMDL
MODEL 9
REMARK VINA RESULT:      -7.4      4.120      6.430
REMARK  4 active torsions:
REMARK  status: ('A' for Active; 'I' for Inactive)
REMARK    1  A    between atoms: C3_3  and  C4_4 
REMARK    2  A    between atoms: C4_4  and  C6_6 
REMARK    3  A    between atoms: C6_6  and  C7_7 
REMARK    4  A    between atoms: C7_7  and  N1_8 
ROOT
HETATM    1  C1  UNL     1      24.585   6.149  50.632  1.00  0.00     0.069 C 
HETATM    2  C2  UNL     1      24.741   4.695  50.624  1.00  0.00     0.013 C 
HETATM    3  C3  UNL     1      23.630   4.010  50.751  1.00  0.00    -0.008 C 
HETATM    4  S1  UNL     1      23.730   2.084  50.682  1.00  0.00    -0.178 SA
HETATM    5  C12 UNL     1      22.416   1.178  51.248  1.00  0.00     0.032 A 
HETATM    6  C13 UNL     1      21.731   0.298  52.099  1.00  0.00     0.009 A 
HETATM    7  C14 UNL     1      22.424  -0.346  53.330  1.00  0.00     0.052 A 
HETATM    8  C15 UNL     1      23.683  -0.424  54.028  1.00  0.00     0.170 A 
HETATM    9  F1  UNL     1      23.135  -1.206  54.874  1.00  0.00    -0.196 F 
HETATM   10  C16 UNL     1      24.241   0.374  53.165  1.00  0.00    -0.030 A 
HETATM   11  C17 UNL     1      24.682   1.030  52.445  1.00  0.00    -0.053 A 
HETATM   12  C18 UNL     1      25.201   1.839  51.549  1.00  0.00     0.040 A 
HETATM   13  C19 UNL     1      26.459   2.092  51.662  1.00  0.00     0.019 C 
HETATM   14  C20 UNL     1      26.740   2.993  50.541  1.00  0.00     0.148 C 
HETATM   15  N2  UNL     1      26.093   4.244  50.483  1.00  0.00    -0.389 N 
HETATM   16  H18 UNL     1      24.013   1.739  49.061  1.00  0.00     0.096 HD
HETATM   17  H25 UNL     1      26.718   5.087  50.287  1.00  0.00     0.159 HD
ENDROOT
BRANCH   3  18
HETATM   18  C4  UNL     1      22.241   4.308  50.897  1.00  0.00     0.024 C 
HETATM   19  C5  UNL     1      21.949   4.761  52.366  1.00  0.00     0.015 C 
BRANCH  18  20
HETATM   20  C6  UNL     1      21.400   5.127  50.035  1.00  0.00     0.029 C 
BRANCH  20  21
HETATM   21  C7  UNL     1      19.950   5.249  50.263  1.00  0.00     0.126 C 
BRANCH  21  22
HETATM   22  N1  UNL     1      19.382   3.908  50.001  1.00  0.00    -0.348 N 
HETATM   23  C8  UNL     1      19.361   3.207  48.713  1.00  0.00     0.152 C 
HETATM   24  C9  UNL     1      19.655   1.750  49.104  1.00  0.00     0.188 C 
HETATM   25  O1  UNL     1      18.536   1.185  49.728  1.00  0.00    -0.380 OA
HETATM   26  C10 UNL     1      18.410   1.708  50.989  1.00  0.00     0.270 C 
HETATM   27  C11 UNL     1      18.774   3.147  51.037  1.00  0.00     0.243 C 
HETATM   28  O2  UNL     1      18.492   3.717  52.146  1.00  0.00    -0.271 OA
ENDBRANCH  21  22
ENDBRANCH  20  21
ENDBRANCH  18  20
ENDBRANCH   3  18
TORSDOF 4
ENDMDL
