MODEL 1
REMARK VINA RESULT:      -7.3      0.000      0.000
REMARK  9 active torsions:
REMARK  status: ('A' for Active; 'I' for Inactive)
REMARK    1  A    between atoms: O1_1  and  C1_2 
REMARK    2  A    between atoms: C3_4  and  N1_5 
REMARK    3  A    between atoms: N1_5  and  C4_6 
REMARK    4  A    between atoms: N1_5  and  C6_9 
REMARK    5  A    between atoms: C4_6  and  C5_7 
REMARK    6  A    between atoms: C6_9  and  C7_10 
REMARK    7  A    between atoms: C10_14  and  C11_15 
REMARK    8  A    between atoms: C11_15  and  N2_16 
REMARK    9  A    between atoms: N2_16  and  C12_17 
ROOT
HETATM    1  C1  UNL     1      23.593  -1.147  54.894  1.00  0.00     0.075 A 
HETATM    2  C2  UNL     1      24.845  -0.690  54.546  1.00  0.00     0.066 A 
HETATM    3  C3  UNL     1      25.166   0.028  53.416  1.00  0.00     0.032 A 
HETATM    4  C8  UNL     1      24.043   0.242  52.647  1.00  0.00     0.030 A 
HETATM    5  C9  UNL     1      22.769  -0.178  52.923  1.00  0.00     0.014 A 
HETATM    6  C10 UNL     1      22.506  -0.892  54.067  1.00  0.00    -0.007 A 
ENDROOT
BRANCH   6   7
HETATM    7  C11 UNL     1      21.162  -1.355  54.436  1.00  0.00     0.161 C 
BRANCH   7   8
HETATM    8  N2  UNL     1      20.069  -0.584  53.955  1.00  0.00    -0.384 N 
HETATM    9  H15 UNL     1      20.124   0.431  54.287  1.00  0.00     0.160 HD
BRANCH   8  10
HETATM   10  C12 UNL     1      18.907  -0.721  53.171  1.00  0.00     0.045 A 
HETATM   11  C13 UNL     1      18.085  -1.773  53.587  1.00  0.00     0.030 A 
HETATM   12  C14 UNL     1      16.905  -2.031  52.891  1.00  0.00     0.002 A 
HETATM   13  C15 UNL     1      16.533  -1.278  51.811  1.00  0.00     0.002 A 
HETATM   14  C16 UNL     1      17.359  -0.258  51.432  1.00  0.00     0.021 A 
HETATM   15  C17 UNL     1      18.525   0.028  52.087  1.00  0.00     0.037 A 
HETATM   16 BR1  UNL     1      19.694   1.434  51.592  1.00  0.00    -0.049 Br
ENDBRANCH   8  10
ENDBRANCH   7   8
ENDBRANCH   6   7
BRANCH   1  17
HETATM   17  O1  UNL     1      23.322  -1.873  56.056  1.00  0.00    -0.360 OA
HETATM   18  H1  UNL     1      23.203  -1.300  56.894  1.00  0.00     0.217 HD
ENDBRANCH   1  17
BRANCH   3  19
HETATM   19  N1  UNL     1      26.508   0.469  53.080  1.00  0.00    -0.379 N 
BRANCH  19  20
HETATM   20  C4  UNL     1      27.391   0.286  54.197  1.00  0.00     0.138 C 
BRANCH  20  21
HETATM   21  C5  UNL     1      28.812   0.702  54.063  1.00  0.00     0.134 C 
HETATM   22 CL1  UNL     1      29.850  -0.665  53.565  1.00  0.00    -0.129 Cl
ENDBRANCH  20  21
ENDBRANCH  19  20
BRANCH  19  23
HETATM   23  C6  UNL     1      26.637   1.028  51.772  1.00  0.00     0.138 C 
BRANCH  23  24
HETATM   24  C7  UNL     1      26.692   2.483  51.564  1.00  0.00     0.134 C 
HETATM   25 CL2  UNL     1      26.584   3.129  49.955  1.00  0.00    -0.129 Cl
ENDBRANCH  23  24
ENDBRANCH  19  23
ENDBRANCH   3  19
TORSDOF 9
ENDMDL
MODEL 2
REMARK VINA RESULT:      -7.2      4.306      7.726
REMARK  9 active torsions:
REMARK  status: ('A' for Active; 'I' for Inactive)
REMARK    1  A    between atoms: O1_1  and  C1_2 
REMARK    2  A    between atoms: C3_4  and  N1_5 
REMARK    3  A    between atoms: N1_5  and  C4_6 
REMARK    4  A    between atoms: N1_5  and  C6_9 
REMARK    5  A    between atoms: C4_6  and  C5_7 
REMARK    6  A    between atoms: C6_9  and  C7_10 
REMARK    7  A    between atoms: C10_14  and  C11_15 
REMARK    8  A    between atoms: C11_15  and  N2_16 
REMARK    9  A    between atoms: N2_16  and  C12_17 
ROOT
HETATM    1  C1  UNL     1      23.937   3.420  52.763  1.00  0.00     0.075 A 
HETATM    2  C2  UNL     1      24.043   2.165  53.322  1.00  0.00     0.066 A 
HETATM    3  C3  UNL     1      23.727   0.971  52.713  1.00  0.00     0.032 A 
HETATM    4  C8  UNL     1      23.275   1.190  51.430  1.00  0.00     0.030 A 
HETATM    5  C9  UNL     1      23.141   2.401  50.805  1.00  0.00     0.014 A 
HETATM    6  C10 UNL     1      23.472   3.562  51.462  1.00  0.00    -0.007 A 
ENDROOT
BRANCH   6   7
HETATM    7  C11 UNL     1      23.374   4.891  50.845  1.00  0.00     0.161 C 
BRANCH   7   8
HETATM    8  N2  UNL     1      24.577   5.644  50.758  1.00  0.00    -0.384 N 
HETATM    9  H15 UNL     1      24.692   6.305  51.589  1.00  0.00     0.160 HD
BRANCH   8  10
HETATM   10  C12 UNL     1      25.691   5.812  49.913  1.00  0.00     0.045 A 
HETATM   11  C13 UNL     1      26.325   4.606  49.594  1.00  0.00     0.030 A 
HETATM   12  C14 UNL     1      27.452   4.625  48.775  1.00  0.00     0.002 A 
HETATM   13  C15 UNL     1      27.952   5.797  48.275  1.00  0.00     0.002 A 
HETATM   14  C16 UNL     1      27.310   6.955  48.606  1.00  0.00     0.021 A 
HETATM   15  C17 UNL     1      26.201   6.980  49.407  1.00  0.00     0.037 A 
HETATM   16 BR1  UNL     1      25.282   8.566  49.886  1.00  0.00    -0.049 Br
ENDBRANCH   8  10
ENDBRANCH   7   8
ENDBRANCH   6   7
BRANCH   1  17
HETATM   17  O1  UNL     1      24.273   4.601  53.427  1.00  0.00    -0.360 OA
HETATM   18  H1  UNL     1      23.620   5.372  53.275  1.00  0.00     0.217 HD
ENDBRANCH   1  17
BRANCH   3  19
HETATM   19  N1  UNL     1      23.834  -0.328  53.353  1.00  0.00    -0.379 N 
BRANCH  19  20
HETATM   20  C4  UNL     1      25.184  -0.567  53.780  1.00  0.00     0.138 C 
BRANCH  20  21
HETATM   21  C5  UNL     1      26.209  -0.913  52.759  1.00  0.00     0.134 C 
HETATM   22 CL1  UNL     1      27.155   0.523  52.272  1.00  0.00    -0.129 Cl
ENDBRANCH  20  21
ENDBRANCH  19  20
BRANCH  19  23
HETATM   23  C6  UNL     1      22.623  -1.085  53.362  1.00  0.00     0.138 C 
BRANCH  23  24
HETATM   24  C7  UNL     1      21.657  -0.969  54.465  1.00  0.00     0.134 C 
HETATM   25 CL2  UNL     1      20.577   0.390  54.526  1.00  0.00    -0.129 Cl
ENDBRANCH  23  24
ENDBRANCH  19  23
ENDBRANCH   3  19
TORSDOF 9
ENDMDL
MODEL 3
REMARK VINA RESULT:      -6.9      4.343      7.700
REMARK  9 active torsions:
REMARK  status: ('A' for Active; 'I' for Inactive)
REMARK    1  A    between atoms: O1_1  and  C1_2 
REMARK    2  A    between atoms: C3_4  and  N1_5 
REMARK    3  A    between atoms: N1_5  and  C4_6 
REMARK    4  A    between atoms: N1_5  and  C6_9 
REMARK    5  A    between atoms: C4_6  and  C5_7 
REMARK    6  A    between atoms: C6_9  and  C7_10 
REMARK    7  A    between atoms: C10_14  and  C11_15 
REMARK    8  A    between atoms: C11_15  and  N2_16 
REMARK    9  A    between atoms: N2_16  and  C12_17 
ROOT
HETATM    1  C1  UNL     1      23.759   3.507  52.590  1.00  0.00     0.075 A 
HETATM    2  C2  UNL     1      23.904   2.256  53.148  1.00  0.00     0.066 A 
HETATM    3  C3  UNL     1      23.506   1.063  52.588  1.00  0.00     0.032 A 
HETATM    4  C8  UNL     1      22.925   1.278  51.358  1.00  0.00     0.030 A 
HETATM    5  C9  UNL     1      22.745   2.486  50.738  1.00  0.00     0.014 A 
HETATM    6  C10 UNL     1      23.162   3.647  51.343  1.00  0.00    -0.007 A 
ENDROOT
BRANCH   6   7
HETATM    7  C11 UNL     1      23.021   4.972  50.726  1.00  0.00     0.161 C 
BRANCH   7   8
HETATM    8  N2  UNL     1      23.789   5.214  49.555  1.00  0.00    -0.384 N 
HETATM    9  H15 UNL     1      23.172   5.281  48.684  1.00  0.00     0.160 HD
BRANCH   8  10
HETATM   10  C12 UNL     1      25.126   5.396  49.153  1.00  0.00     0.045 A 
HETATM   11  C13 UNL     1      25.927   4.273  49.387  1.00  0.00     0.030 A 
HETATM   12  C14 UNL     1      27.278   4.317  49.048  1.00  0.00     0.002 A 
HETATM   13  C15 UNL     1      27.839   5.435  48.491  1.00  0.00     0.002 A 
HETATM   14  C16 UNL     1      27.029   6.513  48.276  1.00  0.00     0.021 A 
HETATM   15  C17 UNL     1      25.699   6.510  48.593  1.00  0.00     0.037 A 
HETATM   16 BR1  UNL     1      24.544   7.984  48.308  1.00  0.00    -0.049 Br
ENDBRANCH   8  10
ENDBRANCH   7   8
ENDBRANCH   6   7
BRANCH   1  17
HETATM   17  O1  UNL     1      24.183   4.689  53.202  1.00  0.00    -0.360 OA
HETATM   18  H1  UNL     1      23.446   5.199  53.692  1.00  0.00     0.217 HD
ENDBRANCH   1  17
BRANCH   3  19
HETATM   19  N1  UNL     1      23.659  -0.232  53.227  1.00  0.00    -0.379 N 
BRANCH  19  20
HETATM   20  C4  UNL     1      22.465  -1.014  53.068  1.00  0.00     0.138 C 
BRANCH  20  21
HETATM   21  C5  UNL     1      21.604  -1.257  54.256  1.00  0.00     0.134 C 
HETATM   22 CL1  UNL     1      20.898   0.264  54.875  1.00  0.00    -0.129 Cl
ENDBRANCH  20  21
ENDBRANCH  19  20
BRANCH  19  23
HETATM   23  C6  UNL     1      24.902  -0.416  53.905  1.00  0.00     0.138 C 
BRANCH  23  24
HETATM   24  C7  UNL     1      26.073  -0.981  53.216  1.00  0.00     0.134 C 
HETATM   25 CL2  UNL     1      26.729  -0.172  51.826  1.00  0.00    -0.129 Cl
ENDBRANCH  23  24
ENDBRANCH  19  23
ENDBRANCH   3  19
TORSDOF 9
ENDMDL
MODEL 4
REMARK VINA RESULT:      -6.9      0.821      2.434
REMARK  9 active torsions:
REMARK  status: ('A' for Active; 'I' for Inactive)
REMARK    1  A    between atoms: O1_1  and  C1_2 
REMARK    2  A    between atoms: C3_4  and  N1_5 
REMARK    3  A    between atoms: N1_5  and  C4_6 
REMARK    4  A    between atoms: N1_5  and  C6_9 
REMARK    5  A    between atoms: C4_6  and  C5_7 
REMARK    6  A    between atoms: C6_9  and  C7_10 
REMARK    7  A    between atoms: C10_14  and  C11_15 
REMARK    8  A    between atoms: C11_15  and  N2_16 
REMARK    9  A    between atoms: N2_16  and  C12_17 
ROOT
HETATM    1  C1  UNL     1      23.201  -1.068  54.584  1.00  0.00     0.075 A 
HETATM    2  C2  UNL     1      24.379  -0.508  54.140  1.00  0.00     0.066 A 
HETATM    3  C3  UNL     1      24.545   0.247  53.001  1.00  0.00     0.032 A 
HETATM    4  C8  UNL     1      23.347   0.380  52.333  1.00  0.00     0.030 A 
HETATM    5  C9  UNL     1      22.139  -0.144  52.708  1.00  0.00     0.014 A 
HETATM    6  C10 UNL     1      22.031  -0.890  53.857  1.00  0.00    -0.007 A 
ENDROOT
BRANCH   6   7
HETATM    7  C11 UNL     1      20.764  -1.462  54.329  1.00  0.00     0.161 C 
BRANCH   7   8
HETATM    8  N2  UNL     1      19.572  -0.880  53.819  1.00  0.00    -0.384 N 
HETATM    9  H15 UNL     1      19.579   0.185  53.914  1.00  0.00     0.160 HD
BRANCH   8  10
HETATM   10  C12 UNL     1      18.354  -1.252  53.217  1.00  0.00     0.045 A 
HETATM   11  C13 UNL     1      17.841  -2.455  53.716  1.00  0.00     0.030 A 
HETATM   12  C14 UNL     1      16.645  -2.950  53.201  1.00  0.00     0.002 A 
HETATM   13  C15 UNL     1      15.960  -2.286  52.218  1.00  0.00     0.002 A 
HETATM   14  C16 UNL     1      16.489  -1.116  51.754  1.00  0.00     0.021 A 
HETATM   15  C17 UNL     1      17.660  -0.595  52.233  1.00  0.00     0.037 A 
HETATM   16 BR1  UNL     1      18.424   1.024  51.616  1.00  0.00    -0.049 Br
ENDBRANCH   8  10
ENDBRANCH   7   8
ENDBRANCH   6   7
BRANCH   1  17
HETATM   17  O1  UNL     1      23.088  -1.826  55.751  1.00  0.00    -0.360 OA
HETATM   18  H1  UNL     1      23.830  -1.663  56.435  1.00  0.00     0.217 HD
ENDBRANCH   1  17
BRANCH   3  19
HETATM   19  N1  UNL     1      25.814   0.797  52.561  1.00  0.00    -0.379 N 
BRANCH  19  20
HETATM   20  C4  UNL     1      25.638   2.135  52.069  1.00  0.00     0.138 C 
BRANCH  20  21
HETATM   21  C5  UNL     1      26.661   2.702  51.151  1.00  0.00     0.134 C 
HETATM   22 CL1  UNL     1      25.943   3.176  49.584  1.00  0.00    -0.129 Cl
ENDBRANCH  20  21
ENDBRANCH  19  20
BRANCH  19  23
HETATM   23  C6  UNL     1      26.916  -0.107  52.653  1.00  0.00     0.138 C 
BRANCH  23  24
HETATM   24  C7  UNL     1      28.055   0.164  53.543  1.00  0.00     0.134 C 
HETATM   25 CL2  UNL     1      29.453  -0.866  53.491  1.00  0.00    -0.129 Cl
ENDBRANCH  23  24
ENDBRANCH  19  23
ENDBRANCH   3  19
TORSDOF 9
ENDMDL
MODEL 5
REMARK VINA RESULT:      -6.7      4.425      7.990
REMARK  9 active torsions:
REMARK  status: ('A' for Active; 'I' for Inactive)
REMARK    1  A    between atoms: O1_1  and  C1_2 
REMARK    2  A    between atoms: C3_4  and  N1_5 
REMARK    3  A    between atoms: N1_5  and  C4_6 
REMARK    4  A    between atoms: N1_5  and  C6_9 
REMARK    5  A    between atoms: C4_6  and  C5_7 
REMARK    6  A    between atoms: C6_9  and  C7_10 
REMARK    7  A    between atoms: C10_14  and  C11_15 
REMARK    8  A    between atoms: C11_15  and  N2_16 
REMARK    9  A    between atoms: N2_16  and  C12_17 
ROOT
HETATM    1  C1  UNL     1      23.081   2.436  50.718  1.00  0.00     0.075 A 
HETATM    2  C2  UNL     1      23.261   1.265  51.420  1.00  0.00     0.066 A 
HETATM    3  C3  UNL     1      23.824   1.143  52.671  1.00  0.00     0.032 A 
HETATM    4  C8  UNL     1      24.200   2.378  53.152  1.00  0.00     0.030 A 
HETATM    5  C9  UNL     1      24.055   3.583  52.517  1.00  0.00     0.014 A 
HETATM    6  C10 UNL     1      23.485   3.646  51.268  1.00  0.00    -0.007 A 
ENDROOT
BRANCH   6   7
HETATM    7  C11 UNL     1      23.279   4.904  50.540  1.00  0.00     0.161 C 
BRANCH   7   8
HETATM    8  N2  UNL     1      24.046   5.089  49.358  1.00  0.00    -0.384 N 
HETATM    9  H15 UNL     1      23.537   4.721  48.493  1.00  0.00     0.160 HD
BRANCH   8  10
HETATM   10  C12 UNL     1      25.288   5.606  48.941  1.00  0.00     0.045 A 
HETATM   11  C13 UNL     1      25.195   6.901  48.418  1.00  0.00     0.030 A 
HETATM   12  C14 UNL     1      26.348   7.532  47.955  1.00  0.00     0.002 A 
HETATM   13  C15 UNL     1      27.569   6.914  48.001  1.00  0.00     0.002 A 
HETATM   14  C16 UNL     1      27.623   5.651  48.517  1.00  0.00     0.021 A 
HETATM   15  C17 UNL     1      26.516   4.997  48.982  1.00  0.00     0.037 A 
HETATM   16 BR1  UNL     1      26.552   3.247  49.706  1.00  0.00    -0.049 Br
ENDBRANCH   8  10
ENDBRANCH   7   8
ENDBRANCH   6   7
BRANCH   1  17
HETATM   17  O1  UNL     1      22.501   2.503  49.449  1.00  0.00    -0.360 OA
HETATM   18  H1  UNL     1      23.011   1.996  48.723  1.00  0.00     0.217 HD
ENDBRANCH   1  17
BRANCH   3  19
HETATM   19  N1  UNL     1      24.016  -0.119  53.363  1.00  0.00    -0.379 N 
BRANCH  19  20
HETATM   20  C4  UNL     1      22.777  -0.841  53.442  1.00  0.00     0.138 C 
BRANCH  20  21
HETATM   21  C5  UNL     1      22.031  -0.847  54.728  1.00  0.00     0.134 C 
HETATM   22 CL1  UNL     1      20.751   0.401  54.747  1.00  0.00    -0.129 Cl
ENDBRANCH  20  21
ENDBRANCH  19  20
BRANCH  19  23
HETATM   23  C6  UNL     1      25.340  -0.331  53.853  1.00  0.00     0.138 C 
BRANCH  23  24
HETATM   24  C7  UNL     1      26.306  -1.157  53.113  1.00  0.00     0.134 C 
HETATM   25 CL2  UNL     1      28.006  -0.829  53.253  1.00  0.00    -0.129 Cl
ENDBRANCH  23  24
ENDBRANCH  19  23
ENDBRANCH   3  19
TORSDOF 9
ENDMDL
MODEL 6
REMARK VINA RESULT:      -6.6      5.607      8.723
REMARK  9 active torsions:
REMARK  status: ('A' for Active; 'I' for Inactive)
REMARK    1  A    between atoms: O1_1  and  C1_2 
REMARK    2  A    between atoms: C3_4  and  N1_5 
REMARK    3  A    between atoms: N1_5  and  C4_6 
REMARK    4  A    between atoms: N1_5  and  C6_9 
REMARK    5  A    between atoms: C4_6  and  C5_7 
REMARK    6  A    between atoms: C6_9  and  C7_10 
REMARK    7  A    between atoms: C10_14  and  C11_15 
REMARK    8  A    between atoms: C11_15  and  N2_16 
REMARK    9  A    between atoms: N2_16  and  C12_17 
ROOT
HETATM    1  C1  UNL     1      25.940   5.776  49.543  1.00  0.00     0.075 A 
HETATM    2  C2  UNL     1      26.420   7.023  49.209  1.00  0.00     0.066 A 
HETATM    3  C3  UNL     1      27.599   7.293  48.551  1.00  0.00     0.032 A 
HETATM    4  C8  UNL     1      28.265   6.124  48.256  1.00  0.00     0.030 A 
HETATM    5  C9  UNL     1      27.855   4.851  48.553  1.00  0.00     0.014 A 
HETATM    6  C10 UNL     1      26.668   4.640  49.212  1.00  0.00    -0.007 A 
ENDROOT
BRANCH   6   7
HETATM    7  C11 UNL     1      26.158   3.303  49.541  1.00  0.00     0.161 C 
BRANCH   7   8
HETATM    8  N2  UNL     1      26.212   2.920  50.909  1.00  0.00    -0.384 N 
HETATM    9  H15 UNL     1      26.674   3.670  51.513  1.00  0.00     0.160 HD
BRANCH   8  10
HETATM   10  C12 UNL     1      25.851   1.849  51.750  1.00  0.00     0.045 A 
HETATM   11  C13 UNL     1      26.773   0.797  51.725  1.00  0.00     0.030 A 
HETATM   12  C14 UNL     1      26.536  -0.335  52.503  1.00  0.00     0.002 A 
HETATM   13  C15 UNL     1      25.421  -0.440  53.291  1.00  0.00     0.002 A 
HETATM   14  C16 UNL     1      24.542   0.605  53.291  1.00  0.00     0.021 A 
HETATM   15  C17 UNL     1      24.738   1.733  52.543  1.00  0.00     0.037 A 
HETATM   16 BR1  UNL     1      23.543   3.203  52.520  1.00  0.00    -0.049 Br
ENDBRANCH   8  10
ENDBRANCH   7   8
ENDBRANCH   6   7
BRANCH   1  17
HETATM   17  O1  UNL     1      24.733   5.557  50.212  1.00  0.00    -0.360 OA
HETATM   18  H1  UNL     1      23.901   5.660  49.627  1.00  0.00     0.217 HD
ENDBRANCH   1  17
BRANCH   3  19
HETATM   19  N1  UNL     1      28.076   8.629  48.242  1.00  0.00    -0.379 N 
BRANCH  19  20
HETATM   20  C4  UNL     1      28.593   9.263  49.422  1.00  0.00     0.138 C 
BRANCH  20  21
HETATM   21  C5  UNL     1      30.031   9.642  49.461  1.00  0.00     0.134 C 
HETATM   22 CL1  UNL     1      31.088   8.216  49.252  1.00  0.00    -0.129 Cl
ENDBRANCH  20  21
ENDBRANCH  19  20
BRANCH  19  23
HETATM   23  C6  UNL     1      27.875   9.030  46.886  1.00  0.00     0.138 C 
BRANCH  23  24
HETATM   24  C7  UNL     1      29.011   9.224  45.970  1.00  0.00     0.134 C 
HETATM   25 CL2  UNL     1      30.175   7.952  45.761  1.00  0.00    -0.129 Cl
ENDBRANCH  23  24
ENDBRANCH  19  23
ENDBRANCH   3  19
TORSDOF 9
ENDMDL
MODEL 7
REMARK VINA RESULT:      -6.6      4.939      7.746
REMARK  9 active torsions:
REMARK  status: ('A' for Active; 'I' for Inactive)
REMARK    1  A    between atoms: O1_1  and  C1_2 
REMARK    2  A    between atoms: C3_4  and  N1_5 
REMARK    3  A    between atoms: N1_5  and  C4_6 
REMARK    4  A    between atoms: N1_5  and  C6_9 
REMARK    5  A    between atoms: C4_6  and  C5_7 
REMARK    6  A    between atoms: C6_9  and  C7_10 
REMARK    7  A    between atoms: C10_14  and  C11_15 
REMARK    8  A    between atoms: C11_15  and  N2_16 
REMARK    9  A    between atoms: N2_16  and  C12_17 
ROOT
HETATM    1  C1  UNL     1      24.304   3.150  52.500  1.00  0.00     0.075 A 
HETATM    2  C2  UNL     1      23.874   4.211  51.734  1.00  0.00     0.066 A 
HETATM    3  C3  UNL     1      23.262   4.133  50.503  1.00  0.00     0.032 A 
HETATM    4  C8  UNL     1      23.127   2.818  50.115  1.00  0.00     0.030 A 
HETATM    5  C9  UNL     1      23.527   1.713  50.816  1.00  0.00     0.014 A 
HETATM    6  C10 UNL     1      24.133   1.849  52.042  1.00  0.00    -0.007 A 
ENDROOT
BRANCH   6   7
HETATM    7  C11 UNL     1      24.566   0.708  52.857  1.00  0.00     0.161 C 
BRANCH   7   8
HETATM    8  N2  UNL     1      25.923   0.706  53.282  1.00  0.00    -0.384 N 
HETATM    9  H15 UNL     1      26.175   1.601  53.808  1.00  0.00     0.160 HD
BRANCH   8  10
HETATM   10  C12 UNL     1      27.073  -0.105  53.233  1.00  0.00     0.045 A 
HETATM   11  C13 UNL     1      26.787  -1.448  52.965  1.00  0.00     0.030 A 
HETATM   12  C14 UNL     1      27.833  -2.367  52.899  1.00  0.00     0.002 A 
HETATM   13  C15 UNL     1      29.133  -1.985  53.092  1.00  0.00     0.002 A 
HETATM   14  C16 UNL     1      29.377  -0.667  53.352  1.00  0.00     0.021 A 
HETATM   15  C17 UNL     1      28.380   0.267  53.424  1.00  0.00     0.037 A 
HETATM   16 BR1  UNL     1      28.679   2.103  53.779  1.00  0.00    -0.049 Br
ENDBRANCH   8  10
ENDBRANCH   7   8
ENDBRANCH   6   7
BRANCH   1  17
HETATM   17  O1  UNL     1      24.919   3.285  53.747  1.00  0.00    -0.360 OA
HETATM   18  H1  UNL     1      25.796   3.809  53.731  1.00  0.00     0.217 HD
ENDBRANCH   1  17
BRANCH   3  19
HETATM   19  N1  UNL     1      22.848   5.285  49.721  1.00  0.00    -0.379 N 
BRANCH  19  20
HETATM   20  C4  UNL     1      23.693   5.441  48.571  1.00  0.00     0.138 C 
BRANCH  20  21
HETATM   21  C5  UNL     1      24.977   6.177  48.719  1.00  0.00     0.134 C 
HETATM   22 CL1  UNL     1      26.351   5.056  48.941  1.00  0.00    -0.129 Cl
ENDBRANCH  20  21
ENDBRANCH  19  20
BRANCH  19  23
HETATM   23  C6  UNL     1      21.762   6.022  50.283  1.00  0.00     0.138 C 
BRANCH  23  24
HETATM   24  C7  UNL     1      20.370   5.570  50.131  1.00  0.00     0.134 C 
HETATM   25 CL2  UNL     1      19.787   4.241  51.087  1.00  0.00    -0.129 Cl
ENDBRANCH  23  24
ENDBRANCH  19  23
ENDBRANCH   3  19
TORSDOF 9
ENDMDL
MODEL 8
REMARK VINA RESULT:      -6.5      4.133      8.416
REMARK  9 active torsions:
REMARK  status: ('A' for Active; 'I' for Inactive)
REMARK    1  A    between atoms: O1_1  and  C1_2 
REMARK    2  A    between atoms: C3_4  and  N1_5 
REMARK    3  A    between atoms: N1_5  and  C4_6 
REMARK    4  A    between atoms: N1_5  and  C6_9 
REMARK    5  A    between atoms: C4_6  and  C5_7 
REMARK    6  A    between atoms: C6_9  and  C7_10 
REMARK    7  A    between atoms: C10_14  and  C11_15 
REMARK    8  A    between atoms: C11_15  and  N2_16 
REMARK    9  A    between atoms: N2_16  and  C12_17 
ROOT
HETATM    1  C1  UNL     1      23.439   1.525  51.558  1.00  0.00     0.075 A 
HETATM    2  C2  UNL     1      22.185   1.414  50.999  1.00  0.00     0.066 A 
HETATM    3  C3  UNL     1      21.111   0.739  51.535  1.00  0.00     0.032 A 
HETATM    4  C8  UNL     1      21.453   0.167  52.740  1.00  0.00     0.030 A 
HETATM    5  C9  UNL     1      22.673   0.232  53.360  1.00  0.00     0.014 A 
HETATM    6  C10 UNL     1      23.711   0.921  52.780  1.00  0.00    -0.007 A 
ENDROOT
BRANCH   6   7
HETATM    7  C11 UNL     1      25.036   1.049  53.398  1.00  0.00     0.161 C 
BRANCH   7   8
HETATM    8  N2  UNL     1      26.127   0.473  52.692  1.00  0.00    -0.384 N 
HETATM    9  H15 UNL     1      26.052   0.642  51.639  1.00  0.00     0.160 HD
BRANCH   8  10
HETATM   10  C12 UNL     1      27.302  -0.267  52.928  1.00  0.00     0.045 A 
HETATM   11  C13 UNL     1      27.141  -1.638  52.702  1.00  0.00     0.030 A 
HETATM   12  C14 UNL     1      28.222  -2.493  52.908  1.00  0.00     0.002 A 
HETATM   13  C15 UNL     1      29.436  -2.022  53.328  1.00  0.00     0.002 A 
HETATM   14  C16 UNL     1      29.559  -0.679  53.540  1.00  0.00     0.021 A 
HETATM   15  C17 UNL     1      28.524   0.195  53.349  1.00  0.00     0.037 A 
HETATM   16 BR1  UNL     1      28.655   2.063  53.630  1.00  0.00    -0.049 Br
ENDBRANCH   8  10
ENDBRANCH   7   8
ENDBRANCH   6   7
BRANCH   1  17
HETATM   17  O1  UNL     1      24.496   2.225  50.972  1.00  0.00    -0.360 OA
HETATM   18  H1  UNL     1      25.157   1.639  50.457  1.00  0.00     0.217 HD
ENDBRANCH   1  17
BRANCH   3  19
HETATM   19  N1  UNL     1      19.811   0.629  50.895  1.00  0.00    -0.379 N 
BRANCH  19  20
HETATM   20  C4  UNL     1      19.774   1.420  49.697  1.00  0.00     0.138 C 
BRANCH  20  21
HETATM   21  C5  UNL     1      18.895   2.619  49.656  1.00  0.00     0.134 C 
HETATM   22 CL1  UNL     1      19.004   3.561  51.171  1.00  0.00    -0.129 Cl
ENDBRANCH  20  21
ENDBRANCH  19  20
BRANCH  19  23
HETATM   23  C6  UNL     1      18.865  -0.167  51.608  1.00  0.00     0.138 C 
BRANCH  23  24
HETATM   24  C7  UNL     1      17.418  -0.006  51.400  1.00  0.00     0.134 C 
HETATM   25 CL2  UNL     1      16.709  -0.466  49.883  1.00  0.00    -0.129 Cl
ENDBRANCH  23  24
ENDBRANCH  19  23
ENDBRANCH   3  19
TORSDOF 9
ENDMDL
MODEL 9
REMARK VINA RESULT:      -6.5      4.798      8.058
REMARK  9 active torsions:
REMARK  status: ('A' for Active; 'I' for Inactive)
REMARK    1  A    between atoms: O1_1  and  C1_2 
REMARK    2  A    between atoms: C3_4  and  N1_5 
REMARK    3  A    between atoms: N1_5  and  C4_6 
REMARK    4  A    between atoms: N1_5  and  C6_9 
REMARK    5  A    between atoms: C4_6  and  C5_7 
REMARK    6  A    between atoms: C6_9  and  C7_10 
REMARK    7  A    between atoms: C10_14  and  C11_15 
REMARK    8  A    between atoms: C11_15  and  N2_16 
REMARK    9  A    between atoms: N2_16  and  C12_17 
ROOT
HETATM    1  C1  UNL     1      24.493   2.920  51.826  1.00  0.00     0.075 A 
HETATM    2  C2  UNL     1      23.542   3.603  51.101  1.00  0.00     0.066 A 
HETATM    3  C3  UNL     1      22.188   3.355  51.095  1.00  0.00     0.032 A 
HETATM    4  C8  UNL     1      21.887   2.303  51.932  1.00  0.00     0.030 A 
HETATM    5  C9  UNL     1      22.772   1.577  52.683  1.00  0.00     0.014 A 
HETATM    6  C10 UNL     1      24.114   1.869  52.651  1.00  0.00    -0.007 A 
ENDROOT
BRANCH   6   7
HETATM    7  C11 UNL     1      25.114   1.146  53.447  1.00  0.00     0.161 C 
BRANCH   7   8
HETATM    8  N2  UNL     1      26.179   0.536  52.731  1.00  0.00    -0.384 N 
HETATM    9  H15 UNL     1      26.103   0.714  51.680  1.00  0.00     0.160 HD
BRANCH   8  10
HETATM   10  C12 UNL     1      27.327  -0.248  52.955  1.00  0.00     0.045 A 
HETATM   11  C13 UNL     1      27.123  -1.608  52.696  1.00  0.00     0.030 A 
HETATM   12  C14 UNL     1      28.173  -2.503  52.888  1.00  0.00     0.002 A 
HETATM   13  C15 UNL     1      29.401  -2.082  53.323  1.00  0.00     0.002 A 
HETATM   14  C16 UNL     1      29.567  -0.749  53.566  1.00  0.00     0.021 A 
HETATM   15  C17 UNL     1      28.562   0.163  53.390  1.00  0.00     0.037 A 
HETATM   16 BR1  UNL     1      28.754   2.019  53.715  1.00  0.00    -0.049 Br
ENDBRANCH   8  10
ENDBRANCH   7   8
ENDBRANCH   6   7
BRANCH   1  17
HETATM   17  O1  UNL     1      25.858   3.214  51.796  1.00  0.00    -0.360 OA
HETATM   18  H1  UNL     1      26.075   4.213  51.778  1.00  0.00     0.217 HD
ENDBRANCH   1  17
BRANCH   3  19
HETATM   19  N1  UNL     1      21.225   4.089  50.292  1.00  0.00    -0.379 N 
BRANCH  19  20
HETATM   20  C4  UNL     1      21.378   5.502  50.493  1.00  0.00     0.138 C 
BRANCH  20  21
HETATM   21  C5  UNL     1      21.630   6.371  49.313  1.00  0.00     0.134 C 
HETATM   22 CL1  UNL     1      22.730   5.583  48.144  1.00  0.00    -0.129 Cl
ENDBRANCH  20  21
ENDBRANCH  19  20
BRANCH  19  23
HETATM   23  C6  UNL     1      20.324   3.267  49.550  1.00  0.00     0.138 C 
BRANCH  23  24
HETATM   24  C7  UNL     1      20.771   2.518  48.366  1.00  0.00     0.134 C 
HETATM   25 CL2  UNL     1      21.522   0.964  48.562  1.00  0.00    -0.129 Cl
ENDBRANCH  23  24
ENDBRANCH  19  23
ENDBRANCH   3  19
TORSDOF 9
ENDMDL
