MODEL 1
REMARK VINA RESULT:      -6.8      0.000      0.000
REMARK  1 active torsions:
REMARK  status: ('A' for Active; 'I' for Inactive)
REMARK    1  A    between atoms: C8_12  and  C9_13 
ROOT
HETATM    1  N1  UNL     1      22.283   1.602  49.548  1.00  0.00    -0.196 NA
HETATM    2  C1  UNL     1      22.275   2.340  50.436  1.00  0.00     0.072 C 
HETATM    3  C2  UNL     1      22.257   3.287  51.570  1.00  0.00     0.167 C 
HETATM    4  C3  UNL     1      20.919   3.812  51.870  1.00  0.00     0.105 C 
HETATM    5  N2  UNL     1      19.869   3.155  52.175  1.00  0.00    -0.303 NA
HETATM    6  C4  UNL     1      19.510   1.829  52.352  1.00  0.00     0.157 C 
HETATM    7  C5  UNL     1      20.440   0.761  52.660  1.00  0.00     0.091 C 
HETATM    8  S1  UNL     1      22.168   1.071  52.999  1.00  0.00    -0.167 SA
HETATM    9  C6  UNL     1      23.022  -0.317  53.154  1.00  0.00     0.055 C 
HETATM   10  C7  UNL     1      24.436  -0.565  53.432  1.00  0.00     0.117 C 
HETATM   11  N3  UNL     1      25.261   0.388  53.606  1.00  0.00    -0.291 NA
HETATM   12  C8  UNL     1      26.638   0.159  53.876  1.00  0.00     0.149 C 
HETATM   13  C10 UNL     1      27.469   1.402  53.869  1.00  0.00     0.052 C 
HETATM   14  C11 UNL     1      27.571   2.115  52.566  1.00  0.00     0.123 C 
HETATM   15  N5  UNL     1      26.336   2.511  51.964  1.00  0.00    -0.385 N 
HETATM   16  C12 UNL     1      25.096   3.175  51.713  1.00  0.00     0.197 C 
HETATM   17  N6  UNL     1      24.379   2.545  52.514  1.00  0.00    -0.268 NA
HETATM   18  C13 UNL     1      22.988   2.718  52.760  1.00  0.00     0.187 C 
HETATM   19  H16 UNL     1      26.247   1.914  51.072  1.00  0.00     0.160 HD
ENDROOT
BRANCH  12  20
HETATM   20  C9  UNL     1      27.242  -0.839  52.935  1.00  0.00     0.107 C 
HETATM   21  N4  UNL     1      28.135  -1.687  53.308  1.00  0.00    -0.314 NA
HETATM   22  H11 UNL     1      28.491  -1.734  54.272  1.00  0.00     0.185 HD
ENDBRANCH  12  20
TORSDOF 1
ENDMDL
MODEL 2
REMARK VINA RESULT:      -6.8      2.058      3.681
REMARK  1 active torsions:
REMARK  status: ('A' for Active; 'I' for Inactive)
REMARK    1  A    between atoms: C8_12  and  C9_13 
ROOT
HETATM    1  N1  UNL     1      22.941   4.926  52.532  1.00  0.00    -0.196 NA
HETATM    2  C1  UNL     1      22.654   4.106  51.771  1.00  0.00     0.072 C 
HETATM    3  C2  UNL     1      22.281   3.062  50.794  1.00  0.00     0.167 C 
HETATM    4  C3  UNL     1      21.670   3.599  49.572  1.00  0.00     0.105 C 
HETATM    5  N2  UNL     1      22.167   4.439  48.749  1.00  0.00    -0.303 NA
HETATM    6  C4  UNL     1      23.343   5.156  48.609  1.00  0.00     0.157 C 
HETATM    7  C5  UNL     1      24.606   4.787  49.216  1.00  0.00     0.091 C 
HETATM    8  S1  UNL     1      24.822   3.253  50.110  1.00  0.00    -0.167 SA
HETATM    9  C6  UNL     1      26.291   3.163  50.828  1.00  0.00     0.055 C 
HETATM   10  C7  UNL     1      26.913   2.123  51.647  1.00  0.00     0.117 C 
HETATM   11  N3  UNL     1      26.307   1.039  51.925  1.00  0.00    -0.291 NA
HETATM   12  C8  UNL     1      26.901   0.020  52.719  1.00  0.00     0.149 C 
HETATM   13  C10 UNL     1      25.965  -1.088  53.078  1.00  0.00     0.052 C 
HETATM   14  C11 UNL     1      24.811  -0.717  53.944  1.00  0.00     0.123 C 
HETATM   15  N5  UNL     1      23.960   0.321  53.452  1.00  0.00    -0.385 N 
HETATM   16  C12 UNL     1      23.015   1.046  52.662  1.00  0.00     0.197 C 
HETATM   17  N6  UNL     1      23.762   1.357  51.714  1.00  0.00    -0.268 NA
HETATM   18  C13 UNL     1      23.428   2.113  50.555  1.00  0.00     0.187 C 
HETATM   19  H16 UNL     1      24.100   1.150  54.124  1.00  0.00     0.160 HD
ENDROOT
BRANCH  12  20
HETATM   20  C9  UNL     1      27.517   0.567  53.972  1.00  0.00     0.107 C 
HETATM   21  N4  UNL     1      28.202  -0.165  54.779  1.00  0.00    -0.314 NA
HETATM   22  H11 UNL     1      28.371  -1.166  54.618  1.00  0.00     0.185 HD
ENDBRANCH  12  20
TORSDOF 1
ENDMDL
MODEL 3
REMARK VINA RESULT:      -6.8      1.903      3.530
REMARK  1 active torsions:
REMARK  status: ('A' for Active; 'I' for Inactive)
REMARK    1  A    between atoms: C8_12  and  C9_13 
ROOT
HETATM    1  N1  UNL     1      20.190   3.223  52.707  1.00  0.00    -0.196 NA
HETATM    2  C1  UNL     1      20.315   2.344  51.969  1.00  0.00     0.072 C 
HETATM    3  C2  UNL     1      20.468   1.220  51.022  1.00  0.00     0.167 C 
HETATM    4  C3  UNL     1      19.557   1.300  49.873  1.00  0.00     0.105 C 
HETATM    5  N2  UNL     1      19.456   2.239  49.015  1.00  0.00    -0.303 NA
HETATM    6  C4  UNL     1      20.054   3.463  48.767  1.00  0.00     0.157 C 
HETATM    7  C5  UNL     1      21.368   3.845  49.241  1.00  0.00     0.091 C 
HETATM    8  S1  UNL     1      22.446   2.698  50.091  1.00  0.00    -0.167 SA
HETATM    9  C6  UNL     1      23.795   3.430  50.660  1.00  0.00     0.055 C 
HETATM   10  C7  UNL     1      24.945   2.912  51.401  1.00  0.00     0.117 C 
HETATM   11  N3  UNL     1      25.036   1.685  51.725  1.00  0.00    -0.291 NA
HETATM   12  C8  UNL     1      26.149   1.170  52.444  1.00  0.00     0.149 C 
HETATM   13  C10 UNL     1      25.980  -0.249  52.881  1.00  0.00     0.052 C 
HETATM   14  C11 UNL     1      24.889  -0.508  53.862  1.00  0.00     0.123 C 
HETATM   15  N5  UNL     1      23.577  -0.100  53.469  1.00  0.00    -0.385 N 
HETATM   16  C12 UNL     1      22.325  -0.019  52.784  1.00  0.00     0.197 C 
HETATM   17  N6  UNL     1      22.703   0.598  51.771  1.00  0.00    -0.268 NA
HETATM   18  C13 UNL     1      21.916   1.013  50.659  1.00  0.00     0.187 C 
HETATM   19  H16 UNL     1      23.315   0.706  54.133  1.00  0.00     0.160 HD
ENDROOT
BRANCH  12  20
HETATM   20  C9  UNL     1      26.490   2.013  53.636  1.00  0.00     0.107 C 
HETATM   21  N4  UNL     1      27.672   2.483  53.833  1.00  0.00    -0.314 NA
HETATM   22  H11 UNL     1      28.455   2.311  53.188  1.00  0.00     0.185 HD
ENDBRANCH  12  20
TORSDOF 1
ENDMDL
MODEL 4
REMARK VINA RESULT:      -6.7      2.382      5.853
REMARK  1 active torsions:
REMARK  status: ('A' for Active; 'I' for Inactive)
REMARK    1  A    between atoms: C8_12  and  C9_13 
ROOT
HETATM    1  N1  UNL     1      27.104   2.418  54.183  1.00  0.00    -0.196 NA
HETATM    2  C1  UNL     1      26.966   1.814  53.209  1.00  0.00     0.072 C 
HETATM    3  C2  UNL     1      26.793   1.033  51.967  1.00  0.00     0.167 C 
HETATM    4  C3  UNL     1      26.854  -0.418  52.177  1.00  0.00     0.105 C 
HETATM    5  N2  UNL     1      26.118  -1.133  52.936  1.00  0.00    -0.303 NA
HETATM    6  C4  UNL     1      25.058  -0.940  53.806  1.00  0.00     0.157 C 
HETATM    7  C5  UNL     1      24.159   0.196  53.765  1.00  0.00     0.091 C 
HETATM    8  S1  UNL     1      24.231   1.421  52.464  1.00  0.00    -0.167 SA
HETATM    9  C6  UNL     1      23.218   2.676  52.746  1.00  0.00     0.055 C 
HETATM   10  C7  UNL     1      22.933   3.889  51.980  1.00  0.00     0.117 C 
HETATM   11  N3  UNL     1      23.510   4.133  50.873  1.00  0.00    -0.291 NA
HETATM   12  C8  UNL     1      23.241   5.308  50.119  1.00  0.00     0.149 C 
HETATM   13  C10 UNL     1      24.149   5.494  48.947  1.00  0.00     0.052 C 
HETATM   14  C11 UNL     1      25.590   5.705  49.260  1.00  0.00     0.123 C 
HETATM   15  N5  UNL     1      26.222   4.689  50.040  1.00  0.00    -0.385 N 
HETATM   16  C12 UNL     1      26.785   3.441  50.451  1.00  0.00     0.197 C 
HETATM   17  N6  UNL     1      25.728   2.836  50.717  1.00  0.00    -0.268 NA
HETATM   18  C13 UNL     1      25.584   1.504  51.197  1.00  0.00     0.187 C 
HETATM   19  H16 UNL     1      26.454   5.152  50.984  1.00  0.00     0.160 HD
ENDROOT
BRANCH  12  20
HETATM   20  C9  UNL     1      23.276   6.543  50.967  1.00  0.00     0.107 C 
HETATM   21  N4  UNL     1      22.229   7.261  51.183  1.00  0.00    -0.314 NA
HETATM   22  H11 UNL     1      21.306   7.034  50.790  1.00  0.00     0.185 HD
ENDBRANCH  12  20
TORSDOF 1
ENDMDL
MODEL 5
REMARK VINA RESULT:      -6.4      2.571      4.913
REMARK  1 active torsions:
REMARK  status: ('A' for Active; 'I' for Inactive)
REMARK    1  A    between atoms: C8_12  and  C9_13 
ROOT
HETATM    1  N1  UNL     1      22.994   2.631  48.820  1.00  0.00    -0.196 NA
HETATM    2  C1  UNL     1      23.503   3.054  49.765  1.00  0.00     0.072 C 
HETATM    3  C2  UNL     1      24.159   3.602  50.971  1.00  0.00     0.167 C 
HETATM    4  C3  UNL     1      24.634   4.981  50.800  1.00  0.00     0.105 C 
HETATM    5  N2  UNL     1      23.952   6.013  50.489  1.00  0.00    -0.303 NA
HETATM    6  C4  UNL     1      22.632   6.315  50.199  1.00  0.00     0.157 C 
HETATM    7  C5  UNL     1      21.498   5.516  50.616  1.00  0.00     0.091 C 
HETATM    8  S1  UNL     1      21.674   4.103  51.700  1.00  0.00    -0.167 SA
HETATM    9  C6  UNL     1      20.265   3.288  51.878  1.00  0.00     0.055 C 
HETATM   10  C7  UNL     1      19.922   2.095  52.652  1.00  0.00     0.117 C 
HETATM   11  N3  UNL     1      20.785   1.485  53.360  1.00  0.00    -0.291 NA
HETATM   12  C8  UNL     1      20.463   0.325  54.117  1.00  0.00     0.149 C 
HETATM   13  C10 UNL     1      21.650  -0.342  54.733  1.00  0.00     0.052 C 
HETATM   14  C11 UNL     1      22.646  -0.914  53.784  1.00  0.00     0.123 C 
HETATM   15  N5  UNL     1      23.204  -0.007  52.831  1.00  0.00    -0.385 N 
HETATM   16  C12 UNL     1      23.941   1.068  52.246  1.00  0.00     0.197 C 
HETATM   17  N6  UNL     1      23.161   2.001  52.515  1.00  0.00    -0.268 NA
HETATM   18  C13 UNL     1      23.308   3.381  52.196  1.00  0.00     0.187 C 
HETATM   19  H16 UNL     1      22.835  -0.332  51.874  1.00  0.00     0.160 HD
ENDROOT
BRANCH  12  20
HETATM   20  C9  UNL     1      19.697  -0.681  53.312  1.00  0.00     0.107 C 
HETATM   21  N4  UNL     1      18.594  -1.199  53.725  1.00  0.00    -0.314 NA
HETATM   22  H11 UNL     1      18.168  -0.957  54.630  1.00  0.00     0.185 HD
ENDBRANCH  12  20
TORSDOF 1
ENDMDL
MODEL 6
REMARK VINA RESULT:      -6.4      2.449      4.653
REMARK  1 active torsions:
REMARK  status: ('A' for Active; 'I' for Inactive)
REMARK    1  A    between atoms: C8_12  and  C9_13 
ROOT
HETATM    1  N1  UNL     1      23.633   5.076  52.913  1.00  0.00    -0.196 NA
HETATM    2  C1  UNL     1      23.165   4.593  51.975  1.00  0.00     0.072 C 
HETATM    3  C2  UNL     1      22.568   3.981  50.770  1.00  0.00     0.167 C 
HETATM    4  C3  UNL     1      23.004   4.614  49.519  1.00  0.00     0.105 C 
HETATM    5  N2  UNL     1      24.194   4.744  49.077  1.00  0.00    -0.303 NA
HETATM    6  C4  UNL     1      25.475   4.409  49.483  1.00  0.00     0.157 C 
HETATM    7  C5  UNL     1      25.787   3.355  50.426  1.00  0.00     0.091 C 
HETATM    8  S1  UNL     1      24.536   2.249  51.069  1.00  0.00    -0.167 SA
HETATM    9  C6  UNL     1      25.129   1.264  52.234  1.00  0.00     0.055 C 
HETATM   10  C7  UNL     1      24.500   0.213  53.034  1.00  0.00     0.117 C 
HETATM   11  N3  UNL     1      23.272  -0.089  52.895  1.00  0.00    -0.291 NA
HETATM   12  C8  UNL     1      22.649  -1.109  53.666  1.00  0.00     0.149 C 
HETATM   13  C10 UNL     1      21.169  -1.186  53.480  1.00  0.00     0.052 C 
HETATM   14  C11 UNL     1      20.388   0.000  53.932  1.00  0.00     0.123 C 
HETATM   15  N5  UNL     1      20.753   1.254  53.352  1.00  0.00    -0.385 N 
HETATM   16  C12 UNL     1      20.953   2.312  52.412  1.00  0.00     0.197 C 
HETATM   17  N6  UNL     1      21.979   1.879  51.855  1.00  0.00    -0.268 NA
HETATM   18  C13 UNL     1      22.716   2.481  50.796  1.00  0.00     0.187 C 
HETATM   19  H16 UNL     1      21.168   1.834  54.158  1.00  0.00     0.160 HD
ENDROOT
BRANCH  12  20
HETATM   20  C9  UNL     1      22.954  -0.978  55.127  1.00  0.00     0.107 C 
HETATM   21  N4  UNL     1      22.996  -1.994  55.917  1.00  0.00    -0.314 NA
HETATM   22  H11 UNL     1      22.824  -2.957  55.597  1.00  0.00     0.185 HD
ENDBRANCH  12  20
TORSDOF 1
ENDMDL
MODEL 7
REMARK VINA RESULT:      -6.4      3.667      5.834
REMARK  1 active torsions:
REMARK  status: ('A' for Active; 'I' for Inactive)
REMARK    1  A    between atoms: C8_12  and  C9_13 
ROOT
HETATM    1  N1  UNL     1      24.715   2.882  53.241  1.00  0.00    -0.196 NA
HETATM    2  C1  UNL     1      24.329   2.622  52.184  1.00  0.00     0.072 C 
HETATM    3  C2  UNL     1      23.831   2.284  50.835  1.00  0.00     0.167 C 
HETATM    4  C3  UNL     1      22.639   1.426  50.852  1.00  0.00     0.105 C 
HETATM    5  N2  UNL     1      21.511   1.661  51.401  1.00  0.00    -0.303 NA
HETATM    6  C4  UNL     1      20.927   2.676  52.139  1.00  0.00     0.157 C 
HETATM    7  C5  UNL     1      21.371   4.055  52.133  1.00  0.00     0.091 C 
HETATM    8  S1  UNL     1      22.655   4.638  51.032  1.00  0.00    -0.167 SA
HETATM    9  C6  UNL     1      23.073   6.189  51.344  1.00  0.00     0.055 C 
HETATM   10  C7  UNL     1      24.051   7.079  50.719  1.00  0.00     0.117 C 
HETATM   11  N3  UNL     1      24.774   6.699  49.744  1.00  0.00    -0.291 NA
HETATM   12  C8  UNL     1      25.728   7.555  49.128  1.00  0.00     0.149 C 
HETATM   13  C10 UNL     1      26.595   6.868  48.124  1.00  0.00     0.052 C 
HETATM   14  C11 UNL     1      27.496   5.806  48.653  1.00  0.00     0.123 C 
HETATM   15  N5  UNL     1      26.865   4.740  49.365  1.00  0.00    -0.385 N 
HETATM   16  C12 UNL     1      26.076   3.588  49.674  1.00  0.00     0.197 C 
HETATM   17  N6  UNL     1      24.956   4.132  49.711  1.00  0.00    -0.268 NA
HETATM   18  C13 UNL     1      23.699   3.520  49.982  1.00  0.00     0.187 C 
HETATM   19  H16 UNL     1      27.193   4.841  50.386  1.00  0.00     0.160 HD
ENDROOT
BRANCH  12  20
HETATM   20  C9  UNL     1      26.596   8.250  50.132  1.00  0.00     0.107 C 
HETATM   21  N4  UNL     1      26.470   9.501  50.405  1.00  0.00    -0.314 NA
HETATM   22  H11 UNL     1      25.768  10.103  49.954  1.00  0.00     0.185 HD
ENDBRANCH  12  20
TORSDOF 1
ENDMDL
MODEL 8
REMARK VINA RESULT:      -6.2      1.536      1.733
REMARK  1 active torsions:
REMARK  status: ('A' for Active; 'I' for Inactive)
REMARK    1  A    between atoms: C8_12  and  C9_13 
ROOT
HETATM    1  N1  UNL     1      22.672   2.498  48.438  1.00  0.00    -0.196 NA
HETATM    2  C1  UNL     1      22.753   3.367  49.195  1.00  0.00     0.072 C 
HETATM    3  C2  UNL     1      22.850   4.483  50.158  1.00  0.00     0.167 C 
HETATM    4  C3  UNL     1      21.704   5.399  50.106  1.00  0.00     0.105 C 
HETATM    5  N2  UNL     1      20.471   5.124  50.282  1.00  0.00    -0.303 NA
HETATM    6  C4  UNL     1      19.705   4.006  50.566  1.00  0.00     0.157 C 
HETATM    7  C5  UNL     1      20.210   2.805  51.201  1.00  0.00     0.091 C 
HETATM    8  S1  UNL     1      21.879   2.693  51.835  1.00  0.00    -0.167 SA
HETATM    9  C6  UNL     1      22.238   1.181  52.351  1.00  0.00     0.055 C 
HETATM   10  C7  UNL     1      23.452   0.615  52.940  1.00  0.00     0.117 C 
HETATM   11  N3  UNL     1      24.489   1.323  53.142  1.00  0.00    -0.291 NA
HETATM   12  C8  UNL     1      25.675   0.785  53.714  1.00  0.00     0.149 C 
HETATM   13  C10 UNL     1      26.833   1.729  53.702  1.00  0.00     0.052 C 
HETATM   14  C11 UNL     1      27.343   2.124  52.359  1.00  0.00     0.123 C 
HETATM   15  N5  UNL     1      26.393   2.717  51.472  1.00  0.00    -0.385 N 
HETATM   16  C12 UNL     1      25.465   3.632  50.886  1.00  0.00     0.197 C 
HETATM   17  N6  UNL     1      24.478   3.387  51.605  1.00  0.00    -0.268 NA
HETATM   18  C13 UNL     1      23.184   3.977  51.539  1.00  0.00     0.187 C 
HETATM   19  H16 UNL     1      26.264   2.008  50.672  1.00  0.00     0.160 HD
ENDROOT
BRANCH  12  20
HETATM   20  C9  UNL     1      26.084  -0.501  53.063  1.00  0.00     0.107 C 
HETATM   21  N4  UNL     1      26.953  -1.294  53.585  1.00  0.00    -0.314 NA
HETATM   22  H11 UNL     1      27.421  -1.096  54.480  1.00  0.00     0.185 HD
ENDBRANCH  12  20
TORSDOF 1
ENDMDL
MODEL 9
REMARK VINA RESULT:      -6.1      8.440     11.539
REMARK  1 active torsions:
REMARK  status: ('A' for Active; 'I' for Inactive)
REMARK    1  A    between atoms: C8_12  and  C9_13 
ROOT
HETATM    1  N1  UNL     1      31.932   6.865  45.567  1.00  0.00    -0.196 NA
HETATM    2  C1  UNL     1      31.876   6.268  46.553  1.00  0.00     0.072 C 
HETATM    3  C2  UNL     1      31.811   5.499  47.814  1.00  0.00     0.167 C 
HETATM    4  C3  UNL     1      33.090   4.882  48.186  1.00  0.00     0.105 C 
HETATM    5  N2  UNL     1      34.209   5.460  48.392  1.00  0.00    -0.303 NA
HETATM    6  C4  UNL     1      34.710   6.750  48.373  1.00  0.00     0.157 C 
HETATM    7  C5  UNL     1      33.905   7.945  48.521  1.00  0.00     0.091 C 
HETATM    8  S1  UNL     1      32.159   7.876  48.904  1.00  0.00    -0.167 SA
HETATM    9  C6  UNL     1      31.461   9.357  48.854  1.00  0.00     0.055 C 
HETATM   10  C7  UNL     1      30.085   9.794  49.093  1.00  0.00     0.117 C 
HETATM   11  N3  UNL     1      29.167   8.971  49.405  1.00  0.00    -0.291 NA
HETATM   12  C8  UNL     1      27.827   9.384  49.640  1.00  0.00     0.149 C 
HETATM   13  C10 UNL     1      26.868   8.250  49.816  1.00  0.00     0.052 C 
HETATM   14  C11 UNL     1      26.670   7.370  48.631  1.00  0.00     0.123 C 
HETATM   15  N5  UNL     1      27.844   6.760  48.093  1.00  0.00    -0.385 N 
HETATM   16  C12 UNL     1      29.003   5.937  47.941  1.00  0.00     0.197 C 
HETATM   17  N6  UNL     1      29.796   6.595  48.640  1.00  0.00    -0.268 NA
HETATM   18  C13 UNL     1      31.165   6.310  48.908  1.00  0.00     0.187 C 
HETATM   19  H16 UNL     1      27.983   7.207  47.123  1.00  0.00     0.160 HD
ENDROOT
BRANCH  12  20
HETATM   20  C9  UNL     1      27.318  10.293  48.563  1.00  0.00     0.107 C 
HETATM   21  N4  UNL     1      26.505  11.262  48.805  1.00  0.00    -0.314 NA
HETATM   22  H11 UNL     1      26.155  11.473  49.749  1.00  0.00     0.185 HD
ENDBRANCH  12  20
TORSDOF 1
ENDMDL
