MODEL 1
REMARK VINA RESULT:      -6.6      0.000      0.000
REMARK  8 active torsions:
REMARK  status: ('A' for Active; 'I' for Inactive)
REMARK    1  A    between atoms: O1_2  and  C2_3 
REMARK    2  A    between atoms: C5_6  and  C6_7 
REMARK    3  A    between atoms: C7_10  and  C8_11 
REMARK    4  A    between atoms: C8_11  and  C9_12 
REMARK    5  A    between atoms: C9_12  and  C10_13 
REMARK    6  A    between atoms: C11_14  and  C12_15 
REMARK    7  A    between atoms: C14_18  and  O2_19 
REMARK    8  A    between atoms: C15_20  and  S1_21 
ROOT
HETATM    1  C6  UNL     1      25.036   4.564  49.395  1.00  0.00     0.073 C 
HETATM    2  N1  UNL     1      23.768   4.441  48.623  1.00  0.00    -0.179 NA
HETATM    3  N2  UNL     1      23.149   4.192  49.847  1.00  0.00    -0.279 N 
HETATM    4  C7  UNL     1      23.734   2.886  50.127  1.00  0.00     0.141 C 
HETATM    5  C13 UNL     1      24.861   3.806  50.754  1.00  0.00     0.100 C 
HETATM    6  C14 UNL     1      24.034   4.604  51.697  1.00  0.00     0.165 C 
HETATM    7  C15 UNL     1      22.502   4.422  51.062  1.00  0.00     0.195 C 
ENDROOT
BRANCH   1   8
HETATM    8  C5  UNL     1      26.217   5.281  48.892  1.00  0.00    -0.009 A 
HETATM    9  C4  UNL     1      26.143   6.585  48.474  1.00  0.00     0.016 A 
HETATM   10  C3  UNL     1      27.291   7.191  48.015  1.00  0.00     0.037 A 
HETATM   11  C2  UNL     1      28.464   6.469  47.992  1.00  0.00     0.068 A 
HETATM   12  C18 UNL     1      28.490   5.178  48.417  1.00  0.00     0.037 A 
HETATM   13  C17 UNL     1      27.354   4.517  48.892  1.00  0.00     0.016 A 
BRANCH  11  14
HETATM   14  O1  UNL     1      29.621   7.066  47.534  1.00  0.00    -0.356 OA
HETATM   15  C1  UNL     1      30.700   7.463  48.350  1.00  0.00     0.210 C 
ENDBRANCH  11  14
ENDBRANCH   1   8
BRANCH   4  16
HETATM   16  C8  UNL     1      23.048   2.043  51.028  1.00  0.00     0.001 C 
BRANCH  16  17
HETATM   17  C9  UNL     1      22.557   1.177  51.879  1.00  0.00    -0.002 C 
BRANCH  17  18
HETATM   18  C10 UNL     1      23.487   0.373  52.649  1.00  0.00    -0.003 C 
HETATM   19  C11 UNL     1      24.683   0.182  53.152  1.00  0.00    -0.016 C 
BRANCH  19  20
HETATM   20  C12 UNL     1      25.555  -0.702  53.949  1.00  0.00     0.112 C 
HETATM   21 BR1  UNL     1      27.131  -1.105  52.934  1.00  0.00    -0.092 Br
ENDBRANCH  19  20
ENDBRANCH  17  18
ENDBRANCH  16  17
ENDBRANCH   4  16
BRANCH   6  22
HETATM   22  O2  UNL     1      24.254   5.952  51.468  1.00  0.00    -0.392 OA
HETATM   23  H15 UNL     1      23.409   6.418  51.280  1.00  0.00     0.210 HD
ENDBRANCH   6  22
BRANCH   7  24
HETATM   24  S1  UNL     1      21.667   5.990  51.268  1.00  0.00    -0.144 SA
HETATM   25  C16 UNL     1      20.936   6.486  49.675  1.00  0.00     0.092 C 
ENDBRANCH   7  24
TORSDOF 8
ENDMDL
MODEL 2
REMARK VINA RESULT:      -6.5      1.747      2.250
REMARK  8 active torsions:
REMARK  status: ('A' for Active; 'I' for Inactive)
REMARK    1  A    between atoms: O1_2  and  C2_3 
REMARK    2  A    between atoms: C5_6  and  C6_7 
REMARK    3  A    between atoms: C7_10  and  C8_11 
REMARK    4  A    between atoms: C8_11  and  C9_12 
REMARK    5  A    between atoms: C9_12  and  C10_13 
REMARK    6  A    between atoms: C11_14  and  C12_15 
REMARK    7  A    between atoms: C14_18  and  O2_19 
REMARK    8  A    between atoms: C15_20  and  S1_21 
ROOT
HETATM    1  C6  UNL     1      24.602   3.716  50.157  1.00  0.00     0.073 C 
HETATM    2  N1  UNL     1      23.613   2.765  49.579  1.00  0.00    -0.179 NA
HETATM    3  N2  UNL     1      23.264   2.464  50.893  1.00  0.00    -0.279 N 
HETATM    4  C7  UNL     1      24.489   1.783  51.295  1.00  0.00     0.141 C 
HETATM    5  C13 UNL     1      24.910   3.274  51.627  1.00  0.00     0.100 C 
HETATM    6  C14 UNL     1      23.792   3.650  52.533  1.00  0.00     0.165 C 
HETATM    7  C15 UNL     1      22.620   2.533  52.130  1.00  0.00     0.195 C 
ENDROOT
BRANCH   1   8
HETATM    8  C5  UNL     1      25.162   4.850  49.406  1.00  0.00    -0.009 A 
HETATM    9  C4  UNL     1      24.364   5.845  48.904  1.00  0.00     0.016 A 
HETATM   10  C3  UNL     1      24.960   6.874  48.210  1.00  0.00     0.037 A 
HETATM   11  C2  UNL     1      26.328   6.866  48.048  1.00  0.00     0.068 A 
HETATM   12  C18 UNL     1      27.081   5.858  48.564  1.00  0.00     0.037 A 
HETATM   13  C17 UNL     1      26.525   4.791  49.276  1.00  0.00     0.016 A 
BRANCH  11  14
HETATM   14  O1  UNL     1      26.937   7.893  47.355  1.00  0.00    -0.356 OA
HETATM   15  C1  UNL     1      28.249   7.851  46.841  1.00  0.00     0.210 C 
ENDBRANCH  11  14
ENDBRANCH   1   8
BRANCH   4  16
HETATM   16  C8  UNL     1      24.415   0.899  52.393  1.00  0.00     0.001 C 
BRANCH  16  17
HETATM   17  C9  UNL     1      24.514   0.070  53.402  1.00  0.00    -0.002 C 
BRANCH  17  18
HETATM   18  C10 UNL     1      25.820  -0.120  54.005  1.00  0.00    -0.003 C 
HETATM   19  C11 UNL     1      27.020   0.326  54.287  1.00  0.00    -0.016 C 
BRANCH  19  20
HETATM   20  C12 UNL     1      28.319   0.041  54.928  1.00  0.00     0.112 C 
HETATM   21 BR1  UNL     1      29.484  -0.773  53.642  1.00  0.00    -0.092 Br
ENDBRANCH  19  20
ENDBRANCH  17  18
ENDBRANCH  16  17
ENDBRANCH   4  16
BRANCH   6  22
HETATM   22  O2  UNL     1      23.208   4.820  52.074  1.00  0.00    -0.392 OA
HETATM   23  H15 UNL     1      22.528   4.627  51.391  1.00  0.00     0.210 HD
ENDBRANCH   6  22
BRANCH   7  24
HETATM   24  S1  UNL     1      21.049   3.385  52.196  1.00  0.00    -0.144 SA
HETATM   25  C16 UNL     1      20.134   3.060  50.655  1.00  0.00     0.092 C 
ENDBRANCH   7  24
TORSDOF 8
ENDMDL
MODEL 3
REMARK VINA RESULT:      -6.5      2.354      2.728
REMARK  8 active torsions:
REMARK  status: ('A' for Active; 'I' for Inactive)
REMARK    1  A    between atoms: O1_2  and  C2_3 
REMARK    2  A    between atoms: C5_6  and  C6_7 
REMARK    3  A    between atoms: C7_10  and  C8_11 
REMARK    4  A    between atoms: C8_11  and  C9_12 
REMARK    5  A    between atoms: C9_12  and  C10_13 
REMARK    6  A    between atoms: C11_14  and  C12_15 
REMARK    7  A    between atoms: C14_18  and  O2_19 
REMARK    8  A    between atoms: C15_20  and  S1_21 
ROOT
HETATM    1  C6  UNL     1      24.856   3.634  50.168  1.00  0.00     0.073 C 
HETATM    2  N1  UNL     1      23.715   2.954  49.493  1.00  0.00    -0.179 NA
HETATM    3  N2  UNL     1      23.189   2.759  50.769  1.00  0.00    -0.279 N 
HETATM    4  C7  UNL     1      24.167   1.798  51.265  1.00  0.00     0.141 C 
HETATM    5  C13 UNL     1      24.914   3.140  51.653  1.00  0.00     0.100 C 
HETATM    6  C14 UNL     1      23.850   3.790  52.464  1.00  0.00     0.165 C 
HETATM    7  C15 UNL     1      22.477   2.996  51.946  1.00  0.00     0.195 C 
ENDROOT
BRANCH   1   8
HETATM    8  C5  UNL     1      25.743   4.587  49.485  1.00  0.00    -0.009 A 
HETATM    9  C4  UNL     1      25.316   5.841  49.131  1.00  0.00     0.016 A 
HETATM   10  C3  UNL     1      26.204   6.678  48.493  1.00  0.00     0.037 A 
HETATM   11  C2  UNL     1      27.480   6.226  48.235  1.00  0.00     0.068 A 
HETATM   12  C18 UNL     1      27.859   4.975  48.605  1.00  0.00     0.037 A 
HETATM   13  C17 UNL     1      26.998   4.086  49.255  1.00  0.00     0.016 A 
BRANCH  11  14
HETATM   14  O1  UNL     1      28.378   7.057  47.596  1.00  0.00    -0.356 OA
HETATM   15  C1  UNL     1      29.490   7.667  48.212  1.00  0.00     0.210 C 
ENDBRANCH  11  14
ENDBRANCH   1   8
BRANCH   4  16
HETATM   16  C8  UNL     1      23.780   0.969  52.340  1.00  0.00     0.001 C 
BRANCH  16  17
HETATM   17  C9  UNL     1      23.484   0.072  53.247  1.00  0.00    -0.002 C 
BRANCH  17  18
HETATM   18  C10 UNL     1      22.085  -0.253  53.457  1.00  0.00    -0.003 C 
HETATM   19  C11 UNL     1      20.834  -0.208  53.066  1.00  0.00    -0.016 C 
BRANCH  19  20
HETATM   20  C12 UNL     1      19.439  -0.584  53.364  1.00  0.00     0.112 C 
HETATM   21 BR1  UNL     1      18.345  -0.181  51.842  1.00  0.00    -0.092 Br
ENDBRANCH  19  20
ENDBRANCH  17  18
ENDBRANCH  16  17
ENDBRANCH   4  16
BRANCH   6  22
HETATM   22  O2  UNL     1      23.618   5.064  51.974  1.00  0.00    -0.392 OA
HETATM   23  H15 UNL     1      24.326   5.333  51.347  1.00  0.00     0.210 HD
ENDBRANCH   6  22
BRANCH   7  24
HETATM   24  S1  UNL     1      21.168   4.212  51.888  1.00  0.00    -0.144 SA
HETATM   25  C16 UNL     1      20.365   4.141  50.254  1.00  0.00     0.092 C 
ENDBRANCH   7  24
TORSDOF 8
ENDMDL
MODEL 4
REMARK VINA RESULT:      -6.5      3.795      5.582
REMARK  8 active torsions:
REMARK  status: ('A' for Active; 'I' for Inactive)
REMARK    1  A    between atoms: O1_2  and  C2_3 
REMARK    2  A    between atoms: C5_6  and  C6_7 
REMARK    3  A    between atoms: C7_10  and  C8_11 
REMARK    4  A    between atoms: C8_11  and  C9_12 
REMARK    5  A    between atoms: C9_12  and  C10_13 
REMARK    6  A    between atoms: C11_14  and  C12_15 
REMARK    7  A    between atoms: C14_18  and  O2_19 
REMARK    8  A    between atoms: C15_20  and  S1_21 
ROOT
HETATM    1  C6  UNL     1      25.148   1.821  51.593  1.00  0.00     0.073 C 
HETATM    2  N1  UNL     1      25.155   2.519  50.277  1.00  0.00    -0.179 NA
HETATM    3  N2  UNL     1      23.910   3.030  50.637  1.00  0.00    -0.279 N 
HETATM    4  C7  UNL     1      23.141   1.792  50.584  1.00  0.00     0.141 C 
HETATM    5  C13 UNL     1      23.663   1.698  52.076  1.00  0.00     0.100 C 
HETATM    6  C14 UNL     1      23.170   3.001  52.594  1.00  0.00     0.165 C 
HETATM    7  C15 UNL     1      22.948   3.877  51.191  1.00  0.00     0.195 C 
ENDROOT
BRANCH   1   8
HETATM    8  C5  UNL     1      26.369   1.346  52.259  1.00  0.00    -0.009 A 
HETATM    9  C4  UNL     1      27.358   2.211  52.653  1.00  0.00     0.016 A 
HETATM   10  C3  UNL     1      28.473   1.691  53.270  1.00  0.00     0.037 A 
HETATM   11  C2  UNL     1      28.555   0.330  53.466  1.00  0.00     0.068 A 
HETATM   12  C18 UNL     1      27.551  -0.490  53.059  1.00  0.00     0.037 A 
HETATM   13  C17 UNL     1      26.397  -0.014  52.429  1.00  0.00     0.016 A 
BRANCH  11  14
HETATM   14  O1  UNL     1      29.670  -0.202  54.084  1.00  0.00    -0.356 OA
HETATM   15  C1  UNL     1      30.195  -1.486  53.830  1.00  0.00     0.210 C 
ENDBRANCH  11  14
ENDBRANCH   1   8
BRANCH   4  16
HETATM   16  C8  UNL     1      21.743   1.899  50.419  1.00  0.00     0.001 C 
BRANCH  16  17
HETATM   17  C9  UNL     1      20.437   1.848  50.343  1.00  0.00    -0.002 C 
BRANCH  17  18
HETATM   18  C10 UNL     1      19.739   0.897  51.189  1.00  0.00    -0.003 C 
HETATM   19  C11 UNL     1      19.664   0.200  52.297  1.00  0.00    -0.016 C 
BRANCH  19  20
HETATM   20  C12 UNL     1      18.883  -0.772  53.087  1.00  0.00     0.112 C 
HETATM   21 BR1  UNL     1      17.100  -0.857  52.388  1.00  0.00    -0.092 Br
ENDBRANCH  19  20
ENDBRANCH  17  18
ENDBRANCH  16  17
ENDBRANCH   4  16
BRANCH   6  22
HETATM   22  O2  UNL     1      24.223   3.691  53.170  1.00  0.00    -0.392 OA
HETATM   23  H15 UNL     1      23.957   4.610  53.399  1.00  0.00     0.210 HD
ENDBRANCH   6  22
BRANCH   7  24
HETATM   24  S1  UNL     1      23.439   5.559  51.548  1.00  0.00    -0.144 SA
HETATM   25  C16 UNL     1      24.673   6.091  50.318  1.00  0.00     0.092 C 
ENDBRANCH   7  24
TORSDOF 8
ENDMDL
MODEL 5
REMARK VINA RESULT:      -6.3      3.144      6.634
REMARK  8 active torsions:
REMARK  status: ('A' for Active; 'I' for Inactive)
REMARK    1  A    between atoms: O1_2  and  C2_3 
REMARK    2  A    between atoms: C5_6  and  C6_7 
REMARK    3  A    between atoms: C7_10  and  C8_11 
REMARK    4  A    between atoms: C8_11  and  C9_12 
REMARK    5  A    between atoms: C9_12  and  C10_13 
REMARK    6  A    between atoms: C11_14  and  C12_15 
REMARK    7  A    between atoms: C14_18  and  O2_19 
REMARK    8  A    between atoms: C15_20  and  S1_21 
ROOT
HETATM    1  C6  UNL     1      24.668   2.952  51.390  1.00  0.00     0.073 C 
HETATM    2  N1  UNL     1      23.873   3.943  52.167  1.00  0.00    -0.179 NA
HETATM    3  N2  UNL     1      23.433   4.426  50.937  1.00  0.00    -0.279 N 
HETATM    4  C7  UNL     1      24.688   4.998  50.463  1.00  0.00     0.141 C 
HETATM    5  C13 UNL     1      24.877   3.514  49.944  1.00  0.00     0.100 C 
HETATM    6  C14 UNL     1      23.633   3.372  49.141  1.00  0.00     0.165 C 
HETATM    7  C15 UNL     1      22.662   4.568  49.782  1.00  0.00     0.195 C 
ENDROOT
BRANCH   1   8
HETATM    8  C5  UNL     1      25.151   1.685  51.959  1.00  0.00    -0.009 A 
HETATM    9  C4  UNL     1      24.361   0.912  52.771  1.00  0.00     0.016 A 
HETATM   10  C3  UNL     1      24.883  -0.261  53.267  1.00  0.00     0.037 A 
HETATM   11  C2  UNL     1      26.173  -0.613  52.931  1.00  0.00     0.068 A 
HETATM   12  C18 UNL     1      26.920   0.185  52.122  1.00  0.00     0.037 A 
HETATM   13  C17 UNL     1      26.437   1.385  51.592  1.00  0.00     0.016 A 
BRANCH  11  14
HETATM   14  O1  UNL     1      26.707  -1.787  53.423  1.00  0.00    -0.356 OA
HETATM   15  C1  UNL     1      27.683  -2.564  52.767  1.00  0.00     0.210 C 
ENDBRANCH  11  14
ENDBRANCH   1   8
BRANCH   4  16
HETATM   16  C8  UNL     1      24.615   6.000  49.472  1.00  0.00     0.001 C 
BRANCH  16  17
HETATM   17  C9  UNL     1      24.707   6.889  48.514  1.00  0.00    -0.002 C 
BRANCH  17  18
HETATM   18  C10 UNL     1      26.009   7.114  47.913  1.00  0.00    -0.003 C 
HETATM   19  C11 UNL     1      27.318   7.089  47.988  1.00  0.00    -0.016 C 
BRANCH  19  20
HETATM   20  C12 UNL     1      28.595   7.347  47.294  1.00  0.00     0.112 C 
HETATM   21 BR1  UNL     1      29.933   6.163  47.988  1.00  0.00    -0.092 Br
ENDBRANCH  19  20
ENDBRANCH  17  18
ENDBRANCH  16  17
ENDBRANCH   4  16
BRANCH   6  22
HETATM   22  O2  UNL     1      22.954   2.236  49.549  1.00  0.00    -0.392 OA
HETATM   23  H15 UNL     1      22.076   2.177  49.110  1.00  0.00     0.210 HD
ENDBRANCH   6  22
BRANCH   7  24
HETATM   24  S1  UNL     1      20.997   3.919  49.816  1.00  0.00    -0.144 SA
HETATM   25  C16 UNL     1      20.329   4.090  51.503  1.00  0.00     0.092 C 
ENDBRANCH   7  24
TORSDOF 8
ENDMDL
MODEL 6
REMARK VINA RESULT:      -6.2      4.918      8.835
REMARK  8 active torsions:
REMARK  status: ('A' for Active; 'I' for Inactive)
REMARK    1  A    between atoms: O1_2  and  C2_3 
REMARK    2  A    between atoms: C5_6  and  C6_7 
REMARK    3  A    between atoms: C7_10  and  C8_11 
REMARK    4  A    between atoms: C8_11  and  C9_12 
REMARK    5  A    between atoms: C9_12  and  C10_13 
REMARK    6  A    between atoms: C11_14  and  C12_15 
REMARK    7  A    between atoms: C14_18  and  O2_19 
REMARK    8  A    between atoms: C15_20  and  S1_21 
ROOT
HETATM    1  C6  UNL     1      20.255   0.588  52.383  1.00  0.00     0.073 C 
HETATM    2  N1  UNL     1      20.344   1.983  52.895  1.00  0.00    -0.179 NA
HETATM    3  N2  UNL     1      21.406   2.150  52.007  1.00  0.00    -0.279 N 
HETATM    4  C7  UNL     1      22.375   1.277  52.660  1.00  0.00     0.141 C 
HETATM    5  C13 UNL     1      21.639   0.204  51.758  1.00  0.00     0.100 C 
HETATM    6  C14 UNL     1      21.807   0.842  50.425  1.00  0.00     0.165 C 
HETATM    7  C15 UNL     1      22.102   2.433  50.831  1.00  0.00     0.195 C 
ENDROOT
BRANCH   1   8
HETATM    8  C5  UNL     1      19.041  -0.234  52.495  1.00  0.00    -0.009 A 
HETATM    9  C4  UNL     1      18.949  -1.263  53.398  1.00  0.00     0.016 A 
HETATM   10  C3  UNL     1      17.781  -1.989  53.444  1.00  0.00     0.037 A 
HETATM   11  C2  UNL     1      16.754  -1.658  52.587  1.00  0.00     0.068 A 
HETATM   12  C18 UNL     1      16.890  -0.630  51.709  1.00  0.00     0.037 A 
HETATM   13  C17 UNL     1      18.054   0.139  51.621  1.00  0.00     0.016 A 
BRANCH  11  14
HETATM   14  O1  UNL     1      15.578  -2.380  52.625  1.00  0.00    -0.356 OA
HETATM   15  C1  UNL     1      14.427  -2.085  51.865  1.00  0.00     0.210 C 
ENDBRANCH  11  14
ENDBRANCH   1   8
BRANCH   4  16
HETATM   16  C8  UNL     1      23.741   1.494  52.377  1.00  0.00     0.001 C 
BRANCH  16  17
HETATM   17  C9  UNL     1      25.033   1.537  52.168  1.00  0.00    -0.002 C 
BRANCH  17  18
HETATM   18  C10 UNL     1      25.831   0.396  52.581  1.00  0.00    -0.003 C 
HETATM   19  C11 UNL     1      26.719  -0.530  52.312  1.00  0.00    -0.016 C 
BRANCH  19  20
HETATM   20  C12 UNL     1      27.488  -1.681  52.824  1.00  0.00     0.112 C 
HETATM   21 BR1  UNL     1      29.194  -1.067  53.445  1.00  0.00    -0.092 Br
ENDBRANCH  19  20
ENDBRANCH  17  18
ENDBRANCH  16  17
ENDBRANCH   4  16
BRANCH   6  22
HETATM   22  O2  UNL     1      20.570   0.952  49.813  1.00  0.00    -0.392 OA
HETATM   23  H15 UNL     1      20.535   0.409  48.994  1.00  0.00     0.210 HD
ENDBRANCH   6  22
BRANCH   7  24
HETATM   24  S1  UNL     1      21.276   3.441  49.607  1.00  0.00    -0.144 SA
HETATM   25  C16 UNL     1      20.650   4.952  50.407  1.00  0.00     0.092 C 
ENDBRANCH   7  24
TORSDOF 8
ENDMDL
MODEL 7
REMARK VINA RESULT:      -6.2      5.024      6.382
REMARK  8 active torsions:
REMARK  status: ('A' for Active; 'I' for Inactive)
REMARK    1  A    between atoms: O1_2  and  C2_3 
REMARK    2  A    between atoms: C5_6  and  C6_7 
REMARK    3  A    between atoms: C7_10  and  C8_11 
REMARK    4  A    between atoms: C8_11  and  C9_12 
REMARK    5  A    between atoms: C9_12  and  C10_13 
REMARK    6  A    between atoms: C11_14  and  C12_15 
REMARK    7  A    between atoms: C14_18  and  O2_19 
REMARK    8  A    between atoms: C15_20  and  S1_21 
ROOT
HETATM    1  C6  UNL     1      22.834   1.334  51.856  1.00  0.00     0.073 C 
HETATM    2  N1  UNL     1      22.926   1.613  50.396  1.00  0.00    -0.179 NA
HETATM    3  N2  UNL     1      21.641   2.143  50.504  1.00  0.00    -0.279 N 
HETATM    4  C7  UNL     1      20.915   0.906  50.769  1.00  0.00     0.141 C 
HETATM    5  C13 UNL     1      21.320   1.282  52.253  1.00  0.00     0.100 C 
HETATM    6  C14 UNL     1      20.749   2.653  52.325  1.00  0.00     0.165 C 
HETATM    7  C15 UNL     1      20.614   3.064  50.714  1.00  0.00     0.195 C 
ENDROOT
BRANCH   1   8
HETATM    8  C5  UNL     1      24.012   1.140  52.714  1.00  0.00    -0.009 A 
HETATM    9  C4  UNL     1      24.271  -0.064  53.319  1.00  0.00     0.016 A 
HETATM   10  C3  UNL     1      25.393  -0.170  54.109  1.00  0.00     0.037 A 
HETATM   11  C2  UNL     1      26.210   0.929  54.260  1.00  0.00     0.068 A 
HETATM   12  C18 UNL     1      25.915   2.102  53.640  1.00  0.00     0.037 A 
HETATM   13  C17 UNL     1      24.788   2.263  52.828  1.00  0.00     0.016 A 
BRANCH  11  14
HETATM   14  O1  UNL     1      27.339   0.834  55.050  1.00  0.00    -0.356 OA
HETATM   15  C1  UNL     1      28.618   0.467  54.585  1.00  0.00     0.210 C 
ENDBRANCH  11  14
ENDBRANCH   1   8
BRANCH   4  16
HETATM   16  C8  UNL     1      19.532   0.887  50.487  1.00  0.00     0.001 C 
BRANCH  16  17
HETATM   17  C9  UNL     1      18.282   0.735  50.129  1.00  0.00    -0.002 C 
BRANCH  17  18
HETATM   18  C10 UNL     1      17.481  -0.242  50.844  1.00  0.00    -0.003 C 
HETATM   19  C11 UNL     1      17.107  -0.806  51.967  1.00  0.00    -0.016 C 
BRANCH  19  20
HETATM   20  C12 UNL     1      16.255  -1.828  52.605  1.00  0.00     0.112 C 
HETATM   21 BR1  UNL     1      17.373  -3.100  53.504  1.00  0.00    -0.092 Br
ENDBRANCH  19  20
ENDBRANCH  17  18
ENDBRANCH  16  17
ENDBRANCH   4  16
BRANCH   6  22
HETATM   22  O2  UNL     1      21.733   3.536  52.740  1.00  0.00    -0.392 OA
HETATM   23  H15 UNL     1      22.407   3.076  53.288  1.00  0.00     0.210 HD
ENDBRANCH   6  22
BRANCH   7  24
HETATM   24  S1  UNL     1      21.025   4.800  50.587  1.00  0.00    -0.144 SA
HETATM   25  C16 UNL     1      19.670   5.669  49.734  1.00  0.00     0.092 C 
ENDBRANCH   7  24
TORSDOF 8
ENDMDL
MODEL 8
REMARK VINA RESULT:      -6.2      3.711      6.581
REMARK  8 active torsions:
REMARK  status: ('A' for Active; 'I' for Inactive)
REMARK    1  A    between atoms: O1_2  and  C2_3 
REMARK    2  A    between atoms: C5_6  and  C6_7 
REMARK    3  A    between atoms: C7_10  and  C8_11 
REMARK    4  A    between atoms: C8_11  and  C9_12 
REMARK    5  A    between atoms: C9_12  and  C10_13 
REMARK    6  A    between atoms: C11_14  and  C12_15 
REMARK    7  A    between atoms: C14_18  and  O2_19 
REMARK    8  A    between atoms: C15_20  and  S1_21 
ROOT
HETATM    1  C6  UNL     1      23.538   2.757  52.340  1.00  0.00     0.073 C 
HETATM    2  N1  UNL     1      22.087   2.440  52.226  1.00  0.00    -0.179 NA
HETATM    3  N2  UNL     1      22.053   3.370  51.189  1.00  0.00    -0.279 N 
HETATM    4  C7  UNL     1      22.278   4.580  51.972  1.00  0.00     0.141 C 
HETATM    5  C13 UNL     1      23.785   4.168  51.708  1.00  0.00     0.100 C 
HETATM    6  C14 UNL     1      23.764   4.089  50.224  1.00  0.00     0.165 C 
HETATM    7  C15 UNL     1      22.137   3.906  49.903  1.00  0.00     0.195 C 
ENDROOT
BRANCH   1   8
HETATM    8  C5  UNL     1      24.512   1.851  52.966  1.00  0.00    -0.009 A 
HETATM    9  C4  UNL     1      24.277   0.504  53.073  1.00  0.00     0.016 A 
HETATM   10  C3  UNL     1      25.236  -0.281  53.672  1.00  0.00     0.037 A 
HETATM   11  C2  UNL     1      26.389   0.312  54.141  1.00  0.00     0.068 A 
HETATM   12  C18 UNL     1      26.579   1.652  54.012  1.00  0.00     0.037 A 
HETATM   13  C17 UNL     1      25.638   2.493  53.412  1.00  0.00     0.016 A 
BRANCH  11  14
HETATM   14  O1  UNL     1      27.357  -0.466  54.744  1.00  0.00    -0.356 OA
HETATM   15  C1  UNL     1      28.721  -0.123  54.838  1.00  0.00     0.210 C 
ENDBRANCH  11  14
ENDBRANCH   1   8
BRANCH   4  16
HETATM   16  C8  UNL     1      21.862   5.807  51.411  1.00  0.00     0.001 C 
BRANCH  16  17
HETATM   17  C9  UNL     1      21.636   6.965  50.844  1.00  0.00    -0.002 C 
BRANCH  17  18
HETATM   18  C10 UNL     1      22.769   7.695  50.305  1.00  0.00    -0.003 C 
HETATM   19  C11 UNL     1      24.021   8.075  50.386  1.00  0.00    -0.016 C 
BRANCH  19  20
HETATM   20  C12 UNL     1      25.115   8.845  49.761  1.00  0.00     0.112 C 
HETATM   21 BR1  UNL     1      26.297   7.633  48.863  1.00  0.00    -0.092 Br
ENDBRANCH  19  20
ENDBRANCH  17  18
ENDBRANCH  16  17
ENDBRANCH   4  16
BRANCH   6  22
HETATM   22  O2  UNL     1      24.250   2.855  49.826  1.00  0.00    -0.392 OA
HETATM   23  H15 UNL     1      23.912   2.616  48.934  1.00  0.00     0.210 HD
ENDBRANCH   6  22
BRANCH   7  24
HETATM   24  S1  UNL     1      22.005   2.773  48.527  1.00  0.00    -0.144 SA
HETATM   25  C16 UNL     1      21.834   3.729  46.985  1.00  0.00     0.092 C 
ENDBRANCH   7  24
TORSDOF 8
ENDMDL
MODEL 9
REMARK VINA RESULT:      -6.1      3.629      7.949
REMARK  8 active torsions:
REMARK  status: ('A' for Active; 'I' for Inactive)
REMARK    1  A    between atoms: O1_2  and  C2_3 
REMARK    2  A    between atoms: C5_6  and  C6_7 
REMARK    3  A    between atoms: C7_10  and  C8_11 
REMARK    4  A    between atoms: C8_11  and  C9_12 
REMARK    5  A    between atoms: C9_12  and  C10_13 
REMARK    6  A    between atoms: C11_14  and  C12_15 
REMARK    7  A    between atoms: C14_18  and  O2_19 
REMARK    8  A    between atoms: C15_20  and  S1_21 
ROOT
HETATM    1  C6  UNL     1      23.003   2.062  51.947  1.00  0.00     0.073 C 
HETATM    2  N1  UNL     1      23.743   2.963  52.874  1.00  0.00    -0.179 NA
HETATM    3  N2  UNL     1      24.059   3.720  51.748  1.00  0.00    -0.279 N 
HETATM    4  C7  UNL     1      24.955   2.774  51.092  1.00  0.00     0.141 C 
HETATM    5  C13 UNL     1      23.576   2.263  50.504  1.00  0.00     0.100 C 
HETATM    6  C14 UNL     1      23.073   3.531  49.912  1.00  0.00     0.165 C 
HETATM    7  C15 UNL     1      23.957   4.680  50.740  1.00  0.00     0.195 C 
ENDROOT
BRANCH   1   8
HETATM    8  C5  UNL     1      21.936   1.153  52.390  1.00  0.00    -0.009 A 
HETATM    9  C4  UNL     1      20.785   0.986  51.663  1.00  0.00     0.016 A 
HETATM   10  C3  UNL     1      19.830   0.118  52.142  1.00  0.00     0.037 A 
HETATM   11  C2  UNL     1      20.063  -0.546  53.327  1.00  0.00     0.068 A 
HETATM   12  C18 UNL     1      21.220  -0.350  54.014  1.00  0.00     0.037 A 
HETATM   13  C17 UNL     1      22.221   0.519  53.572  1.00  0.00     0.016 A 
BRANCH  11  14
HETATM   14  O1  UNL     1      19.112  -1.419  53.816  1.00  0.00    -0.356 OA
HETATM   15  C1  UNL     1      17.871  -1.684  53.202  1.00  0.00     0.210 C 
ENDBRANCH  11  14
ENDBRANCH   1   8
BRANCH   4  16
HETATM   16  C8  UNL     1      25.877   3.290  50.157  1.00  0.00     0.001 C 
BRANCH  16  17
HETATM   17  C9  UNL     1      26.846   3.665  49.359  1.00  0.00    -0.002 C 
BRANCH  17  18
HETATM   18  C10 UNL     1      26.837   5.032  48.870  1.00  0.00    -0.003 C 
HETATM   19  C11 UNL     1      27.478   6.091  48.438  1.00  0.00    -0.016 C 
BRANCH  19  20
HETATM   20  C12 UNL     1      27.369   7.480  47.949  1.00  0.00     0.112 C 
HETATM   21 BR1  UNL     1      28.825   7.836  46.754  1.00  0.00    -0.092 Br
ENDBRANCH  19  20
ENDBRANCH  17  18
ENDBRANCH  16  17
ENDBRANCH   4  16
BRANCH   6  22
HETATM   22  O2  UNL     1      21.799   3.785  50.392  1.00  0.00    -0.392 OA
HETATM   23  H15 UNL     1      21.639   4.752  50.466  1.00  0.00     0.210 HD
ENDBRANCH   6  22
BRANCH   7  24
HETATM   24  S1  UNL     1      22.863   6.065  51.028  1.00  0.00    -0.144 SA
HETATM   25  C16 UNL     1      23.038   7.254  49.659  1.00  0.00     0.092 C 
ENDBRANCH   7  24
TORSDOF 8
ENDMDL
