MODEL 1
REMARK VINA RESULT:      -7.4      0.000      0.000
REMARK  8 active torsions:
REMARK  status: ('A' for Active; 'I' for Inactive)
REMARK    1  A    between atoms: C2_2  and  C3_3 
REMARK    2  A    between atoms: C3_3  and  C14_16 
REMARK    3  A    between atoms: C4_4  and  N1_5 
REMARK    4  A    between atoms: N1_5  and  C5_6 
REMARK    5  A    between atoms: C5_6  and  C6_7 
REMARK    6  A    between atoms: C14_16  and  C15_17 
REMARK    7  A    between atoms: C15_17  and  C16_18 
REMARK    8  A    between atoms: C16_18  and  O3_20 
ROOT
HETATM    1  N1  UNL     1      26.170   1.596  51.552  1.00  0.00    -0.395 N 
HETATM    2  H7  UNL     1      26.723   2.055  50.779  1.00  0.00     0.159 HD
ENDROOT
BRANCH   1   3
HETATM    3  C4  UNL     1      26.541   0.295  51.967  1.00  0.00     0.086 C 
HETATM    4  C3  UNL     1      27.127  -0.648  52.688  1.00  0.00    -0.065 C 
BRANCH   4   5
HETATM    5  C2  UNL     1      27.101  -2.130  52.566  1.00  0.00     0.031 C 
HETATM    6  C1  UNL     1      28.426  -2.731  52.990  1.00  0.00     0.010 C 
ENDBRANCH   4   5
BRANCH   4   7
HETATM    7  C14 UNL     1      27.992  -0.261  53.819  1.00  0.00     0.046 C 
BRANCH   7   8
HETATM    8  C15 UNL     1      29.106   0.696  53.451  1.00  0.00     0.114 C 
BRANCH   8   9
HETATM    9  C16 UNL     1      28.931   1.994  54.192  1.00  0.00     0.139 C 
HETATM   10  O2  UNL     1      29.773   2.356  55.073  1.00  0.00    -0.650 OA
BRANCH   9  11
HETATM   11  O3  UNL     1      27.899   2.909  54.032  1.00  0.00    -0.776 OA
HETATM   12  H19 UNL     1      26.918   2.748  54.249  1.00  0.00     0.167 HD
ENDBRANCH   9  11
ENDBRANCH   8   9
ENDBRANCH   7   8
ENDBRANCH   4   7
ENDBRANCH   1   3
BRANCH   1  13
HETATM   13  C5  UNL     1      25.026   2.130  52.277  1.00  0.00     0.147 C 
BRANCH  13  14
HETATM   14  C6  UNL     1      23.729   1.669  51.728  1.00  0.00     0.009 C 
HETATM   15  C7  UNL     1      22.895   0.750  52.190  1.00  0.00     0.024 A 
HETATM   16  C8  UNL     1      21.623   0.049  51.981  1.00  0.00     0.193 A 
HETATM   17  C13 UNL     1      23.098  -0.036  53.415  1.00  0.00    -0.012 A 
HETATM   18  O1  UNL     1      20.843   0.245  51.021  1.00  0.00    -0.287 OA
HETATM   19  C9  UNL     1      21.825  -0.728  53.190  1.00  0.00     0.022 A 
HETATM   20  C10 UNL     1      21.540  -1.630  54.126  1.00  0.00    -0.007 A 
HETATM   21  C11 UNL     1      22.649  -1.627  55.124  1.00  0.00     0.056 A 
HETATM   22  C12 UNL     1      23.557  -0.587  54.556  1.00  0.00    -0.010 A 
ENDBRANCH  13  14
ENDBRANCH   1  13
TORSDOF 8
ENDMDL
MODEL 2
REMARK VINA RESULT:      -7.0      2.044      6.631
REMARK  8 active torsions:
REMARK  status: ('A' for Active; 'I' for Inactive)
REMARK    1  A    between atoms: C2_2  and  C3_3 
REMARK    2  A    between atoms: C3_3  and  C14_16 
REMARK    3  A    between atoms: C4_4  and  N1_5 
REMARK    4  A    between atoms: N1_5  and  C5_6 
REMARK    5  A    between atoms: C5_6  and  C6_7 
REMARK    6  A    between atoms: C14_16  and  C15_17 
REMARK    7  A    between atoms: C15_17  and  C16_18 
REMARK    8  A    between atoms: C16_18  and  O3_20 
ROOT
HETATM    1  N1  UNL     1      24.257   2.306  52.460  1.00  0.00    -0.395 N 
HETATM    2  H7  UNL     1      24.421   3.349  52.441  1.00  0.00     0.159 HD
ENDROOT
BRANCH   1   3
HETATM    3  C4  UNL     1      23.077   1.796  51.869  1.00  0.00     0.086 C 
HETATM    4  C3  UNL     1      22.048   0.986  51.674  1.00  0.00    -0.065 C 
BRANCH   4   5
HETATM    5  C2  UNL     1      20.949   1.027  50.671  1.00  0.00     0.031 C 
HETATM    6  C1  UNL     1      21.501   0.977  49.261  1.00  0.00     0.010 C 
ENDBRANCH   4   5
BRANCH   4   7
HETATM    7  C14 UNL     1      21.886  -0.200  52.535  1.00  0.00     0.046 C 
BRANCH   7   8
HETATM    8  C15 UNL     1      21.704   0.119  54.005  1.00  0.00     0.114 C 
BRANCH   8   9
HETATM    9  C16 UNL     1      21.845  -1.138  54.821  1.00  0.00     0.139 C 
HETATM   10  O2  UNL     1      20.953  -2.043  54.776  1.00  0.00    -0.650 OA
BRANCH   9  11
HETATM   11  O3  UNL     1      22.890  -1.460  55.676  1.00  0.00    -0.776 OA
HETATM   12  H19 UNL     1      23.080  -2.380  56.068  1.00  0.00     0.167 HD
ENDBRANCH   9  11
ENDBRANCH   8   9
ENDBRANCH   7   8
ENDBRANCH   4   7
ENDBRANCH   1   3
BRANCH   1  13
HETATM   13  C5  UNL     1      25.105   1.275  53.040  1.00  0.00     0.147 C 
BRANCH  13  14
HETATM   14  C6  UNL     1      26.369   1.813  53.595  1.00  0.00     0.009 C 
HETATM   15  C7  UNL     1      27.541   1.219  53.758  1.00  0.00     0.024 A 
HETATM   16  C8  UNL     1      28.926   1.369  54.222  1.00  0.00     0.193 A 
HETATM   17  C13 UNL     1      27.841  -0.173  53.393  1.00  0.00    -0.012 A 
HETATM   18  O1  UNL     1      29.411   2.415  54.711  1.00  0.00    -0.287 OA
HETATM   19  C9  UNL     1      29.220  -0.006  53.862  1.00  0.00     0.022 A 
HETATM   20  C10 UNL     1      29.961  -1.103  53.729  1.00  0.00    -0.007 A 
HETATM   21  C11 UNL     1      29.108  -2.166  53.120  1.00  0.00     0.056 A 
HETATM   22  C12 UNL     1      27.808  -1.450  52.965  1.00  0.00    -0.010 A 
ENDBRANCH  13  14
ENDBRANCH   1  13
TORSDOF 8
ENDMDL
MODEL 3
REMARK VINA RESULT:      -7.0      2.545      3.647
REMARK  8 active torsions:
REMARK  status: ('A' for Active; 'I' for Inactive)
REMARK    1  A    between atoms: C2_2  and  C3_3 
REMARK    2  A    between atoms: C3_3  and  C14_16 
REMARK    3  A    between atoms: C4_4  and  N1_5 
REMARK    4  A    between atoms: N1_5  and  C5_6 
REMARK    5  A    between atoms: C5_6  and  C6_7 
REMARK    6  A    between atoms: C14_16  and  C15_17 
REMARK    7  A    between atoms: C15_17  and  C16_18 
REMARK    8  A    between atoms: C16_18  and  O3_20 
ROOT
HETATM    1  N1  UNL     1      24.012   1.716  51.172  1.00  0.00    -0.395 N 
HETATM    2  H7  UNL     1      24.246   1.835  50.149  1.00  0.00     0.159 HD
ENDROOT
BRANCH   1   3
HETATM    3  C4  UNL     1      25.075   1.599  52.099  1.00  0.00     0.086 C 
HETATM    4  C3  UNL     1      26.187   1.133  52.644  1.00  0.00    -0.065 C 
BRANCH   4   5
HETATM    5  C2  UNL     1      26.914   1.537  53.878  1.00  0.00     0.031 C 
HETATM    6  C1  UNL     1      28.187   2.284  53.536  1.00  0.00     0.010 C 
ENDBRANCH   4   5
BRANCH   4   7
HETATM    7  C14 UNL     1      26.891   0.007  52.003  1.00  0.00     0.046 C 
BRANCH   7   8
HETATM    8  C15 UNL     1      26.564  -1.349  52.594  1.00  0.00     0.114 C 
BRANCH   8   9
HETATM    9  C16 UNL     1      27.827  -2.021  53.060  1.00  0.00     0.139 C 
HETATM   10  O2  UNL     1      28.670  -1.393  53.775  1.00  0.00    -0.650 OA
BRANCH   9  11
HETATM   11  O3  UNL     1      28.221  -3.325  52.793  1.00  0.00    -0.776 OA
HETATM   12  H19 UNL     1      27.601  -4.117  52.634  1.00  0.00     0.167 HD
ENDBRANCH   9  11
ENDBRANCH   8   9
ENDBRANCH   7   8
ENDBRANCH   4   7
ENDBRANCH   1   3
BRANCH   1  13
HETATM   13  C5  UNL     1      22.696   1.644  51.789  1.00  0.00     0.147 C 
BRANCH  13  14
HETATM   14  C6  UNL     1      22.626   0.649  52.885  1.00  0.00     0.009 C 
HETATM   15  C7  UNL     1      21.608  -0.096  53.287  1.00  0.00     0.024 A 
HETATM   16  C8  UNL     1      21.149  -1.114  54.238  1.00  0.00     0.193 A 
HETATM   17  C13 UNL     1      20.267  -0.089  52.685  1.00  0.00    -0.012 A 
HETATM   18  O1  UNL     1      21.853  -1.630  55.136  1.00  0.00    -0.287 OA
HETATM   19  C9  UNL     1      19.824  -1.106  53.644  1.00  0.00     0.022 A 
HETATM   20  C10 UNL     1      18.552  -1.462  53.489  1.00  0.00    -0.007 A 
HETATM   21  C11 UNL     1      17.990  -0.682  52.347  1.00  0.00     0.056 A 
HETATM   22  C12 UNL     1      19.168   0.139  51.940  1.00  0.00    -0.010 A 
ENDBRANCH  13  14
ENDBRANCH   1  13
TORSDOF 8
ENDMDL
MODEL 4
REMARK VINA RESULT:      -6.9      4.650      6.957
REMARK  8 active torsions:
REMARK  status: ('A' for Active; 'I' for Inactive)
REMARK    1  A    between atoms: C2_2  and  C3_3 
REMARK    2  A    between atoms: C3_3  and  C14_16 
REMARK    3  A    between atoms: C4_4  and  N1_5 
REMARK    4  A    between atoms: N1_5  and  C5_6 
REMARK    5  A    between atoms: C5_6  and  C6_7 
REMARK    6  A    between atoms: C14_16  and  C15_17 
REMARK    7  A    between atoms: C15_17  and  C16_18 
REMARK    8  A    between atoms: C16_18  and  O3_20 
ROOT
HETATM    1  N1  UNL     1      26.770   3.129  51.154  1.00  0.00    -0.395 N 
HETATM    2  H7  UNL     1      27.401   3.773  51.704  1.00  0.00     0.159 HD
ENDROOT
BRANCH   1   3
HETATM    3  C4  UNL     1      26.169   2.037  51.824  1.00  0.00     0.086 C 
HETATM    4  C3  UNL     1      25.909   1.186  52.804  1.00  0.00    -0.065 C 
BRANCH   4   5
HETATM    5  C2  UNL     1      24.977   0.028  52.871  1.00  0.00     0.031 C 
HETATM    6  C1  UNL     1      23.540   0.495  52.985  1.00  0.00     0.010 C 
ENDBRANCH   4   5
BRANCH   4   7
HETATM    7  C14 UNL     1      26.630   1.313  54.084  1.00  0.00     0.046 C 
BRANCH   7   8
HETATM    8  C15 UNL     1      28.069   0.842  54.037  1.00  0.00     0.114 C 
BRANCH   8   9
HETATM    9  C16 UNL     1      28.995   2.028  54.050  1.00  0.00     0.139 C 
HETATM   10  O2  UNL     1      29.683   2.302  55.083  1.00  0.00    -0.650 OA
BRANCH   9  11
HETATM   11  O3  UNL     1      29.209   2.925  53.012  1.00  0.00    -0.776 OA
HETATM   12  H19 UNL     1      30.103   3.337  52.753  1.00  0.00     0.167 HD
ENDBRANCH   9  11
ENDBRANCH   8   9
ENDBRANCH   7   8
ENDBRANCH   4   7
ENDBRANCH   1   3
BRANCH   1  13
HETATM   13  C5  UNL     1      26.422   3.204  49.743  1.00  0.00     0.147 C 
BRANCH  13  14
HETATM   14  C6  UNL     1      25.863   4.520  49.356  1.00  0.00     0.009 C 
HETATM   15  C7  UNL     1      26.462   5.564  48.804  1.00  0.00     0.024 A 
HETATM   16  C8  UNL     1      26.299   6.932  48.300  1.00  0.00     0.193 A 
HETATM   17  C13 UNL     1      27.884   5.625  48.436  1.00  0.00    -0.012 A 
HETATM   18  O1  UNL     1      25.226   7.578  48.305  1.00  0.00    -0.287 OA
HETATM   19  C9  UNL     1      27.703   6.992  47.940  1.00  0.00     0.022 A 
HETATM   20  C10 UNL     1      28.820   7.533  47.459  1.00  0.00    -0.007 A 
HETATM   21  C11 UNL     1      29.914   6.526  47.589  1.00  0.00     0.056 A 
HETATM   22  C12 UNL     1      29.191   5.381  48.218  1.00  0.00    -0.010 A 
ENDBRANCH  13  14
ENDBRANCH   1  13
TORSDOF 8
ENDMDL
MODEL 5
REMARK VINA RESULT:      -6.9      2.222      3.157
REMARK  8 active torsions:
REMARK  status: ('A' for Active; 'I' for Inactive)
REMARK    1  A    between atoms: C2_2  and  C3_3 
REMARK    2  A    between atoms: C3_3  and  C14_16 
REMARK    3  A    between atoms: C4_4  and  N1_5 
REMARK    4  A    between atoms: N1_5  and  C5_6 
REMARK    5  A    between atoms: C5_6  and  C6_7 
REMARK    6  A    between atoms: C14_16  and  C15_17 
REMARK    7  A    between atoms: C15_17  and  C16_18 
REMARK    8  A    between atoms: C16_18  and  O3_20 
ROOT
HETATM    1  N1  UNL     1      26.248   2.877  50.155  1.00  0.00    -0.395 N 
HETATM    2  H7  UNL     1      26.831   2.696  49.293  1.00  0.00     0.159 HD
ENDROOT
BRANCH   1   3
HETATM    3  C4  UNL     1      26.681   2.337  51.389  1.00  0.00     0.086 C 
HETATM    4  C3  UNL     1      26.983   1.418  52.293  1.00  0.00    -0.065 C 
BRANCH   4   5
HETATM    5  C2  UNL     1      27.494   1.547  53.685  1.00  0.00     0.031 C 
HETATM    6  C1  UNL     1      28.712   2.446  53.732  1.00  0.00     0.010 C 
ENDBRANCH   4   5
BRANCH   4   7
HETATM    7  C14 UNL     1      26.795  -0.008  51.966  1.00  0.00     0.046 C 
BRANCH   7   8
HETATM    8  C15 UNL     1      26.897  -0.938  53.157  1.00  0.00     0.114 C 
BRANCH   8   9
HETATM    9  C16 UNL     1      28.109  -1.819  53.016  1.00  0.00     0.139 C 
HETATM   10  O2  UNL     1      29.279  -1.329  53.102  1.00  0.00    -0.650 OA
BRANCH   9  11
HETATM   11  O3  UNL     1      28.119  -3.187  52.785  1.00  0.00    -0.776 OA
HETATM   12  H19 UNL     1      27.648  -3.892  53.349  1.00  0.00     0.167 HD
ENDBRANCH   9  11
ENDBRANCH   8   9
ENDBRANCH   7   8
ENDBRANCH   4   7
ENDBRANCH   1   3
BRANCH   1  13
HETATM   13  C5  UNL     1      25.006   3.628  50.256  1.00  0.00     0.147 C 
BRANCH  13  14
HETATM   14  C6  UNL     1      23.855   2.923  49.645  1.00  0.00     0.009 C 
HETATM   15  C7  UNL     1      23.032   2.031  50.175  1.00  0.00     0.024 A 
HETATM   16  C8  UNL     1      21.869   1.165  49.947  1.00  0.00     0.193 A 
HETATM   17  C13 UNL     1      23.096   1.539  51.558  1.00  0.00    -0.012 A 
HETATM   18  O1  UNL     1      21.241   1.073  48.867  1.00  0.00    -0.287 OA
HETATM   19  C9  UNL     1      21.935   0.679  51.313  1.00  0.00     0.022 A 
HETATM   20  C10 UNL     1      21.574  -0.039  52.373  1.00  0.00    -0.007 A 
HETATM   21  C11 UNL     1      22.504   0.291  53.493  1.00  0.00     0.056 A 
HETATM   22  C12 UNL     1      23.407   1.287  52.845  1.00  0.00    -0.010 A 
ENDBRANCH  13  14
ENDBRANCH   1  13
TORSDOF 8
ENDMDL
MODEL 6
REMARK VINA RESULT:      -6.8      2.268      6.049
REMARK  8 active torsions:
REMARK  status: ('A' for Active; 'I' for Inactive)
REMARK    1  A    between atoms: C2_2  and  C3_3 
REMARK    2  A    between atoms: C3_3  and  C14_16 
REMARK    3  A    between atoms: C4_4  and  N1_5 
REMARK    4  A    between atoms: N1_5  and  C5_6 
REMARK    5  A    between atoms: C5_6  and  C6_7 
REMARK    6  A    between atoms: C14_16  and  C15_17 
REMARK    7  A    between atoms: C15_17  and  C16_18 
REMARK    8  A    between atoms: C16_18  and  O3_20 
ROOT
HETATM    1  N1  UNL     1      24.025   3.106  51.396  1.00  0.00    -0.395 N 
HETATM    2  H7  UNL     1      23.686   4.085  51.602  1.00  0.00     0.159 HD
ENDROOT
BRANCH   1   3
HETATM    3  C4  UNL     1      23.080   2.052  51.384  1.00  0.00     0.086 C 
HETATM    4  C3  UNL     1      22.300   1.092  51.855  1.00  0.00    -0.065 C 
BRANCH   4   5
HETATM    5  C2  UNL     1      21.358   0.170  51.164  1.00  0.00     0.031 C 
HETATM    6  C1  UNL     1      19.952   0.327  51.706  1.00  0.00     0.010 C 
ENDBRANCH   4   5
BRANCH   4   7
HETATM    7  C14 UNL     1      22.310   0.795  53.300  1.00  0.00     0.046 C 
BRANCH   7   8
HETATM    8  C15 UNL     1      23.025  -0.488  53.667  1.00  0.00     0.114 C 
BRANCH   8   9
HETATM    9  C16 UNL     1      22.271  -1.199  54.758  1.00  0.00     0.139 C 
HETATM   10  O2  UNL     1      22.891  -1.739  55.728  1.00  0.00    -0.650 OA
BRANCH   9  11
HETATM   11  O3  UNL     1      20.895  -1.356  54.850  1.00  0.00    -0.776 OA
HETATM   12  H19 UNL     1      20.329  -2.005  54.308  1.00  0.00     0.167 HD
ENDBRANCH   9  11
ENDBRANCH   8   9
ENDBRANCH   7   8
ENDBRANCH   4   7
ENDBRANCH   1   3
BRANCH   1  13
HETATM   13  C5  UNL     1      25.384   2.667  51.119  1.00  0.00     0.147 C 
BRANCH  13  14
HETATM   14  C6  UNL     1      25.600   1.233  51.422  1.00  0.00     0.009 C 
HETATM   15  C7  UNL     1      26.513   0.659  52.191  1.00  0.00     0.024 A 
HETATM   16  C8  UNL     1      27.035  -0.606  52.720  1.00  0.00     0.193 A 
HETATM   17  C13 UNL     1      27.550   1.374  52.948  1.00  0.00    -0.012 A 
HETATM   18  O1  UNL     1      26.574  -1.741  52.457  1.00  0.00    -0.287 OA
HETATM   19  C9  UNL     1      28.059   0.101  53.466  1.00  0.00     0.022 A 
HETATM   20  C10 UNL     1      29.104   0.240  54.278  1.00  0.00    -0.007 A 
HETATM   21  C11 UNL     1      29.410   1.696  54.393  1.00  0.00     0.056 A 
HETATM   22  C12 UNL     1      28.364   2.290  53.509  1.00  0.00    -0.010 A 
ENDBRANCH  13  14
ENDBRANCH   1  13
TORSDOF 8
ENDMDL
MODEL 7
REMARK VINA RESULT:      -6.8      4.941      7.312
REMARK  8 active torsions:
REMARK  status: ('A' for Active; 'I' for Inactive)
REMARK    1  A    between atoms: C2_2  and  C3_3 
REMARK    2  A    between atoms: C3_3  and  C14_16 
REMARK    3  A    between atoms: C4_4  and  N1_5 
REMARK    4  A    between atoms: N1_5  and  C5_6 
REMARK    5  A    between atoms: C5_6  and  C6_7 
REMARK    6  A    between atoms: C14_16  and  C15_17 
REMARK    7  A    between atoms: C15_17  and  C16_18 
REMARK    8  A    between atoms: C16_18  and  O3_20 
ROOT
HETATM    1  N1  UNL     1      26.761   3.184  51.183  1.00  0.00    -0.395 N 
HETATM    2  H7  UNL     1      27.388   3.798  51.770  1.00  0.00     0.159 HD
ENDROOT
BRANCH   1   3
HETATM    3  C4  UNL     1      26.062   2.129  51.818  1.00  0.00     0.086 C 
HETATM    4  C3  UNL     1      25.810   0.904  52.252  1.00  0.00    -0.065 C 
BRANCH   4   5
HETATM    5  C2  UNL     1      24.655   0.355  53.013  1.00  0.00     0.031 C 
HETATM    6  C1  UNL     1      23.349   0.925  52.499  1.00  0.00     0.010 C 
ENDBRANCH   4   5
BRANCH   4   7
HETATM    7  C14 UNL     1      26.770  -0.178  51.963  1.00  0.00     0.046 C 
BRANCH   7   8
HETATM    8  C15 UNL     1      26.732  -1.324  52.952  1.00  0.00     0.114 C 
BRANCH   8   9
HETATM    9  C16 UNL     1      28.091  -1.964  53.045  1.00  0.00     0.139 C 
HETATM   10  O2  UNL     1      29.123  -1.261  53.281  1.00  0.00    -0.650 OA
BRANCH   9  11
HETATM   11  O3  UNL     1      28.386  -3.312  52.894  1.00  0.00    -0.776 OA
HETATM   12  H19 UNL     1      29.310  -3.707  52.736  1.00  0.00     0.167 HD
ENDBRANCH   9  11
ENDBRANCH   8   9
ENDBRANCH   7   8
ENDBRANCH   4   7
ENDBRANCH   1   3
BRANCH   1  13
HETATM   13  C5  UNL     1      26.509   3.265  49.752  1.00  0.00     0.147 C 
BRANCH  13  14
HETATM   14  C6  UNL     1      25.918   4.560  49.343  1.00  0.00     0.009 C 
HETATM   15  C7  UNL     1      26.491   5.609  48.773  1.00  0.00     0.024 A 
HETATM   16  C8  UNL     1      26.294   6.964  48.246  1.00  0.00     0.193 A 
HETATM   17  C13 UNL     1      27.910   5.698  48.402  1.00  0.00    -0.012 A 
HETATM   18  O1  UNL     1      25.205   7.583  48.241  1.00  0.00    -0.287 OA
HETATM   19  C9  UNL     1      27.696   7.052  47.883  1.00  0.00     0.022 A 
HETATM   20  C10 UNL     1      28.799   7.611  47.392  1.00  0.00    -0.007 A 
HETATM   21  C11 UNL     1      29.917   6.633  47.537  1.00  0.00     0.056 A 
HETATM   22  C12 UNL     1      29.223   5.482  48.186  1.00  0.00    -0.010 A 
ENDBRANCH  13  14
ENDBRANCH   1  13
TORSDOF 8
ENDMDL
MODEL 8
REMARK VINA RESULT:      -6.8      1.835      6.391
REMARK  8 active torsions:
REMARK  status: ('A' for Active; 'I' for Inactive)
REMARK    1  A    between atoms: C2_2  and  C3_3 
REMARK    2  A    between atoms: C3_3  and  C14_16 
REMARK    3  A    between atoms: C4_4  and  N1_5 
REMARK    4  A    between atoms: N1_5  and  C5_6 
REMARK    5  A    between atoms: C5_6  and  C6_7 
REMARK    6  A    between atoms: C14_16  and  C15_17 
REMARK    7  A    between atoms: C15_17  and  C16_18 
REMARK    8  A    between atoms: C16_18  and  O3_20 
ROOT
HETATM    1  N1  UNL     1      24.918   1.957  52.119  1.00  0.00    -0.395 N 
HETATM    2  H7  UNL     1      24.105   2.599  51.912  1.00  0.00     0.159 HD
ENDROOT
BRANCH   1   3
HETATM    3  C4  UNL     1      24.729   0.904  53.045  1.00  0.00     0.086 C 
HETATM    4  C3  UNL     1      24.162  -0.148  53.615  1.00  0.00    -0.065 C 
BRANCH   4   5
HETATM    5  C2  UNL     1      24.553  -0.939  54.813  1.00  0.00     0.031 C 
HETATM    6  C1  UNL     1      25.791  -0.358  55.465  1.00  0.00     0.010 C 
ENDBRANCH   4   5
BRANCH   4   7
HETATM    7  C14 UNL     1      22.913  -0.692  53.051  1.00  0.00     0.046 C 
BRANCH   7   8
HETATM    8  C15 UNL     1      21.652  -0.123  53.667  1.00  0.00     0.114 C 
BRANCH   8   9
HETATM    9  C16 UNL     1      20.824  -1.234  54.255  1.00  0.00     0.139 C 
HETATM   10  O2  UNL     1      21.328  -2.039  55.100  1.00  0.00    -0.650 OA
BRANCH   9  11
HETATM   11  O3  UNL     1      19.494  -1.516  53.975  1.00  0.00    -0.776 OA
HETATM   12  H19 UNL     1      19.083  -2.444  53.901  1.00  0.00     0.167 HD
ENDBRANCH   9  11
ENDBRANCH   8   9
ENDBRANCH   7   8
ENDBRANCH   4   7
ENDBRANCH   1   3
BRANCH   1  13
HETATM   13  C5  UNL     1      26.264   2.010  51.570  1.00  0.00     0.147 C 
BRANCH  13  14
HETATM   14  C6  UNL     1      27.292   2.324  52.590  1.00  0.00     0.009 C 
HETATM   15  C7  UNL     1      28.139   1.519  53.214  1.00  0.00     0.024 A 
HETATM   16  C8  UNL     1      29.222   1.423  54.199  1.00  0.00     0.193 A 
HETATM   17  C13 UNL     1      28.239   0.069  52.998  1.00  0.00    -0.012 A 
HETATM   18  O1  UNL     1      29.695   2.386  54.845  1.00  0.00    -0.287 OA
HETATM   19  C9  UNL     1      29.319  -0.009  53.987  1.00  0.00     0.022 A 
HETATM   20  C10 UNL     1      29.787  -1.242  54.163  1.00  0.00    -0.007 A 
HETATM   21  C11 UNL     1      29.030  -2.158  53.259  1.00  0.00     0.056 A 
HETATM   22  C12 UNL     1      28.093  -1.208  52.591  1.00  0.00    -0.010 A 
ENDBRANCH  13  14
ENDBRANCH   1  13
TORSDOF 8
ENDMDL
MODEL 9
REMARK VINA RESULT:      -6.8      3.928      5.713
REMARK  8 active torsions:
REMARK  status: ('A' for Active; 'I' for Inactive)
REMARK    1  A    between atoms: C2_2  and  C3_3 
REMARK    2  A    between atoms: C3_3  and  C14_16 
REMARK    3  A    between atoms: C4_4  and  N1_5 
REMARK    4  A    between atoms: N1_5  and  C5_6 
REMARK    5  A    between atoms: C5_6  and  C6_7 
REMARK    6  A    between atoms: C14_16  and  C15_17 
REMARK    7  A    between atoms: C15_17  and  C16_18 
REMARK    8  A    between atoms: C16_18  and  O3_20 
ROOT
HETATM    1  N1  UNL     1      26.473   2.741  49.904  1.00  0.00    -0.395 N 
HETATM    2  H7  UNL     1      26.254   1.955  49.234  1.00  0.00     0.159 HD
ENDROOT
BRANCH   1   3
HETATM    3  C4  UNL     1      26.802   4.011  49.373  1.00  0.00     0.086 C 
HETATM    4  C3  UNL     1      26.617   5.230  48.892  1.00  0.00    -0.065 C 
BRANCH   4   5
HETATM    5  C2  UNL     1      27.589   6.253  48.421  1.00  0.00     0.031 C 
HETATM    6  C1  UNL     1      28.955   5.637  48.195  1.00  0.00     0.010 C 
ENDBRANCH   4   5
BRANCH   4   7
HETATM    7  C14 UNL     1      25.244   5.747  48.740  1.00  0.00     0.046 C 
BRANCH   7   8
HETATM    8  C15 UNL     1      24.393   5.630  49.988  1.00  0.00     0.114 C 
BRANCH   8   9
HETATM    9  C16 UNL     1      24.611   6.829  50.869  1.00  0.00     0.139 C 
HETATM   10  O2  UNL     1      24.912   7.957  50.366  1.00  0.00    -0.650 OA
BRANCH   9  11
HETATM   11  O3  UNL     1      24.522   6.869  52.254  1.00  0.00    -0.776 OA
HETATM   12  H19 UNL     1      25.143   6.396  52.907  1.00  0.00     0.167 HD
ENDBRANCH   9  11
ENDBRANCH   8   9
ENDBRANCH   7   8
ENDBRANCH   4   7
ENDBRANCH   1   3
BRANCH   1  13
HETATM   13  C5  UNL     1      26.495   2.699  51.359  1.00  0.00     0.147 C 
BRANCH  13  14
HETATM   14  C6  UNL     1      26.742   1.340  51.893  1.00  0.00     0.009 C 
HETATM   15  C7  UNL     1      25.911   0.508  52.503  1.00  0.00     0.024 A 
HETATM   16  C8  UNL     1      25.755  -0.809  53.132  1.00  0.00     0.193 A 
HETATM   17  C13 UNL     1      24.494   0.780  52.780  1.00  0.00    -0.012 A 
HETATM   18  O1  UNL     1      26.665  -1.660  53.256  1.00  0.00    -0.287 OA
HETATM   19  C9  UNL     1      24.356  -0.538  53.407  1.00  0.00     0.022 A 
HETATM   20  C10 UNL     1      23.130  -0.781  53.863  1.00  0.00    -0.007 A 
HETATM   21  C11 UNL     1      22.281   0.410  53.566  1.00  0.00     0.056 A 
HETATM   22  C12 UNL     1      23.260   1.312  52.891  1.00  0.00    -0.010 A 
ENDBRANCH  13  14
ENDBRANCH   1  13
TORSDOF 8
ENDMDL
