MODEL 1
REMARK VINA RESULT:      -9.1      0.000      0.000
REMARK  1 active torsions:
REMARK  status: ('A' for Active; 'I' for Inactive)
REMARK    1  A    between atoms: C4_5  and  N1_6 
ROOT
HETATM    1  N1  UNL     1      25.321   0.316  52.650  1.00  0.00    -0.256 N 
HETATM    2  N2  UNL     1      24.101  -0.119  53.203  1.00  0.00    -0.287 N 
HETATM    3  C5  UNL     1      22.943   0.708  53.150  1.00  0.00     0.226 A 
HETATM    4  N3  UNL     1      22.960   1.884  52.598  1.00  0.00    -0.216 NA
HETATM    5  C6  UNL     1      24.194   2.313  52.043  1.00  0.00     0.197 A 
HETATM    6  C7  UNL     1      25.321   1.614  52.046  1.00  0.00     0.104 A 
HETATM    7  C8  UNL     1      26.677   1.873  51.535  1.00  0.00     0.178 C 
HETATM    8  N4  UNL     1      26.948   3.156  51.036  1.00  0.00    -0.406 N 
HETATM    9  C9  UNL     1      26.143   3.654  49.979  1.00  0.00     0.139 A 
HETATM   10  C10 UNL     1      26.878   4.615  49.098  1.00  0.00     0.078 A 
HETATM   11  C11 UNL     1      26.271   5.963  49.046  1.00  0.00    -0.009 A 
HETATM   12 BR1  UNL     1      27.272   7.128  47.899  1.00  0.00    -0.056 Br
HETATM   13  C12 UNL     1      25.201   6.454  49.640  1.00  0.00     0.017 A 
HETATM   14  C13 UNL     1      24.490   5.512  50.496  1.00  0.00     0.036 A 
HETATM   15  C14 UNL     1      24.949   4.277  50.614  1.00  0.00     0.078 A 
HETATM   16  O1  UNL     1      24.105   3.583  51.476  1.00  0.00    -0.292 OA
HETATM   17  H3  UNL     1      23.979  -1.046  53.670  1.00  0.00     0.188 HD
HETATM   18  H7  UNL     1      27.801   3.642  51.279  1.00  0.00     0.154 HD
ENDROOT
BRANCH   1  19
HETATM   19  C4  UNL     1      26.432  -0.573  52.745  1.00  0.00     0.059 A 
HETATM   20  C3  UNL     1      26.714  -1.765  52.299  1.00  0.00     0.032 A 
HETATM   21  C2  UNL     1      28.036  -2.101  52.763  1.00  0.00     0.042 A 
HETATM   22  C1  UNL     1      28.576  -1.138  53.488  1.00  0.00     0.118 A 
HETATM   23  F1  UNL     1      29.760  -1.010  54.112  1.00  0.00    -0.209 F 
HETATM   24  C15 UNL     1      27.576  -0.047  53.544  1.00  0.00     0.196 A 
HETATM   25 CL1  UNL     1      27.107   0.176  55.244  1.00  0.00    -0.111 Cl
ENDBRANCH   1  19
TORSDOF 1
ENDMDL
MODEL 2
REMARK VINA RESULT:      -8.7      1.908      2.346
REMARK  1 active torsions:
REMARK  status: ('A' for Active; 'I' for Inactive)
REMARK    1  A    between atoms: C4_5  and  N1_6 
ROOT
HETATM    1  N1  UNL     1      24.445   0.205  53.056  1.00  0.00    -0.256 N 
HETATM    2  N2  UNL     1      23.511  -0.820  53.306  1.00  0.00    -0.287 N 
HETATM    3  C5  UNL     1      22.113  -0.569  53.202  1.00  0.00     0.226 A 
HETATM    4  N3  UNL     1      21.643   0.598  52.876  1.00  0.00    -0.216 NA
HETATM    5  C6  UNL     1      22.593   1.623  52.626  1.00  0.00     0.197 A 
HETATM    6  C7  UNL     1      23.910   1.484  52.700  1.00  0.00     0.104 A 
HETATM    7  C8  UNL     1      25.041   2.401  52.484  1.00  0.00     0.178 C 
HETATM    8  N4  UNL     1      24.745   3.755  52.272  1.00  0.00    -0.406 N 
HETATM    9  C9  UNL     1      23.886   4.101  51.197  1.00  0.00     0.139 A 
HETATM   10  C10 UNL     1      24.178   5.459  50.639  1.00  0.00     0.078 A 
HETATM   11  C11 UNL     1      23.037   6.397  50.721  1.00  0.00    -0.009 A 
HETATM   12 BR1  UNL     1      23.495   8.107  49.987  1.00  0.00    -0.056 Br
HETATM   13  C12 UNL     1      21.819   6.238  51.200  1.00  0.00     0.017 A 
HETATM   14  C13 UNL     1      21.542   4.913  51.742  1.00  0.00     0.036 A 
HETATM   15  C14 UNL     1      22.495   3.996  51.718  1.00  0.00     0.078 A 
HETATM   16  O1  UNL     1      21.988   2.831  52.286  1.00  0.00    -0.292 OA
HETATM   17  H3  UNL     1      23.782  -1.792  53.575  1.00  0.00     0.188 HD
HETATM   18  H7  UNL     1      25.269   4.484  52.740  1.00  0.00     0.154 HD
ENDROOT
BRANCH   1  19
HETATM   19  C4  UNL     1      25.825  -0.129  53.184  1.00  0.00     0.059 A 
HETATM   20  C3  UNL     1      26.708  -0.744  52.447  1.00  0.00     0.032 A 
HETATM   21  C2  UNL     1      27.954  -0.745  53.171  1.00  0.00     0.042 A 
HETATM   22  C1  UNL     1      27.857  -0.143  54.342  1.00  0.00     0.118 A 
HETATM   23  F1  UNL     1      28.736   0.092  55.333  1.00  0.00    -0.209 F 
HETATM   24  C15 UNL     1      26.454   0.317  54.460  1.00  0.00     0.196 A 
HETATM   25 CL1  UNL     1      25.720  -0.518  55.848  1.00  0.00    -0.111 Cl
ENDBRANCH   1  19
TORSDOF 1
ENDMDL
MODEL 3
REMARK VINA RESULT:      -8.5      3.736      4.503
REMARK  1 active torsions:
REMARK  status: ('A' for Active; 'I' for Inactive)
REMARK    1  A    between atoms: C4_5  and  N1_6 
ROOT
HETATM    1  N1  UNL     1      25.071  -0.348  54.303  1.00  0.00    -0.256 N 
HETATM    2  N2  UNL     1      24.860  -1.214  55.393  1.00  0.00    -0.287 N 
HETATM    3  C5  UNL     1      23.544  -1.632  55.744  1.00  0.00     0.226 A 
HETATM    4  N3  UNL     1      22.496  -1.239  55.085  1.00  0.00    -0.216 NA
HETATM    5  C6  UNL     1      22.720  -0.366  53.988  1.00  0.00     0.197 A 
HETATM    6  C7  UNL     1      23.906   0.076  53.589  1.00  0.00     0.104 A 
HETATM    7  C8  UNL     1      24.343   0.966  52.501  1.00  0.00     0.178 C 
HETATM    8  N4  UNL     1      23.348   1.623  51.762  1.00  0.00    -0.406 N 
HETATM    9  C9  UNL     1      22.359   0.840  51.111  1.00  0.00     0.139 A 
HETATM   10  C10 UNL     1      21.829   1.491  49.873  1.00  0.00     0.078 A 
HETATM   11  C11 UNL     1      20.373   1.748  49.909  1.00  0.00    -0.009 A 
HETATM   12 BR1  UNL     1      19.778   2.582  48.289  1.00  0.00    -0.056 Br
HETATM   13  C12 UNL     1      19.473   1.501  50.841  1.00  0.00     0.017 A 
HETATM   14  C13 UNL     1      19.997   0.866  52.045  1.00  0.00     0.036 A 
HETATM   15  C14 UNL     1      21.289   0.592  52.117  1.00  0.00     0.078 A 
HETATM   16  O1  UNL     1      21.535  -0.005  53.350  1.00  0.00    -0.292 OA
HETATM   17  H3  UNL     1      25.632  -1.589  55.989  1.00  0.00     0.188 HD
HETATM   18  H7  UNL     1      23.431   2.605  51.532  1.00  0.00     0.154 HD
ENDROOT
BRANCH   1  19
HETATM   19  C4  UNL     1      26.419   0.022  54.019  1.00  0.00     0.059 A 
HETATM   20  C3  UNL     1      27.104   1.132  54.031  1.00  0.00     0.032 A 
HETATM   21  C2  UNL     1      28.452   0.814  53.632  1.00  0.00     0.042 A 
HETATM   22  C1  UNL     1      28.612  -0.471  53.373  1.00  0.00     0.118 A 
HETATM   23  F1  UNL     1      29.666  -1.206  52.978  1.00  0.00    -0.209 F 
HETATM   24  C15 UNL     1      27.295  -1.110  53.603  1.00  0.00     0.196 A 
HETATM   25 CL1  UNL     1      26.745  -1.796  52.057  1.00  0.00    -0.111 Cl
ENDBRANCH   1  19
TORSDOF 1
ENDMDL
MODEL 4
REMARK VINA RESULT:      -8.5      4.140      6.284
REMARK  1 active torsions:
REMARK  status: ('A' for Active; 'I' for Inactive)
REMARK    1  A    between atoms: C4_5  and  N1_6 
ROOT
HETATM    1  N1  UNL     1      24.440   1.946  53.123  1.00  0.00    -0.256 N 
HETATM    2  N2  UNL     1      24.598   3.313  52.821  1.00  0.00    -0.287 N 
HETATM    3  C5  UNL     1      23.496   4.086  52.357  1.00  0.00     0.226 A 
HETATM    4  N3  UNL     1      22.313   3.574  52.194  1.00  0.00    -0.216 NA
HETATM    5  C6  UNL     1      22.164   2.196  52.501  1.00  0.00     0.197 A 
HETATM    6  C7  UNL     1      23.130   1.398  52.937  1.00  0.00     0.104 A 
HETATM    7  C8  UNL     1      23.181  -0.026  53.304  1.00  0.00     0.178 C 
HETATM    8  N4  UNL     1      22.040  -0.801  53.054  1.00  0.00    -0.406 N 
HETATM    9  C9  UNL     1      20.808  -0.400  53.632  1.00  0.00     0.139 A 
HETATM   10  C10 UNL     1      19.893  -1.553  53.901  1.00  0.00     0.078 A 
HETATM   11  C11 UNL     1      18.599  -1.469  53.189  1.00  0.00    -0.009 A 
HETATM   12 BR1  UNL     1      17.492  -2.982  53.588  1.00  0.00    -0.056 Br
HETATM   13  C12 UNL     1      18.123  -0.557  52.365  1.00  0.00     0.017 A 
HETATM   14  C13 UNL     1      19.019   0.564  52.108  1.00  0.00     0.036 A 
HETATM   15  C14 UNL     1      20.204   0.588  52.695  1.00  0.00     0.078 A 
HETATM   16  O1  UNL     1      20.862   1.747  52.293  1.00  0.00    -0.292 OA
HETATM   17  H3  UNL     1      25.505   3.822  52.917  1.00  0.00     0.188 HD
HETATM   18  H7  UNL     1      22.114  -1.720  52.637  1.00  0.00     0.154 HD
ENDROOT
BRANCH   1  19
HETATM   19  C4  UNL     1      25.593   1.244  53.581  1.00  0.00     0.059 A 
HETATM   20  C3  UNL     1      26.228   1.132  54.714  1.00  0.00     0.032 A 
HETATM   21  C2  UNL     1      27.344   0.246  54.501  1.00  0.00     0.042 A 
HETATM   22  C1  UNL     1      27.411  -0.190  53.257  1.00  0.00     0.118 A 
HETATM   23  F1  UNL     1      28.259  -1.012  52.614  1.00  0.00    -0.209 F 
HETATM   24  C15 UNL     1      26.271   0.422  52.538  1.00  0.00     0.196 A 
HETATM   25 CL1  UNL     1      26.929   1.458  51.251  1.00  0.00    -0.111 Cl
ENDBRANCH   1  19
TORSDOF 1
ENDMDL
MODEL 5
REMARK VINA RESULT:      -8.1      4.581      7.410
REMARK  1 active torsions:
REMARK  status: ('A' for Active; 'I' for Inactive)
REMARK    1  A    between atoms: C4_5  and  N1_6 
ROOT
HETATM    1  N1  UNL     1      24.716   3.232  51.698  1.00  0.00    -0.256 N 
HETATM    2  N2  UNL     1      26.100   2.994  51.815  1.00  0.00    -0.287 N 
HETATM    3  C5  UNL     1      26.582   1.822  52.465  1.00  0.00     0.226 A 
HETATM    4  N3  UNL     1      25.781   0.933  52.970  1.00  0.00    -0.216 NA
HETATM    5  C6  UNL     1      24.388   1.182  52.846  1.00  0.00     0.197 A 
HETATM    6  C7  UNL     1      23.848   2.243  52.261  1.00  0.00     0.104 A 
HETATM    7  C8  UNL     1      22.461   2.679  52.033  1.00  0.00     0.178 C 
HETATM    8  N4  UNL     1      21.439   1.933  52.638  1.00  0.00    -0.406 N 
HETATM    9  C9  UNL     1      21.354   0.545  52.352  1.00  0.00     0.139 A 
HETATM   10  C10 UNL     1      19.954   0.023  52.436  1.00  0.00     0.078 A 
HETATM   11  C11 UNL     1      19.774  -1.048  53.440  1.00  0.00    -0.009 A 
HETATM   12 BR1  UNL     1      17.958  -1.658  53.483  1.00  0.00    -0.056 Br
HETATM   13  C12 UNL     1      20.634  -1.615  54.264  1.00  0.00     0.017 A 
HETATM   14  C13 UNL     1      21.996  -1.102  54.177  1.00  0.00     0.036 A 
HETATM   15  C14 UNL     1      22.266  -0.140  53.310  1.00  0.00     0.078 A 
HETATM   16  O1  UNL     1      23.618   0.172  53.418  1.00  0.00    -0.292 OA
HETATM   17  H3  UNL     1      26.829   3.643  51.445  1.00  0.00     0.188 HD
HETATM   18  H7  UNL     1      20.669   2.388  53.110  1.00  0.00     0.154 HD
ENDROOT
BRANCH   1  19
HETATM   19  C4  UNL     1      24.317   4.429  51.034  1.00  0.00     0.059 A 
HETATM   20  C3  UNL     1      23.795   5.567  51.397  1.00  0.00     0.032 A 
HETATM   21  C2  UNL     1      23.635   6.370  50.212  1.00  0.00     0.042 A 
HETATM   22  C1  UNL     1      24.049   5.749  49.122  1.00  0.00     0.118 A 
HETATM   23  F1  UNL     1      24.093   6.097  47.824  1.00  0.00    -0.209 F 
HETATM   24  C15 UNL     1      24.534   4.420  49.559  1.00  0.00     0.196 A 
HETATM   25 CL1  UNL     1      23.518   3.185  48.782  1.00  0.00    -0.111 Cl
ENDBRANCH   1  19
TORSDOF 1
ENDMDL
MODEL 6
REMARK VINA RESULT:      -8.0      6.539      9.530
REMARK  1 active torsions:
REMARK  status: ('A' for Active; 'I' for Inactive)
REMARK    1  A    between atoms: C4_5  and  N1_6 
ROOT
HETATM    1  N1  UNL     1      30.600   8.035  48.170  1.00  0.00    -0.256 N 
HETATM    2  N2  UNL     1      31.799   7.417  47.763  1.00  0.00    -0.287 N 
HETATM    3  C5  UNL     1      31.890   5.999  47.667  1.00  0.00     0.226 A 
HETATM    4  N3  UNL     1      30.886   5.223  47.947  1.00  0.00    -0.216 NA
HETATM    5  C6  UNL     1      29.682   5.856  48.355  1.00  0.00     0.197 A 
HETATM    6  C7  UNL     1      29.505   7.165  48.474  1.00  0.00     0.104 A 
HETATM    7  C8  UNL     1      28.362   8.002  48.874  1.00  0.00     0.178 C 
HETATM    8  N4  UNL     1      27.222   7.350  49.364  1.00  0.00    -0.406 N 
HETATM    9  C9  UNL     1      26.592   6.378  48.544  1.00  0.00     0.139 A 
HETATM   10  C10 UNL     1      25.121   6.273  48.797  1.00  0.00     0.078 A 
HETATM   11  C11 UNL     1      24.684   4.932  49.241  1.00  0.00    -0.009 A 
HETATM   12 BR1  UNL     1      22.792   4.886  49.543  1.00  0.00    -0.056 Br
HETATM   13  C12 UNL     1      25.368   3.824  49.447  1.00  0.00     0.017 A 
HETATM   14  C13 UNL     1      26.800   3.932  49.198  1.00  0.00     0.036 A 
HETATM   15  C14 UNL     1      27.297   5.091  48.797  1.00  0.00     0.078 A 
HETATM   16  O1  UNL     1      28.670   4.938  48.630  1.00  0.00    -0.292 OA
HETATM   17  H3  UNL     1      32.665   7.948  47.516  1.00  0.00     0.188 HD
HETATM   18  H7  UNL     1      26.742   7.686  50.189  1.00  0.00     0.154 HD
ENDROOT
BRANCH   1  19
HETATM   19  C4  UNL     1      30.594   9.459  48.240  1.00  0.00     0.059 A 
HETATM   20  C3  UNL     1      30.531  10.346  49.194  1.00  0.00     0.032 A 
HETATM   21  C2  UNL     1      30.571  11.648  48.579  1.00  0.00     0.042 A 
HETATM   22  C1  UNL     1      30.657  11.583  47.263  1.00  0.00     0.118 A 
HETATM   23  F1  UNL     1      30.721  12.516  46.297  1.00  0.00    -0.209 F 
HETATM   24  C15 UNL     1      30.681  10.143  46.918  1.00  0.00     0.196 A 
HETATM   25 CL1  UNL     1      29.242   9.794  45.934  1.00  0.00    -0.111 Cl
ENDBRANCH   1  19
TORSDOF 1
ENDMDL
MODEL 7
REMARK VINA RESULT:      -8.0      4.694      7.752
REMARK  1 active torsions:
REMARK  status: ('A' for Active; 'I' for Inactive)
REMARK    1  A    between atoms: C4_5  and  N1_6 
ROOT
HETATM    1  N1  UNL     1      25.062   5.332  49.904  1.00  0.00    -0.256 N 
HETATM    2  N2  UNL     1      26.188   5.458  49.068  1.00  0.00    -0.287 N 
HETATM    3  C5  UNL     1      27.172   4.430  49.014  1.00  0.00     0.226 A 
HETATM    4  N3  UNL     1      27.076   3.345  49.724  1.00  0.00    -0.216 NA
HETATM    5  C6  UNL     1      25.937   3.228  50.563  1.00  0.00     0.197 A 
HETATM    6  C7  UNL     1      24.973   4.131  50.678  1.00  0.00     0.104 A 
HETATM    7  C8  UNL     1      23.736   4.199  51.474  1.00  0.00     0.178 C 
HETATM    8  N4  UNL     1      23.522   3.192  52.425  1.00  0.00    -0.406 N 
HETATM    9  C9  UNL     1      23.509   1.841  51.991  1.00  0.00     0.139 A 
HETATM   10  C10 UNL     1      22.635   0.969  52.837  1.00  0.00     0.078 A 
HETATM   11  C11 UNL     1      23.354  -0.147  53.489  1.00  0.00    -0.009 A 
HETATM   12 BR1  UNL     1      22.165  -1.209  54.551  1.00  0.00    -0.056 Br
HETATM   13  C12 UNL     1      24.625  -0.499  53.448  1.00  0.00     0.017 A 
HETATM   14  C13 UNL     1      25.470   0.354  52.621  1.00  0.00     0.036 A 
HETATM   15  C14 UNL     1      24.927   1.384  51.993  1.00  0.00     0.078 A 
HETATM   16  O1  UNL     1      25.929   2.032  51.278  1.00  0.00    -0.292 OA
HETATM   17  H3  UNL     1      26.362   6.288  48.457  1.00  0.00     0.188 HD
HETATM   18  H7  UNL     1      23.196   3.414  53.357  1.00  0.00     0.154 HD
ENDROOT
BRANCH   1  19
HETATM   19  C4  UNL     1      24.125   6.407  49.899  1.00  0.00     0.059 A 
HETATM   20  C3  UNL     1      23.732   7.306  50.757  1.00  0.00     0.032 A 
HETATM   21  C2  UNL     1      22.734   8.118  50.109  1.00  0.00     0.042 A 
HETATM   22  C1  UNL     1      22.502   7.737  48.866  1.00  0.00     0.118 A 
HETATM   23  F1  UNL     1      21.678   8.187  47.904  1.00  0.00    -0.209 F 
HETATM   24  C15 UNL     1      23.392   6.581  48.612  1.00  0.00     0.196 A 
HETATM   25 CL1  UNL     1      22.367   5.167  48.276  1.00  0.00    -0.111 Cl
ENDBRANCH   1  19
TORSDOF 1
ENDMDL
MODEL 8
REMARK VINA RESULT:      -7.9      4.227      5.142
REMARK  1 active torsions:
REMARK  status: ('A' for Active; 'I' for Inactive)
REMARK    1  A    between atoms: C4_5  and  N1_6 
ROOT
HETATM    1  N1  UNL     1      22.679   4.397  51.008  1.00  0.00    -0.256 N 
HETATM    2  N2  UNL     1      21.499   5.166  51.034  1.00  0.00    -0.287 N 
HETATM    3  C5  UNL     1      21.503   6.518  50.587  1.00  0.00     0.226 A 
HETATM    4  N3  UNL     1      22.579   7.094  50.141  1.00  0.00    -0.216 NA
HETATM    5  C6  UNL     1      23.763   6.310  50.119  1.00  0.00     0.197 A 
HETATM    6  C7  UNL     1      23.854   5.048  50.515  1.00  0.00     0.104 A 
HETATM    7  C8  UNL     1      24.962   4.080  50.571  1.00  0.00     0.178 C 
HETATM    8  N4  UNL     1      26.250   4.551  50.277  1.00  0.00    -0.406 N 
HETATM    9  C9  UNL     1      26.473   5.170  49.019  1.00  0.00     0.139 A 
HETATM   10  C10 UNL     1      27.878   4.998  48.532  1.00  0.00     0.078 A 
HETATM   11  C11 UNL     1      28.598   6.272  48.321  1.00  0.00    -0.009 A 
HETATM   12 BR1  UNL     1      30.384   5.961  47.700  1.00  0.00    -0.056 Br
HETATM   13  C12 UNL     1      28.213   7.522  48.488  1.00  0.00     0.017 A 
HETATM   14  C13 UNL     1      26.843   7.682  48.962  1.00  0.00     0.036 A 
HETATM   15  C14 UNL     1      26.109   6.605  49.184  1.00  0.00     0.078 A 
HETATM   16  O1  UNL     1      24.856   7.019  49.625  1.00  0.00    -0.292 OA
HETATM   17  H3  UNL     1      20.581   4.800  51.373  1.00  0.00     0.188 HD
HETATM   18  H7  UNL     1      27.044   4.295  50.850  1.00  0.00     0.154 HD
ENDROOT
BRANCH   1  19
HETATM   19  C4  UNL     1      22.588   3.052  51.474  1.00  0.00     0.059 A 
HETATM   20  C3  UNL     1      23.037   2.389  52.503  1.00  0.00     0.032 A 
HETATM   21  C2  UNL     1      22.576   1.030  52.379  1.00  0.00     0.042 A 
HETATM   22  C1  UNL     1      21.852   0.840  51.291  1.00  0.00     0.118 A 
HETATM   23  F1  UNL     1      21.230  -0.234  50.775  1.00  0.00    -0.209 F 
HETATM   24  C15 UNL     1      21.792   2.147  50.597  1.00  0.00     0.196 A 
HETATM   25 CL1  UNL     1      22.573   1.959  49.011  1.00  0.00    -0.111 Cl
ENDBRANCH   1  19
TORSDOF 1
ENDMDL
MODEL 9
REMARK VINA RESULT:      -7.6      4.948      7.589
REMARK  1 active torsions:
REMARK  status: ('A' for Active; 'I' for Inactive)
REMARK    1  A    between atoms: C4_5  and  N1_6 
ROOT
HETATM    1  N1  UNL     1      23.423   2.054  52.614  1.00  0.00    -0.256 N 
HETATM    2  N2  UNL     1      24.572   1.349  53.024  1.00  0.00    -0.287 N 
HETATM    3  C5  UNL     1      24.467   0.025  53.537  1.00  0.00     0.226 A 
HETATM    4  N3  UNL     1      23.324  -0.583  53.650  1.00  0.00    -0.216 NA
HETATM    5  C6  UNL     1      22.173   0.136  53.234  1.00  0.00     0.197 A 
HETATM    6  C7  UNL     1      22.173   1.369  52.745  1.00  0.00     0.104 A 
HETATM    7  C8  UNL     1      21.113   2.271  52.267  1.00  0.00     0.178 C 
HETATM    8  N4  UNL     1      19.784   1.862  52.447  1.00  0.00    -0.406 N 
HETATM    9  C9  UNL     1      19.376   0.621  51.891  1.00  0.00     0.139 A 
HETATM   10  C10 UNL     1      17.926   0.601  51.524  1.00  0.00     0.078 A 
HETATM   11  C11 UNL     1      17.145  -0.438  52.229  1.00  0.00    -0.009 A 
HETATM   12 BR1  UNL     1      15.303  -0.395  51.703  1.00  0.00    -0.056 Br
HETATM   13  C12 UNL     1      17.510  -1.341  53.118  1.00  0.00     0.017 A 
HETATM   14  C13 UNL     1      18.925  -1.316  53.471  1.00  0.00     0.036 A 
HETATM   15  C14 UNL     1      19.715  -0.424  52.897  1.00  0.00     0.078 A 
HETATM   16  O1  UNL     1      21.002  -0.603  53.394  1.00  0.00    -0.292 OA
HETATM   17  H3  UNL     1      25.537   1.745  52.976  1.00  0.00     0.188 HD
HETATM   18  H7  UNL     1      19.081   2.504  52.791  1.00  0.00     0.154 HD
ENDROOT
BRANCH   1  19
HETATM   19  C4  UNL     1      23.616   3.374  52.112  1.00  0.00     0.059 A 
HETATM   20  C3  UNL     1      23.327   4.579  52.520  1.00  0.00     0.032 A 
HETATM   21  C2  UNL     1      23.810   5.502  51.524  1.00  0.00     0.042 A 
HETATM   22  C1  UNL     1      24.390   4.890  50.508  1.00  0.00     0.118 A 
HETATM   23  F1  UNL     1      24.972   5.331  49.378  1.00  0.00    -0.209 F 
HETATM   24  C15 UNL     1      24.318   3.440  50.798  1.00  0.00     0.196 A 
HETATM   25 CL1  UNL     1      23.340   2.676  49.524  1.00  0.00    -0.111 Cl
ENDBRANCH   1  19
TORSDOF 1
ENDMDL
