MODEL 1
REMARK VINA RESULT:      -8.1      0.000      0.000
REMARK  6 active torsions:
REMARK  status: ('A' for Active; 'I' for Inactive)
REMARK    1  A    between atoms: O1_2  and  C2_3 
REMARK    2  A    between atoms: C2_3  and  C3_4 
REMARK    3  A    between atoms: C3_4  and  C4_5 
REMARK    4  A    between atoms: C7_10  and  O2_11 
REMARK    5  A    between atoms: O2_11  and  C8_12 
REMARK    6  A    between atoms: N4_20  and  C14_21 
ROOT
HETATM    1  C8  UNL     1      26.175   1.849  51.854  1.00  0.00     0.073 C 
HETATM    2  C9  UNL     1      25.048   1.114  52.156  1.00  0.00     0.034 C 
HETATM    3  C10 UNL     1      24.246   0.192  53.035  1.00  0.00     0.000 C 
HETATM    4  C11 UNL     1      24.062  -0.589  54.134  1.00  0.00    -0.007 C 
HETATM    5  C12 UNL     1      24.963  -1.009  55.393  1.00  0.00     0.151 C 
HETATM    6  N3  UNL     1      26.248  -0.691  54.735  1.00  0.00    -0.339 N 
HETATM    7  C13 UNL     1      26.526   0.591  54.302  1.00  0.00     0.323 C 
HETATM    8  O3  UNL     1      25.965   1.591  54.493  1.00  0.00    -0.247 OA
HETATM    9  N4  UNL     1      27.597   0.797  53.439  1.00  0.00    -0.300 N 
HETATM   10  C18 UNL     1      27.534   2.037  52.616  1.00  0.00     0.198 C 
HETATM   11  H13 UNL     1      26.951  -1.387  54.593  1.00  0.00     0.164 HD
ENDROOT
BRANCH   1  12
HETATM   12  O2  UNL     1      26.178   2.560  50.689  1.00  0.00    -0.294 OA
BRANCH  12  13
HETATM   13  C7  UNL     1      25.522   3.778  50.621  1.00  0.00     0.182 A 
HETATM   14  C4  UNL     1      26.024   4.701  49.733  1.00  0.00     0.036 A 
HETATM   15  C5  UNL     1      25.373   5.892  49.677  1.00  0.00     0.134 A 
HETATM   16  N1  UNL     1      24.303   6.217  50.412  1.00  0.00    -0.253 NA
HETATM   17  C6  UNL     1      23.835   5.290  51.274  1.00  0.00     0.235 A 
HETATM   18  N2  UNL     1      24.445   4.103  51.363  1.00  0.00    -0.217 NA
BRANCH  14  19
HETATM   19  C3  UNL     1      27.173   4.311  48.956  1.00  0.00     0.041 C 
BRANCH  19  20
HETATM   20  C2  UNL     1      28.099   5.112  48.509  1.00  0.00     0.135 C 
BRANCH  20  21
HETATM   21  O1  UNL     1      28.933   6.023  47.924  1.00  0.00    -0.368 OA
HETATM   22  C1  UNL     1      30.353   5.933  48.037  1.00  0.00     0.208 C 
ENDBRANCH  20  21
ENDBRANCH  19  20
ENDBRANCH  14  19
ENDBRANCH  12  13
ENDBRANCH   1  12
BRANCH   9  23
HETATM   23  C14 UNL     1      28.546  -0.194  53.307  1.00  0.00     0.012 A 
HETATM   24  C15 UNL     1      28.934  -1.402  53.118  1.00  0.00     0.033 A 
HETATM   25  C16 UNL     1      29.891  -1.196  53.986  1.00  0.00     0.005 A 
HETATM   26  C17 UNL     1      29.963   0.023  53.455  1.00  0.00     0.060 A 
ENDBRANCH   9  23
TORSDOF 6
ENDMDL
MODEL 2
REMARK VINA RESULT:      -7.9      2.311      7.221
REMARK  6 active torsions:
REMARK  status: ('A' for Active; 'I' for Inactive)
REMARK    1  A    between atoms: O1_2  and  C2_3 
REMARK    2  A    between atoms: C2_3  and  C3_4 
REMARK    3  A    between atoms: C3_4  and  C4_5 
REMARK    4  A    between atoms: C7_10  and  O2_11 
REMARK    5  A    between atoms: O2_11  and  C8_12 
REMARK    6  A    between atoms: N4_20  and  C14_21 
ROOT
HETATM    1  C8  UNL     1      25.825   2.055  51.009  1.00  0.00     0.073 C 
HETATM    2  C9  UNL     1      26.443   3.038  50.265  1.00  0.00     0.034 C 
HETATM    3  C10 UNL     1      26.442   4.320  49.475  1.00  0.00     0.000 C 
HETATM    4  C11 UNL     1      25.842   5.404  48.914  1.00  0.00    -0.007 C 
HETATM    5  C12 UNL     1      24.335   5.946  48.818  1.00  0.00     0.151 C 
HETATM    6  N3  UNL     1      23.715   4.633  49.097  1.00  0.00    -0.339 N 
HETATM    7  C13 UNL     1      23.955   3.973  50.287  1.00  0.00     0.323 C 
HETATM    8  O3  UNL     1      24.478   4.336  51.259  1.00  0.00    -0.247 OA
HETATM    9  N4  UNL     1      23.603   2.633  50.400  1.00  0.00    -0.300 N 
HETATM   10  C18 UNL     1      24.330   1.861  51.446  1.00  0.00     0.198 C 
HETATM   11  H13 UNL     1      23.103   4.193  48.442  1.00  0.00     0.164 HD
ENDROOT
BRANCH   1  12
HETATM   12  O2  UNL     1      26.597   1.031  51.476  1.00  0.00    -0.294 OA
BRANCH  12  13
HETATM   13  C7  UNL     1      27.367   1.209  52.614  1.00  0.00     0.182 A 
HETATM   14  C4  UNL     1      27.167   0.315  53.640  1.00  0.00     0.036 A 
HETATM   15  C5  UNL     1      27.927   0.501  54.751  1.00  0.00     0.134 A 
HETATM   16  N1  UNL     1      28.834   1.472  54.906  1.00  0.00    -0.253 NA
HETATM   17  C6  UNL     1      29.007   2.333  53.880  1.00  0.00     0.235 A 
HETATM   18  N2  UNL     1      28.279   2.188  52.768  1.00  0.00    -0.217 NA
BRANCH  14  19
HETATM   19  C3  UNL     1      26.187  -0.720  53.432  1.00  0.00     0.041 C 
BRANCH  19  20
HETATM   20  C2  UNL     1      24.997  -0.761  53.963  1.00  0.00     0.135 C 
BRANCH  20  21
HETATM   21  O1  UNL     1      23.686  -0.847  54.342  1.00  0.00    -0.368 OA
HETATM   22  C1  UNL     1      22.621  -0.846  53.391  1.00  0.00     0.208 C 
ENDBRANCH  20  21
ENDBRANCH  19  20
ENDBRANCH  14  19
ENDBRANCH  12  13
ENDBRANCH   1  12
BRANCH   9  23
HETATM   23  C14 UNL     1      22.734   2.092  49.477  1.00  0.00     0.012 A 
HETATM   24  C15 UNL     1      22.225   1.967  48.306  1.00  0.00     0.033 A 
HETATM   25  C16 UNL     1      21.055   1.799  48.868  1.00  0.00     0.005 A 
HETATM   26  C17 UNL     1      21.721   1.119  49.799  1.00  0.00     0.060 A 
ENDBRANCH   9  23
TORSDOF 6
ENDMDL
MODEL 3
REMARK VINA RESULT:      -7.6      2.029      2.546
REMARK  6 active torsions:
REMARK  status: ('A' for Active; 'I' for Inactive)
REMARK    1  A    between atoms: O1_2  and  C2_3 
REMARK    2  A    between atoms: C2_3  and  C3_4 
REMARK    3  A    between atoms: C3_4  and  C4_5 
REMARK    4  A    between atoms: C7_10  and  O2_11 
REMARK    5  A    between atoms: O2_11  and  C8_12 
REMARK    6  A    between atoms: N4_20  and  C14_21 
ROOT
HETATM    1  C8  UNL     1      24.321   2.590  50.814  1.00  0.00     0.073 C 
HETATM    2  C9  UNL     1      23.121   1.987  50.497  1.00  0.00     0.034 C 
HETATM    3  C10 UNL     1      21.948   1.095  50.805  1.00  0.00     0.000 C 
HETATM    4  C11 UNL     1      21.244   0.237  51.592  1.00  0.00    -0.007 C 
HETATM    5  C12 UNL     1      21.470  -0.428  53.034  1.00  0.00     0.151 C 
HETATM    6  N3  UNL     1      22.934  -0.220  53.036  1.00  0.00    -0.339 N 
HETATM    7  C13 UNL     1      23.470   1.051  52.960  1.00  0.00     0.323 C 
HETATM    8  O3  UNL     1      22.961   2.092  53.046  1.00  0.00    -0.247 OA
HETATM    9  N4  UNL     1      24.823   1.199  52.672  1.00  0.00    -0.300 N 
HETATM   10  C18 UNL     1      25.220   2.515  52.097  1.00  0.00     0.198 C 
HETATM   11  H13 UNL     1      23.572  -0.985  53.100  1.00  0.00     0.164 HD
ENDROOT
BRANCH   1  12
HETATM   12  O2  UNL     1      24.885   3.411  49.881  1.00  0.00    -0.294 OA
BRANCH  12  13
HETATM   13  C7  UNL     1      24.903   4.781  50.085  1.00  0.00     0.182 A 
HETATM   14  C4  UNL     1      25.981   5.467  49.577  1.00  0.00     0.036 A 
HETATM   15  C5  UNL     1      25.987   6.809  49.785  1.00  0.00     0.134 A 
HETATM   16  N1  UNL     1      25.036   7.489  50.435  1.00  0.00    -0.253 NA
HETATM   17  C6  UNL     1      23.990   6.787  50.922  1.00  0.00     0.235 A 
HETATM   18  N2  UNL     1      23.944   5.463  50.741  1.00  0.00    -0.217 NA
BRANCH  14  19
HETATM   19  C3  UNL     1      26.981   4.700  48.878  1.00  0.00     0.041 C 
BRANCH  19  20
HETATM   20  C2  UNL     1      28.139   5.142  48.477  1.00  0.00     0.135 C 
BRANCH  20  21
HETATM   21  O1  UNL     1      29.280   5.784  48.080  1.00  0.00    -0.368 OA
HETATM   22  C1  UNL     1      29.379   7.208  48.053  1.00  0.00     0.208 C 
ENDBRANCH  20  21
ENDBRANCH  19  20
ENDBRANCH  14  19
ENDBRANCH  12  13
ENDBRANCH   1  12
BRANCH   9  23
HETATM   23  C14 UNL     1      25.655   0.108  52.804  1.00  0.00     0.012 A 
HETATM   24  C15 UNL     1      26.085  -0.952  53.385  1.00  0.00     0.033 A 
HETATM   25  C16 UNL     1      27.301  -0.605  53.048  1.00  0.00     0.005 A 
HETATM   26  C17 UNL     1      26.749  -0.182  51.912  1.00  0.00     0.060 A 
ENDBRANCH   9  23
TORSDOF 6
ENDMDL
MODEL 4
REMARK VINA RESULT:      -7.3      3.055      6.544
REMARK  6 active torsions:
REMARK  status: ('A' for Active; 'I' for Inactive)
REMARK    1  A    between atoms: O1_2  and  C2_3 
REMARK    2  A    between atoms: C2_3  and  C3_4 
REMARK    3  A    between atoms: C3_4  and  C4_5 
REMARK    4  A    between atoms: C7_10  and  O2_11 
REMARK    5  A    between atoms: O2_11  and  C8_12 
REMARK    6  A    between atoms: N4_20  and  C14_21 
ROOT
HETATM    1  C8  UNL     1      23.501   1.980  52.905  1.00  0.00     0.073 C 
HETATM    2  C9  UNL     1      24.001   0.700  53.023  1.00  0.00     0.034 C 
HETATM    3  C10 UNL     1      25.124  -0.302  53.057  1.00  0.00     0.000 C 
HETATM    4  C11 UNL     1      26.432  -0.668  52.976  1.00  0.00    -0.007 C 
HETATM    5  C12 UNL     1      27.811   0.099  52.689  1.00  0.00     0.151 C 
HETATM    6  N3  UNL     1      27.171   1.257  52.030  1.00  0.00    -0.339 N 
HETATM    7  C13 UNL     1      26.268   2.051  52.711  1.00  0.00     0.323 C 
HETATM    8  O3  UNL     1      25.990   2.081  53.839  1.00  0.00    -0.247 OA
HETATM    9  N4  UNL     1      25.474   2.940  51.995  1.00  0.00    -0.300 N 
HETATM   10  C18 UNL     1      24.210   3.359  52.663  1.00  0.00     0.198 C 
HETATM   11  H13 UNL     1      27.379   1.504  51.085  1.00  0.00     0.164 HD
ENDROOT
BRANCH   1  12
HETATM   12  O2  UNL     1      22.150   2.146  52.998  1.00  0.00    -0.294 OA
BRANCH  12  13
HETATM   13  C7  UNL     1      21.320   1.634  52.014  1.00  0.00     0.182 A 
HETATM   14  C4  UNL     1      20.356   0.741  52.423  1.00  0.00     0.036 A 
HETATM   15  C5  UNL     1      19.550   0.245  51.449  1.00  0.00     0.134 A 
HETATM   16  N1  UNL     1      19.631   0.560  50.151  1.00  0.00    -0.253 NA
HETATM   17  C6  UNL     1      20.588   1.439  49.782  1.00  0.00     0.235 A 
HETATM   18  N2  UNL     1      21.404   1.952  50.708  1.00  0.00    -0.217 NA
BRANCH  14  19
HETATM   19  C3  UNL     1      20.297   0.432  53.829  1.00  0.00     0.041 C 
BRANCH  19  20
HETATM   20  C2  UNL     1      20.836  -0.606  54.405  1.00  0.00     0.135 C 
BRANCH  20  21
HETATM   21  O1  UNL     1      21.492  -1.723  54.841  1.00  0.00    -0.368 OA
HETATM   22  C1  UNL     1      22.777  -1.655  55.459  1.00  0.00     0.208 C 
ENDBRANCH  20  21
ENDBRANCH  19  20
ENDBRANCH  14  19
ENDBRANCH  12  13
ENDBRANCH   1  12
BRANCH   9  23
HETATM   23  C14 UNL     1      25.829   3.257  50.702  1.00  0.00     0.012 A 
HETATM   24  C15 UNL     1      26.662   3.565  49.776  1.00  0.00     0.033 A 
HETATM   25  C16 UNL     1      25.753   4.355  49.265  1.00  0.00     0.005 A 
HETATM   26  C17 UNL     1      24.885   3.409  49.623  1.00  0.00     0.060 A 
ENDBRANCH   9  23
TORSDOF 6
ENDMDL
MODEL 5
REMARK VINA RESULT:      -7.2      2.131      7.907
REMARK  6 active torsions:
REMARK  status: ('A' for Active; 'I' for Inactive)
REMARK    1  A    between atoms: O1_2  and  C2_3 
REMARK    2  A    between atoms: C2_3  and  C3_4 
REMARK    3  A    between atoms: C3_4  and  C4_5 
REMARK    4  A    between atoms: C7_10  and  O2_11 
REMARK    5  A    between atoms: O2_11  and  C8_12 
REMARK    6  A    between atoms: N4_20  and  C14_21 
ROOT
HETATM    1  C8  UNL     1      25.655   3.421  50.298  1.00  0.00     0.073 C 
HETATM    2  C9  UNL     1      26.695   3.939  49.554  1.00  0.00     0.034 C 
HETATM    3  C10 UNL     1      27.347   5.021  48.735  1.00  0.00     0.000 C 
HETATM    4  C11 UNL     1      27.376   6.237  48.127  1.00  0.00    -0.007 C 
HETATM    5  C12 UNL     1      26.340   7.451  47.963  1.00  0.00     0.151 C 
HETATM    6  N3  UNL     1      25.145   6.630  48.249  1.00  0.00    -0.339 N 
HETATM    7  C13 UNL     1      25.001   5.984  49.463  1.00  0.00     0.323 C 
HETATM    8  O3  UNL     1      25.614   6.077  50.444  1.00  0.00    -0.247 OA
HETATM    9  N4  UNL     1      24.027   5.000  49.594  1.00  0.00    -0.300 N 
HETATM   10  C18 UNL     1      24.253   4.010  50.684  1.00  0.00     0.198 C 
HETATM   11  H13 UNL     1      24.408   6.527  47.583  1.00  0.00     0.164 HD
ENDROOT
BRANCH   1  12
HETATM   12  O2  UNL     1      25.807   2.168  50.816  1.00  0.00    -0.294 OA
BRANCH  12  13
HETATM   13  C7  UNL     1      26.469   1.993  52.021  1.00  0.00     0.182 A 
HETATM   14  C4  UNL     1      25.798   1.297  52.999  1.00  0.00     0.036 A 
HETATM   15  C5  UNL     1      26.457   1.134  54.176  1.00  0.00     0.134 A 
HETATM   16  N1  UNL     1      27.685   1.595  54.437  1.00  0.00    -0.253 NA
HETATM   17  C6  UNL     1      28.317   2.275  53.457  1.00  0.00     0.235 A 
HETATM   18  N2  UNL     1      27.706   2.460  52.282  1.00  0.00    -0.217 NA
BRANCH  14  19
HETATM   19  C3  UNL     1      24.480   0.811  52.676  1.00  0.00     0.041 C 
BRANCH  19  20
HETATM   20  C2  UNL     1      23.748   0.036  53.426  1.00  0.00     0.135 C 
BRANCH  20  21
HETATM   21  O1  UNL     1      23.140  -0.884  54.234  1.00  0.00    -0.368 OA
HETATM   22  C1  UNL     1      21.858  -1.432  53.928  1.00  0.00     0.208 C 
ENDBRANCH  20  21
ENDBRANCH  19  20
ENDBRANCH  14  19
ENDBRANCH  12  13
ENDBRANCH   1  12
BRANCH   9  23
HETATM   23  C14 UNL     1      23.023   4.926  48.652  1.00  0.00     0.012 A 
HETATM   24  C15 UNL     1      22.537   4.620  47.505  1.00  0.00     0.033 A 
HETATM   25  C16 UNL     1      21.830   5.720  47.547  1.00  0.00     0.005 A 
HETATM   26  C17 UNL     1      21.697   5.456  48.846  1.00  0.00     0.060 A 
ENDBRANCH   9  23
TORSDOF 6
ENDMDL
MODEL 6
REMARK VINA RESULT:      -7.1      2.810      5.495
REMARK  6 active torsions:
REMARK  status: ('A' for Active; 'I' for Inactive)
REMARK    1  A    between atoms: O1_2  and  C2_3 
REMARK    2  A    between atoms: C2_3  and  C3_4 
REMARK    3  A    between atoms: C3_4  and  C4_5 
REMARK    4  A    between atoms: C7_10  and  O2_11 
REMARK    5  A    between atoms: O2_11  and  C8_12 
REMARK    6  A    between atoms: N4_20  and  C14_21 
ROOT
HETATM    1  C8  UNL     1      24.411   2.408  52.800  1.00  0.00     0.073 C 
HETATM    2  C9  UNL     1      25.681   2.416  53.340  1.00  0.00     0.034 C 
HETATM    3  C10 UNL     1      26.931   1.737  53.833  1.00  0.00     0.000 C 
HETATM    4  C11 UNL     1      27.693   0.648  54.120  1.00  0.00    -0.007 C 
HETATM    5  C12 UNL     1      27.484  -0.941  54.031  1.00  0.00     0.151 C 
HETATM    6  N3  UNL     1      26.008  -0.868  54.016  1.00  0.00    -0.339 N 
HETATM    7  C13 UNL     1      25.339  -0.199  53.008  1.00  0.00     0.323 C 
HETATM    8  O3  UNL     1      25.729   0.237  52.005  1.00  0.00    -0.247 OA
HETATM    9  N4  UNL     1      23.991   0.100  53.173  1.00  0.00    -0.300 N 
HETATM   10  C18 UNL     1      23.476   1.230  52.351  1.00  0.00     0.198 C 
HETATM   11  H13 UNL     1      25.454  -1.306  54.723  1.00  0.00     0.164 HD
ENDROOT
BRANCH   1  12
HETATM   12  O2  UNL     1      23.798   3.610  52.600  1.00  0.00    -0.294 OA
BRANCH  12  13
HETATM   13  C7  UNL     1      23.552   4.055  51.311  1.00  0.00     0.182 A 
HETATM   14  C4  UNL     1      22.251   4.384  51.009  1.00  0.00     0.036 A 
HETATM   15  C5  UNL     1      22.023   4.817  49.742  1.00  0.00     0.134 A 
HETATM   16  N1  UNL     1      22.959   4.942  48.794  1.00  0.00    -0.253 NA
HETATM   17  C6  UNL     1      24.226   4.611  49.122  1.00  0.00     0.235 A 
HETATM   18  N2  UNL     1      24.496   4.179  50.358  1.00  0.00    -0.217 NA
BRANCH  14  19
HETATM   19  C3  UNL     1      21.274   4.242  52.059  1.00  0.00     0.041 C 
BRANCH  19  20
HETATM   20  C2  UNL     1      20.080   3.739  51.926  1.00  0.00     0.135 C 
BRANCH  20  21
HETATM   21  O1  UNL     1      18.786   3.297  51.955  1.00  0.00    -0.368 OA
HETATM   22  C1  UNL     1      18.416   2.002  51.481  1.00  0.00     0.208 C 
ENDBRANCH  20  21
ENDBRANCH  19  20
ENDBRANCH  14  19
ENDBRANCH  12  13
ENDBRANCH   1  12
BRANCH   9  23
HETATM   23  C14 UNL     1      23.278  -0.557  54.152  1.00  0.00     0.012 A 
HETATM   24  C15 UNL     1      23.142  -1.390  55.119  1.00  0.00     0.033 A 
HETATM   25  C16 UNL     1      21.951  -1.680  54.659  1.00  0.00     0.005 A 
HETATM   26  C17 UNL     1      21.864  -0.381  54.373  1.00  0.00     0.060 A 
ENDBRANCH   9  23
TORSDOF 6
ENDMDL
MODEL 7
REMARK VINA RESULT:      -6.9      5.344      9.213
REMARK  6 active torsions:
REMARK  status: ('A' for Active; 'I' for Inactive)
REMARK    1  A    between atoms: O1_2  and  C2_3 
REMARK    2  A    between atoms: C2_3  and  C3_4 
REMARK    3  A    between atoms: C3_4  and  C4_5 
REMARK    4  A    between atoms: C7_10  and  O2_11 
REMARK    5  A    between atoms: O2_11  and  C8_12 
REMARK    6  A    between atoms: N4_20  and  C14_21 
ROOT
HETATM    1  C8  UNL     1      31.610   5.469  48.339  1.00  0.00     0.073 C 
HETATM    2  C9  UNL     1      31.690   4.617  47.257  1.00  0.00     0.034 C 
HETATM    3  C10 UNL     1      32.449   3.877  46.188  1.00  0.00     0.000 C 
HETATM    4  C11 UNL     1      33.579   3.535  45.512  1.00  0.00    -0.007 C 
HETATM    5  C12 UNL     1      35.127   3.946  45.604  1.00  0.00     0.151 C 
HETATM    6  N3  UNL     1      34.874   5.209  46.330  1.00  0.00    -0.339 N 
HETATM    7  C13 UNL     1      34.263   5.205  47.570  1.00  0.00     0.323 C 
HETATM    8  O3  UNL     1      34.012   4.325  48.285  1.00  0.00    -0.247 OA
HETATM    9  N4  UNL     1      33.781   6.402  48.089  1.00  0.00    -0.300 N 
HETATM   10  C18 UNL     1      32.710   6.273  49.118  1.00  0.00     0.198 C 
HETATM   11  H13 UNL     1      35.145   6.093  45.953  1.00  0.00     0.164 HD
ENDROOT
BRANCH   1  12
HETATM   12  O2  UNL     1      30.377   5.703  48.875  1.00  0.00    -0.294 OA
BRANCH  12  13
HETATM   13  C7  UNL     1      29.564   6.686  48.335  1.00  0.00     0.182 A 
HETATM   14  C4  UNL     1      28.239   6.364  48.160  1.00  0.00     0.036 A 
HETATM   15  C5  UNL     1      27.452   7.336  47.629  1.00  0.00     0.134 A 
HETATM   16  N1  UNL     1      27.874   8.555  47.274  1.00  0.00    -0.253 NA
HETATM   17  C6  UNL     1      29.181   8.840  47.457  1.00  0.00     0.235 A 
HETATM   18  N2  UNL     1      29.992   7.913  47.977  1.00  0.00    -0.217 NA
BRANCH  14  19
HETATM   19  C3  UNL     1      27.822   5.044  48.561  1.00  0.00     0.041 C 
BRANCH  19  20
HETATM   20  C2  UNL     1      26.728   4.752  49.204  1.00  0.00     0.135 C 
BRANCH  20  21
HETATM   21  O1  UNL     1      25.690   4.440  50.038  1.00  0.00    -0.368 OA
HETATM   22  C1  UNL     1      24.869   3.291  49.830  1.00  0.00     0.208 C 
ENDBRANCH  20  21
ENDBRANCH  19  20
ENDBRANCH  14  19
ENDBRANCH  12  13
ENDBRANCH   1  12
BRANCH   9  23
HETATM   23  C14 UNL     1      34.212   7.589  47.539  1.00  0.00     0.012 A 
HETATM   24  C15 UNL     1      35.053   8.541  47.361  1.00  0.00     0.033 A 
HETATM   25  C16 UNL     1      34.049   9.377  47.310  1.00  0.00     0.005 A 
HETATM   26  C17 UNL     1      33.413   8.405  46.659  1.00  0.00     0.060 A 
ENDBRANCH   9  23
TORSDOF 6
ENDMDL
MODEL 8
REMARK VINA RESULT:      -6.9      3.508      5.434
REMARK  6 active torsions:
REMARK  status: ('A' for Active; 'I' for Inactive)
REMARK    1  A    between atoms: O1_2  and  C2_3 
REMARK    2  A    between atoms: C2_3  and  C3_4 
REMARK    3  A    between atoms: C3_4  and  C4_5 
REMARK    4  A    between atoms: C7_10  and  O2_11 
REMARK    5  A    between atoms: O2_11  and  C8_12 
REMARK    6  A    between atoms: N4_20  and  C14_21 
ROOT
HETATM    1  C8  UNL     1      22.507   1.855  50.765  1.00  0.00     0.073 C 
HETATM    2  C9  UNL     1      21.414   1.538  49.986  1.00  0.00     0.034 C 
HETATM    3  C10 UNL     1      19.975   1.138  49.796  1.00  0.00     0.000 C 
HETATM    4  C11 UNL     1      18.741   0.784  50.243  1.00  0.00    -0.007 C 
HETATM    5  C12 UNL     1      18.079   0.547  51.685  1.00  0.00     0.151 C 
HETATM    6  N3  UNL     1      19.368   0.335  52.376  1.00  0.00    -0.339 N 
HETATM    7  C13 UNL     1      20.331   1.327  52.403  1.00  0.00     0.323 C 
HETATM    8  O3  UNL     1      20.274   2.443  52.086  1.00  0.00    -0.247 OA
HETATM    9  N4  UNL     1      21.624   1.003  52.799  1.00  0.00    -0.300 N 
HETATM   10  C18 UNL     1      22.694   1.923  52.322  1.00  0.00     0.198 C 
HETATM   11  H13 UNL     1      19.576  -0.520  52.849  1.00  0.00     0.164 HD
ENDROOT
BRANCH   1  12
HETATM   12  O2  UNL     1      23.672   2.169  50.129  1.00  0.00    -0.294 OA
BRANCH  12  13
HETATM   13  C7  UNL     1      24.044   3.496  49.981  1.00  0.00     0.182 A 
HETATM   14  C4  UNL     1      25.379   3.785  50.141  1.00  0.00     0.036 A 
HETATM   15  C5  UNL     1      25.730   5.089  49.995  1.00  0.00     0.134 A 
HETATM   16  N1  UNL     1      24.882   6.084  49.712  1.00  0.00    -0.253 NA
HETATM   17  C6  UNL     1      23.578   5.768  49.560  1.00  0.00     0.235 A 
HETATM   18  N2  UNL     1      23.188   4.496  49.696  1.00  0.00    -0.217 NA
BRANCH  14  19
HETATM   19  C3  UNL     1      26.261   2.685  50.439  1.00  0.00     0.041 C 
BRANCH  19  20
HETATM   20  C2  UNL     1      26.748   2.395  51.612  1.00  0.00     0.135 C 
BRANCH  20  21
HETATM   21  O1  UNL     1      27.077   2.094  52.905  1.00  0.00    -0.368 OA
HETATM   22  C1  UNL     1      28.364   2.389  53.448  1.00  0.00     0.208 C 
ENDBRANCH  20  21
ENDBRANCH  19  20
ENDBRANCH  14  19
ENDBRANCH  12  13
ENDBRANCH   1  12
BRANCH   9  23
HETATM   23  C14 UNL     1      21.839  -0.182  53.469  1.00  0.00     0.012 A 
HETATM   24  C15 UNL     1      22.128  -1.430  53.542  1.00  0.00     0.033 A 
HETATM   25  C16 UNL     1      21.247  -1.544  54.502  1.00  0.00     0.005 A 
HETATM   26  C17 UNL     1      21.675  -0.344  54.891  1.00  0.00     0.060 A 
ENDBRANCH   9  23
TORSDOF 6
ENDMDL
MODEL 9
REMARK VINA RESULT:      -6.7      4.367      8.437
REMARK  6 active torsions:
REMARK  status: ('A' for Active; 'I' for Inactive)
REMARK    1  A    between atoms: O1_2  and  C2_3 
REMARK    2  A    between atoms: C2_3  and  C3_4 
REMARK    3  A    between atoms: C3_4  and  C4_5 
REMARK    4  A    between atoms: C7_10  and  O2_11 
REMARK    5  A    between atoms: O2_11  and  C8_12 
REMARK    6  A    between atoms: N4_20  and  C14_21 
ROOT
HETATM    1  C8  UNL     1      22.095   2.272  51.738  1.00  0.00     0.073 C 
HETATM    2  C9  UNL     1      22.375   1.788  50.478  1.00  0.00     0.034 C 
HETATM    3  C10 UNL     1      22.175   1.738  48.986  1.00  0.00     0.000 C 
HETATM    4  C11 UNL     1      21.569   2.109  47.826  1.00  0.00    -0.007 C 
HETATM    5  C12 UNL     1      20.373   3.104  47.436  1.00  0.00     0.151 C 
HETATM    6  N3  UNL     1      19.781   3.119  48.790  1.00  0.00    -0.339 N 
HETATM    7  C13 UNL     1      20.504   3.576  49.876  1.00  0.00     0.323 C 
HETATM    8  O3  UNL     1      21.523   4.132  49.924  1.00  0.00    -0.247 OA
HETATM    9  N4  UNL     1      20.039   3.311  51.159  1.00  0.00    -0.300 N 
HETATM   10  C18 UNL     1      21.065   3.346  52.238  1.00  0.00     0.198 C 
HETATM   11  H13 UNL     1      18.846   2.811  48.958  1.00  0.00     0.164 HD
ENDROOT
BRANCH   1  12
HETATM   12  O2  UNL     1      22.801   1.761  52.788  1.00  0.00    -0.294 OA
BRANCH  12  13
HETATM   13  C7  UNL     1      22.347   0.626  53.440  1.00  0.00     0.182 A 
HETATM   14  C4  UNL     1      23.305  -0.256  53.883  1.00  0.00     0.036 A 
HETATM   15  C5  UNL     1      22.847  -1.366  54.520  1.00  0.00     0.134 A 
HETATM   16  N1  UNL     1      21.558  -1.648  54.737  1.00  0.00    -0.253 NA
HETATM   17  C6  UNL     1      20.642  -0.763  54.289  1.00  0.00     0.235 A 
HETATM   18  N2  UNL     1      21.048   0.343  53.657  1.00  0.00    -0.217 NA
BRANCH  14  19
HETATM   19  C3  UNL     1      24.683   0.087  53.636  1.00  0.00     0.041 C 
BRANCH  19  20
HETATM   20  C2  UNL     1      25.684  -0.153  54.434  1.00  0.00     0.135 C 
BRANCH  20  21
HETATM   21  O1  UNL     1      26.844  -0.404  55.112  1.00  0.00    -0.368 OA
HETATM   22  C1  UNL     1      28.101   0.124  54.687  1.00  0.00     0.208 C 
ENDBRANCH  20  21
ENDBRANCH  19  20
ENDBRANCH  14  19
ENDBRANCH  12  13
ENDBRANCH   1  12
BRANCH   9  23
HETATM   23  C14 UNL     1      18.730   2.912  51.324  1.00  0.00     0.012 A 
HETATM   24  C15 UNL     1      17.785   2.046  51.370  1.00  0.00     0.033 A 
HETATM   25  C16 UNL     1      16.996   2.924  50.805  1.00  0.00     0.005 A 
HETATM   26  C17 UNL     1      17.635   3.819  51.556  1.00  0.00     0.060 A 
ENDBRANCH   9  23
TORSDOF 6
ENDMDL
