MODEL 1
REMARK VINA RESULT:      -9.2      0.000      0.000
REMARK  2 active torsions:
REMARK  status: ('A' for Active; 'I' for Inactive)
REMARK    1  A    between atoms: C7_7  and  C8_8 
REMARK    2  A    between atoms: C14_16  and  C15_17 
ROOT
HETATM    1  C1  UNL     1      17.840  -1.097  53.072  1.00  0.00     0.018 C 
HETATM    2  C2  UNL     1      19.025  -0.944  53.235  1.00  0.00    -0.078 C 
HETATM    3  C3  UNL     1      20.452  -0.769  53.453  1.00  0.00     0.017 A 
HETATM    4  C4  UNL     1      21.060  -1.380  54.527  1.00  0.00     0.020 A 
HETATM    5  C5  UNL     1      22.410  -1.167  54.668  1.00  0.00     0.002 A 
HETATM    6  C6  UNL     1      23.147  -0.387  53.794  1.00  0.00     0.013 A 
HETATM    7  C7  UNL     1      22.539   0.224  52.721  1.00  0.00    -0.010 A 
HETATM    8  C19 UNL     1      21.187   0.009  52.583  1.00  0.00     0.034 A 
ENDROOT
BRANCH   7   9
HETATM    9  C8  UNL     1      23.363   1.036  51.835  1.00  0.00     0.051 C 
HETATM   10  N1  UNL     1      22.635   1.564  50.906  1.00  0.00    -0.245 NA
HETATM   11  C9  UNL     1      22.850   2.434  49.770  1.00  0.00     0.232 C 
HETATM   12  N2  UNL     1      23.865   3.091  49.316  1.00  0.00    -0.254 NA
HETATM   13  C10 UNL     1      25.212   3.227  49.760  1.00  0.00     0.114 C 
HETATM   14  C11 UNL     1      25.747   3.053  50.987  1.00  0.00    -0.001 C 
HETATM   15  C12 UNL     1      25.071   2.669  52.220  1.00  0.00     0.029 A 
HETATM   16  C13 UNL     1      24.797   1.147  52.082  1.00  0.00     0.056 A 
HETATM   17  C14 UNL     1      25.489   1.695  53.214  1.00  0.00     0.040 A 
BRANCH  17  18
HETATM   18  C15 UNL     1      26.919   1.407  53.373  1.00  0.00    -0.016 A 
HETATM   19  C16 UNL     1      27.948   2.281  53.596  1.00  0.00     0.147 A 
HETATM   20  N3  UNL     1      29.114   1.620  53.686  1.00  0.00    -0.185 NA
HETATM   21  N4  UNL     1      28.914   0.320  53.532  1.00  0.00    -0.285 N 
HETATM   22  C17 UNL     1      29.873  -0.770  53.551  1.00  0.00     0.179 C 
HETATM   23  C18 UNL     1      27.586   0.175  53.340  1.00  0.00     0.120 A 
ENDBRANCH  17  18
ENDBRANCH   7   9
TORSDOF 2
ENDMDL
MODEL 2
REMARK VINA RESULT:      -9.2      1.847      5.061
REMARK  2 active torsions:
REMARK  status: ('A' for Active; 'I' for Inactive)
REMARK    1  A    between atoms: C7_7  and  C8_8 
REMARK    2  A    between atoms: C14_16  and  C15_17 
ROOT
HETATM    1  C1  UNL     1      25.803   5.322  49.105  1.00  0.00     0.018 C 
HETATM    2  C2  UNL     1      24.978   4.470  49.324  1.00  0.00    -0.078 C 
HETATM    3  C3  UNL     1      23.969   3.451  49.569  1.00  0.00     0.017 A 
HETATM    4  C4  UNL     1      23.045   3.155  48.592  1.00  0.00     0.020 A 
HETATM    5  C5  UNL     1      22.124   2.182  48.897  1.00  0.00     0.002 A 
HETATM    6  C6  UNL     1      22.101   1.517  50.110  1.00  0.00     0.013 A 
HETATM    7  C7  UNL     1      23.025   1.813  51.086  1.00  0.00    -0.010 A 
HETATM    8  C19 UNL     1      23.946   2.788  50.778  1.00  0.00     0.034 A 
ENDROOT
BRANCH   7   9
HETATM    9  C8  UNL     1      22.953   1.084  52.345  1.00  0.00     0.051 C 
HETATM   10  N1  UNL     1      21.720   0.842  52.653  1.00  0.00    -0.245 NA
HETATM   11  C9  UNL     1      21.015   0.183  53.731  1.00  0.00     0.232 C 
HETATM   12  N2  UNL     1      21.383  -0.503  54.762  1.00  0.00    -0.254 NA
HETATM   13  C10 UNL     1      22.657  -0.896  55.263  1.00  0.00     0.114 C 
HETATM   14  C11 UNL     1      23.840  -1.031  54.628  1.00  0.00    -0.001 C 
HETATM   15  C12 UNL     1      24.140  -0.803  53.220  1.00  0.00     0.029 A 
HETATM   16  C13 UNL     1      24.181   0.740  53.053  1.00  0.00     0.056 A 
HETATM   17  C14 UNL     1      25.270  -0.099  52.639  1.00  0.00     0.040 A 
BRANCH  17  18
HETATM   18  C15 UNL     1      26.531  -0.037  53.386  1.00  0.00    -0.016 A 
HETATM   19  C16 UNL     1      26.810   0.646  54.539  1.00  0.00     0.147 A 
HETATM   20  N3  UNL     1      28.085   0.444  54.908  1.00  0.00    -0.185 NA
HETATM   21  N4  UNL     1      28.688  -0.357  54.043  1.00  0.00    -0.285 N 
HETATM   22  C17 UNL     1      30.055  -0.846  54.035  1.00  0.00     0.179 C 
HETATM   23  C18 UNL     1      27.758  -0.657  53.112  1.00  0.00     0.120 A 
ENDBRANCH  17  18
ENDBRANCH   7   9
TORSDOF 2
ENDMDL
MODEL 3
REMARK VINA RESULT:      -9.2      1.800      4.446
REMARK  2 active torsions:
REMARK  status: ('A' for Active; 'I' for Inactive)
REMARK    1  A    between atoms: C7_7  and  C8_8 
REMARK    2  A    between atoms: C14_16  and  C15_17 
ROOT
HETATM    1  C1  UNL     1      19.445   0.585  51.054  1.00  0.00     0.018 C 
HETATM    2  C2  UNL     1      20.305   0.256  51.833  1.00  0.00    -0.078 C 
HETATM    3  C3  UNL     1      21.325  -0.153  52.786  1.00  0.00     0.017 A 
HETATM    4  C4  UNL     1      21.041  -1.127  53.716  1.00  0.00     0.020 A 
HETATM    5  C5  UNL     1      22.054  -1.459  54.583  1.00  0.00     0.002 A 
HETATM    6  C6  UNL     1      23.303  -0.865  54.547  1.00  0.00     0.013 A 
HETATM    7  C7  UNL     1      23.587   0.109  53.618  1.00  0.00    -0.010 A 
HETATM    8  C19 UNL     1      22.570   0.440  52.752  1.00  0.00     0.034 A 
ENDROOT
BRANCH   7   9
HETATM    9  C8  UNL     1      24.917   0.703  53.628  1.00  0.00     0.051 C 
HETATM   10  N1  UNL     1      25.685   0.067  54.453  1.00  0.00    -0.245 NA
HETATM   11  C9  UNL     1      27.059   0.163  54.896  1.00  0.00     0.232 C 
HETATM   12  N2  UNL     1      28.071   0.886  54.547  1.00  0.00    -0.254 NA
HETATM   13  C10 UNL     1      28.247   1.900  53.562  1.00  0.00     0.114 C 
HETATM   14  C11 UNL     1      27.554   2.146  52.430  1.00  0.00    -0.001 C 
HETATM   15  C12 UNL     1      26.408   1.420  51.897  1.00  0.00     0.029 A 
HETATM   16  C13 UNL     1      25.203   1.852  52.775  1.00  0.00     0.056 A 
HETATM   17  C14 UNL     1      25.177   1.955  51.344  1.00  0.00     0.040 A 
BRANCH  17  18
HETATM   18  C15 UNL     1      25.190   3.290  50.734  1.00  0.00    -0.016 A 
HETATM   19  C16 UNL     1      25.882   3.721  49.634  1.00  0.00     0.147 A 
HETATM   20  N3  UNL     1      25.622   5.017  49.394  1.00  0.00    -0.185 NA
HETATM   21  N4  UNL     1      24.773   5.485  50.296  1.00  0.00    -0.285 N 
HETATM   22  C17 UNL     1      24.214   6.818  50.431  1.00  0.00     0.179 C 
HETATM   23  C18 UNL     1      24.502   4.448  51.116  1.00  0.00     0.120 A 
ENDBRANCH  17  18
ENDBRANCH   7   9
TORSDOF 2
ENDMDL
MODEL 4
REMARK VINA RESULT:      -8.8      2.363      7.071
REMARK  2 active torsions:
REMARK  status: ('A' for Active; 'I' for Inactive)
REMARK    1  A    between atoms: C7_7  and  C8_8 
REMARK    2  A    between atoms: C14_16  and  C15_17 
ROOT
HETATM    1  C1  UNL     1      29.867  -1.784  53.456  1.00  0.00     0.018 C 
HETATM    2  C2  UNL     1      28.938  -1.014  53.463  1.00  0.00    -0.078 C 
HETATM    3  C3  UNL     1      27.833  -0.069  53.477  1.00  0.00     0.017 A 
HETATM    4  C4  UNL     1      28.090   1.283  53.441  1.00  0.00     0.020 A 
HETATM    5  C5  UNL     1      26.996   2.114  53.457  1.00  0.00     0.002 A 
HETATM    6  C6  UNL     1      25.694   1.648  53.506  1.00  0.00     0.013 A 
HETATM    7  C7  UNL     1      25.437   0.296  53.543  1.00  0.00    -0.010 A 
HETATM    8  C19 UNL     1      26.535  -0.533  53.527  1.00  0.00     0.034 A 
ENDROOT
BRANCH   7   9
HETATM    9  C8  UNL     1      24.048  -0.138  53.597  1.00  0.00     0.051 C 
HETATM   10  N1  UNL     1      23.854  -0.892  54.630  1.00  0.00    -0.245 NA
HETATM   11  C9  UNL     1      22.741  -1.607  55.215  1.00  0.00     0.232 C 
HETATM   12  N2  UNL     1      21.477  -1.676  54.957  1.00  0.00    -0.254 NA
HETATM   13  C10 UNL     1      20.652  -1.062  53.972  1.00  0.00     0.114 C 
HETATM   14  C11 UNL     1      20.836   0.074  53.265  1.00  0.00    -0.001 C 
HETATM   15  C12 UNL     1      21.960   1.000  53.322  1.00  0.00     0.029 A 
HETATM   16  C13 UNL     1      23.115   0.294  52.562  1.00  0.00     0.056 A 
HETATM   17  C14 UNL     1      22.678   1.618  52.221  1.00  0.00     0.040 A 
BRANCH  17  18
HETATM   18  C15 UNL     1      21.986   1.825  50.944  1.00  0.00    -0.016 A 
HETATM   19  C16 UNL     1      21.751   0.922  49.943  1.00  0.00     0.147 A 
HETATM   20  N3  UNL     1      21.079   1.503  48.935  1.00  0.00    -0.185 NA
HETATM   21  N4  UNL     1      20.847   2.776  49.217  1.00  0.00    -0.285 N 
HETATM   22  C17 UNL     1      20.162   3.785  48.430  1.00  0.00     0.179 C 
HETATM   23  C18 UNL     1      21.392   2.987  50.434  1.00  0.00     0.120 A 
ENDBRANCH  17  18
ENDBRANCH   7   9
TORSDOF 2
ENDMDL
MODEL 5
REMARK VINA RESULT:      -8.7      2.023      5.920
REMARK  2 active torsions:
REMARK  status: ('A' for Active; 'I' for Inactive)
REMARK    1  A    between atoms: C7_7  and  C8_8 
REMARK    2  A    between atoms: C14_16  and  C15_17 
ROOT
HETATM    1  C1  UNL     1      28.680   5.462  48.235  1.00  0.00     0.018 C 
HETATM    2  C2  UNL     1      27.532   5.377  48.596  1.00  0.00    -0.078 C 
HETATM    3  C3  UNL     1      26.144   5.296  49.024  1.00  0.00     0.017 A 
HETATM    4  C4  UNL     1      25.220   6.181  48.515  1.00  0.00     0.020 A 
HETATM    5  C5  UNL     1      23.930   6.044  48.966  1.00  0.00     0.002 A 
HETATM    6  C6  UNL     1      23.548   5.077  49.880  1.00  0.00     0.013 A 
HETATM    7  C7  UNL     1      24.472   4.193  50.388  1.00  0.00    -0.010 A 
HETATM    8  C19 UNL     1      25.763   4.333  49.934  1.00  0.00     0.034 A 
ENDROOT
BRANCH   7   9
HETATM    9  C8  UNL     1      24.015   3.198  51.348  1.00  0.00     0.051 C 
HETATM   10  N1  UNL     1      22.724   3.119  51.332  1.00  0.00    -0.245 NA
HETATM   11  C9  UNL     1      21.709   2.354  52.023  1.00  0.00     0.232 C 
HETATM   12  N2  UNL     1      21.735   1.375  52.866  1.00  0.00    -0.254 NA
HETATM   13  C10 UNL     1      22.796   0.640  53.469  1.00  0.00     0.114 C 
HETATM   14  C11 UNL     1      24.068   0.452  53.060  1.00  0.00    -0.001 C 
HETATM   15  C12 UNL     1      24.716   0.966  51.860  1.00  0.00     0.029 A 
HETATM   16  C13 UNL     1      24.989   2.466  52.151  1.00  0.00     0.056 A 
HETATM   17  C14 UNL     1      26.030   1.571  51.731  1.00  0.00     0.040 A 
BRANCH  17  18
HETATM   18  C15 UNL     1      27.079   1.210  52.692  1.00  0.00    -0.016 A 
HETATM   19  C16 UNL     1      27.481   1.885  53.813  1.00  0.00     0.147 A 
HETATM   20  N3  UNL     1      28.473   1.221  54.430  1.00  0.00    -0.185 NA
HETATM   21  N4  UNL     1      28.761   0.113  53.765  1.00  0.00    -0.285 N 
HETATM   22  C17 UNL     1      29.754  -0.906  54.055  1.00  0.00     0.179 C 
HETATM   23  C18 UNL     1      27.923   0.092  52.707  1.00  0.00     0.120 A 
ENDBRANCH  17  18
ENDBRANCH   7   9
TORSDOF 2
ENDMDL
MODEL 6
REMARK VINA RESULT:      -8.5      2.344      7.245
REMARK  2 active torsions:
REMARK  status: ('A' for Active; 'I' for Inactive)
REMARK    1  A    between atoms: C7_7  and  C8_8 
REMARK    2  A    between atoms: C14_16  and  C15_17 
ROOT
HETATM    1  C1  UNL     1      26.550   3.736  49.351  1.00  0.00     0.018 C 
HETATM    2  C2  UNL     1      26.491   3.079  50.361  1.00  0.00    -0.078 C 
HETATM    3  C3  UNL     1      26.443   2.287  51.580  1.00  0.00     0.017 A 
HETATM    4  C4  UNL     1      27.541   2.246  52.411  1.00  0.00     0.020 A 
HETATM    5  C5  UNL     1      27.421   1.477  53.543  1.00  0.00     0.002 A 
HETATM    6  C6  UNL     1      26.273   0.772  53.859  1.00  0.00     0.013 A 
HETATM    7  C7  UNL     1      25.177   0.813  53.029  1.00  0.00    -0.010 A 
HETATM    8  C19 UNL     1      25.300   1.584  51.896  1.00  0.00     0.034 A 
ENDROOT
BRANCH   7   9
HETATM    9  C8  UNL     1      23.996   0.050  53.410  1.00  0.00     0.051 C 
HETATM   10  N1  UNL     1      24.247  -0.672  54.453  1.00  0.00    -0.245 NA
HETATM   11  C9  UNL     1      23.521  -1.610  55.282  1.00  0.00     0.232 C 
HETATM   12  N2  UNL     1      22.292  -2.005  55.332  1.00  0.00    -0.254 NA
HETATM   13  C10 UNL     1      21.131  -1.669  54.577  1.00  0.00     0.114 C 
HETATM   14  C11 UNL     1      20.851  -0.563  53.856  1.00  0.00    -0.001 C 
HETATM   15  C12 UNL     1      21.682   0.616  53.650  1.00  0.00     0.029 A 
HETATM   16  C13 UNL     1      22.769   0.180  52.631  1.00  0.00     0.056 A 
HETATM   17  C14 UNL     1      21.942   1.333  52.414  1.00  0.00     0.040 A 
BRANCH  17  18
HETATM   18  C15 UNL     1      20.943   1.292  51.342  1.00  0.00    -0.016 A 
HETATM   19  C16 UNL     1      21.142   1.246  49.988  1.00  0.00     0.147 A 
HETATM   20  N3  UNL     1      19.965   1.216  49.341  1.00  0.00    -0.185 NA
HETATM   21  N4  UNL     1      18.967   1.239  50.211  1.00  0.00    -0.285 N 
HETATM   22  C17 UNL     1      17.535   1.221  49.973  1.00  0.00     0.179 C 
HETATM   23  C18 UNL     1      19.544   1.286  51.430  1.00  0.00     0.120 A 
ENDBRANCH  17  18
ENDBRANCH   7   9
TORSDOF 2
ENDMDL
MODEL 7
REMARK VINA RESULT:      -8.5      2.600      7.681
REMARK  2 active torsions:
REMARK  status: ('A' for Active; 'I' for Inactive)
REMARK    1  A    between atoms: C7_7  and  C8_8 
REMARK    2  A    between atoms: C14_16  and  C15_17 
ROOT
HETATM    1  C1  UNL     1      29.428   5.737  48.060  1.00  0.00     0.018 C 
HETATM    2  C2  UNL     1      28.316   5.434  48.417  1.00  0.00    -0.078 C 
HETATM    3  C3  UNL     1      26.968   5.090  48.841  1.00  0.00     0.017 A 
HETATM    4  C4  UNL     1      25.908   5.877  48.451  1.00  0.00     0.020 A 
HETATM    5  C5  UNL     1      24.665   5.490  48.891  1.00  0.00     0.002 A 
HETATM    6  C6  UNL     1      24.459   4.374  49.683  1.00  0.00     0.013 A 
HETATM    7  C7  UNL     1      25.519   3.588  50.073  1.00  0.00    -0.010 A 
HETATM    8  C19 UNL     1      26.762   3.979  49.631  1.00  0.00     0.034 A 
ENDROOT
BRANCH   7   9
HETATM    9  C8  UNL     1      25.243   2.427  50.909  1.00  0.00     0.051 C 
HETATM   10  N1  UNL     1      26.343   1.809  51.194  1.00  0.00    -0.245 NA
HETATM   11  C9  UNL     1      26.724   0.638  51.953  1.00  0.00     0.232 C 
HETATM   12  N2  UNL     1      26.089  -0.186  52.720  1.00  0.00    -0.254 NA
HETATM   13  C10 UNL     1      24.730  -0.275  53.136  1.00  0.00     0.114 C 
HETATM   14  C11 UNL     1      23.773   0.676  53.198  1.00  0.00    -0.001 C 
HETATM   15  C12 UNL     1      23.878   2.086  52.846  1.00  0.00     0.029 A 
HETATM   16  C13 UNL     1      23.869   2.123  51.294  1.00  0.00     0.056 A 
HETATM   17  C14 UNL     1      22.948   2.896  52.079  1.00  0.00     0.040 A 
BRANCH  17  18
HETATM   18  C15 UNL     1      21.528   2.530  52.062  1.00  0.00    -0.016 A 
HETATM   19  C16 UNL     1      20.444   3.289  52.411  1.00  0.00     0.147 A 
HETATM   20  N3  UNL     1      19.309   2.589  52.252  1.00  0.00    -0.185 NA
HETATM   21  N4  UNL     1      19.583   1.373  51.804  1.00  0.00    -0.285 N 
HETATM   22  C17 UNL     1      18.680   0.280  51.490  1.00  0.00     0.179 C 
HETATM   23  C18 UNL     1      20.926   1.322  51.684  1.00  0.00     0.120 A 
ENDBRANCH  17  18
ENDBRANCH   7   9
TORSDOF 2
ENDMDL
MODEL 8
REMARK VINA RESULT:      -8.5      2.472      4.625
REMARK  2 active torsions:
REMARK  status: ('A' for Active; 'I' for Inactive)
REMARK    1  A    between atoms: C7_7  and  C8_8 
REMARK    2  A    between atoms: C14_16  and  C15_17 
ROOT
HETATM    1  C1  UNL     1      17.049  -4.002  53.899  1.00  0.00     0.018 C 
HETATM    2  C2  UNL     1      17.702  -3.017  53.657  1.00  0.00    -0.078 C 
HETATM    3  C3  UNL     1      18.473  -1.823  53.348  1.00  0.00     0.017 A 
HETATM    4  C4  UNL     1      17.900  -0.811  52.610  1.00  0.00     0.020 A 
HETATM    5  C5  UNL     1      18.690   0.285  52.358  1.00  0.00     0.002 A 
HETATM    6  C6  UNL     1      19.993   0.395  52.808  1.00  0.00     0.013 A 
HETATM    7  C7  UNL     1      20.566  -0.616  53.545  1.00  0.00    -0.010 A 
HETATM    8  C19 UNL     1      19.772  -1.712  53.796  1.00  0.00     0.034 A 
ENDROOT
BRANCH   7   9
HETATM    9  C8  UNL     1      21.943  -0.447  53.991  1.00  0.00     0.051 C 
HETATM   10  N1  UNL     1      22.245  -1.354  54.863  1.00  0.00    -0.245 NA
HETATM   11  C9  UNL     1      23.407  -1.710  55.648  1.00  0.00     0.232 C 
HETATM   12  N2  UNL     1      24.629  -1.292  55.693  1.00  0.00    -0.254 NA
HETATM   13  C10 UNL     1      25.339  -0.290  54.971  1.00  0.00     0.114 C 
HETATM   14  C11 UNL     1      25.093   0.252  53.759  1.00  0.00    -0.001 C 
HETATM   15  C12 UNL     1      24.004  -0.051  52.840  1.00  0.00     0.029 A 
HETATM   16  C13 UNL     1      22.751   0.637  53.445  1.00  0.00     0.056 A 
HETATM   17  C14 UNL     1      23.170   0.873  52.092  1.00  0.00     0.040 A 
BRANCH  17  18
HETATM   18  C15 UNL     1      23.705   2.193  51.740  1.00  0.00    -0.016 A 
HETATM   19  C16 UNL     1      23.385   3.415  52.267  1.00  0.00     0.147 A 
HETATM   20  N3  UNL     1      24.102   4.384  51.675  1.00  0.00    -0.185 NA
HETATM   21  N4  UNL     1      24.904   3.863  50.760  1.00  0.00    -0.285 N 
HETATM   22  C17 UNL     1      25.851   4.522  49.879  1.00  0.00     0.179 C 
HETATM   23  C18 UNL     1      24.674   2.533  50.787  1.00  0.00     0.120 A 
ENDBRANCH  17  18
ENDBRANCH   7   9
TORSDOF 2
ENDMDL
MODEL 9
REMARK VINA RESULT:      -8.4      2.874      6.567
REMARK  2 active torsions:
REMARK  status: ('A' for Active; 'I' for Inactive)
REMARK    1  A    between atoms: C7_7  and  C8_8 
REMARK    2  A    between atoms: C14_16  and  C15_17 
ROOT
HETATM    1  C1  UNL     1      29.806  -0.801  53.565  1.00  0.00     0.018 C 
HETATM    2  C2  UNL     1      28.657  -0.503  53.349  1.00  0.00    -0.078 C 
HETATM    3  C3  UNL     1      27.265  -0.165  53.096  1.00  0.00     0.017 A 
HETATM    4  C4  UNL     1      26.265  -0.942  53.636  1.00  0.00     0.020 A 
HETATM    5  C5  UNL     1      24.975  -0.561  53.353  1.00  0.00     0.002 A 
HETATM    6  C6  UNL     1      24.667   0.538  52.571  1.00  0.00     0.013 A 
HETATM    7  C7  UNL     1      25.667   1.314  52.032  1.00  0.00    -0.010 A 
HETATM    8  C19 UNL     1      26.957   0.930  52.317  1.00  0.00     0.034 A 
ENDROOT
BRANCH   7   9
HETATM    9  C8  UNL     1      25.285   2.458  51.215  1.00  0.00     0.051 C 
HETATM   10  N1  UNL     1      26.321   2.946  50.614  1.00  0.00    -0.245 NA
HETATM   11  C9  UNL     1      26.591   4.036  49.702  1.00  0.00     0.232 C 
HETATM   12  N2  UNL     1      25.853   4.885  49.068  1.00  0.00    -0.254 NA
HETATM   13  C10 UNL     1      24.445   5.095  49.009  1.00  0.00     0.114 C 
HETATM   14  C11 UNL     1      23.426   4.246  49.261  1.00  0.00    -0.001 C 
HETATM   15  C12 UNL     1      23.495   2.850  49.673  1.00  0.00     0.029 A 
HETATM   16  C13 UNL     1      23.890   2.884  51.174  1.00  0.00     0.056 A 
HETATM   17  C14 UNL     1      22.732   2.175  50.709  1.00  0.00     0.040 A 
BRANCH  17  18
HETATM   18  C15 UNL     1      21.403   2.686  51.063  1.00  0.00    -0.016 A 
HETATM   19  C16 UNL     1      21.010   3.328  52.207  1.00  0.00     0.147 A 
HETATM   20  N3  UNL     1      19.705   3.640  52.145  1.00  0.00    -0.185 NA
HETATM   21  N4  UNL     1      19.193   3.232  50.994  1.00  0.00    -0.285 N 
HETATM   22  C17 UNL     1      17.835   3.352  50.494  1.00  0.00     0.179 C 
HETATM   23  C18 UNL     1      20.212   2.651  50.326  1.00  0.00     0.120 A 
ENDBRANCH  17  18
ENDBRANCH   7   9
TORSDOF 2
ENDMDL
