MODEL 1
REMARK VINA RESULT:      -9.0      0.000      0.000
REMARK  6 active torsions:
REMARK  status: ('A' for Active; 'I' for Inactive)
REMARK    1  A    between atoms: C2_2  and  C3_3 
REMARK    2  A    between atoms: C2_2  and  C8_10 
REMARK    3  A    between atoms: C3_3  and  N1_4 
REMARK       I    between atoms: C8_10  and  N2_12 
REMARK    4  A    between atoms: N2_12  and  C9_13 
REMARK    5  A    between atoms: C10_14  and  C17_23 
REMARK    6  A    between atoms: C17_23  and  C18_24 
ROOT
HETATM    1  C9  UNL     1      25.598   2.572  51.317  1.00  0.00     0.100 A 
HETATM    2  C10 UNL     1      26.060   1.855  52.346  1.00  0.00     0.073 A 
HETATM    3  C11 UNL     1      25.151   0.913  53.085  1.00  0.00     0.043 A 
HETATM    4  C12 UNL     1      23.999   0.219  53.446  1.00  0.00    -0.042 A 
HETATM    5  C13 UNL     1      23.904  -0.653  54.434  1.00  0.00     0.065 A 
HETATM    6  C14 UNL     1      22.625  -1.255  54.621  1.00  0.00     0.101 C 
HETATM    7  N3  UNL     1      21.588  -1.737  54.794  1.00  0.00    -0.191 NA
HETATM    8  C15 UNL     1      24.789  -1.097  55.310  1.00  0.00     0.133 A 
HETATM    9  N4  UNL     1      26.035  -0.557  55.182  1.00  0.00    -0.293 NA
HETATM   10  C16 UNL     1      26.099   0.350  54.141  1.00  0.00     0.059 A 
HETATM   11  C17 UNL     1      26.128   1.156  53.203  1.00  0.00     0.135 A 
HETATM   12  C18 UNL     1      25.061   1.623  52.191  1.00  0.00     0.087 A 
HETATM   13  O3  UNL     1      23.728   1.688  51.520  1.00  0.00    -0.378 OA
HETATM   14  C19 UNL     1      22.489   1.148  51.779  1.00  0.00     0.173 A 
HETATM   15  C20 UNL     1      22.597   0.197  52.939  1.00  0.00     0.063 A 
ENDROOT
BRANCH   1  16
HETATM   16  N2  UNL     1      26.378   3.524  50.525  1.00  0.00    -0.342 N 
HETATM   17  C8  UNL     1      25.859   4.417  49.488  1.00  0.00     0.245 C 
HETATM   18  O2  UNL     1      24.729   4.659  49.002  1.00  0.00    -0.268 OA
HETATM   19  H13 UNL     1      27.377   3.566  50.741  1.00  0.00     0.163 HD
BRANCH  17  20
HETATM   20  C2  UNL     1      26.921   5.237  48.838  1.00  0.00    -0.004 C 
HETATM   21  C1  UNL     1      28.225   5.108  48.510  1.00  0.00     0.091 C 
BRANCH  20  22
HETATM   22  C3  UNL     1      26.374   6.555  48.363  1.00  0.00     0.094 C 
BRANCH  22  23
HETATM   23  N1  UNL     1      27.245   7.626  48.819  1.00  0.00    -0.312 N 
HETATM   24  C4  UNL     1      26.700   8.152  50.035  1.00  0.00     0.116 C 
HETATM   25  C5  UNL     1      27.117   9.586  50.275  1.00  0.00     0.182 C 
HETATM   26  O1  UNL     1      26.676  10.426  49.270  1.00  0.00    -0.389 OA
HETATM   27  C6  UNL     1      26.494   9.853  48.041  1.00  0.00     0.182 C 
HETATM   28  C7  UNL     1      27.349   8.630  47.815  1.00  0.00     0.116 C 
ENDBRANCH  22  23
ENDBRANCH  20  22
ENDBRANCH  17  20
ENDBRANCH   1  16
TORSDOF 6
ENDMDL
MODEL 2
REMARK VINA RESULT:      -8.8      2.416      9.147
REMARK  6 active torsions:
REMARK  status: ('A' for Active; 'I' for Inactive)
REMARK    1  A    between atoms: C2_2  and  C3_3 
REMARK    2  A    between atoms: C2_2  and  C8_10 
REMARK    3  A    between atoms: C3_3  and  N1_4 
REMARK       I    between atoms: C8_10  and  N2_12 
REMARK    4  A    between atoms: N2_12  and  C9_13 
REMARK    5  A    between atoms: C10_14  and  C17_23 
REMARK    6  A    between atoms: C17_23  and  C18_24 
ROOT
HETATM    1  C9  UNL     1      26.793   3.897  49.645  1.00  0.00     0.100 A 
HETATM    2  C10 UNL     1      25.989   4.902  49.281  1.00  0.00     0.073 A 
HETATM    3  C11 UNL     1      26.533   6.066  48.501  1.00  0.00     0.043 A 
HETATM    4  C12 UNL     1      27.440   6.885  47.834  1.00  0.00    -0.042 A 
HETATM    5  C13 UNL     1      27.156   8.042  47.261  1.00  0.00     0.065 A 
HETATM    6  C14 UNL     1      28.240   8.712  46.624  1.00  0.00     0.101 C 
HETATM    7  N3  UNL     1      29.116   9.274  46.118  1.00  0.00    -0.191 NA
HETATM    8  C15 UNL     1      26.027   8.721  47.154  1.00  0.00     0.133 A 
HETATM    9  N4  UNL     1      24.949   8.129  47.746  1.00  0.00    -0.293 NA
HETATM   10  C16 UNL     1      25.282   6.925  48.335  1.00  0.00     0.059 A 
HETATM   11  C17 UNL     1      25.608   5.849  48.853  1.00  0.00     0.135 A 
HETATM   12  C18 UNL     1      26.947   5.087  48.928  1.00  0.00     0.087 A 
HETATM   13  O3  UNL     1      28.396   4.812  48.689  1.00  0.00    -0.378 OA
HETATM   14  C19 UNL     1      29.435   5.524  48.133  1.00  0.00     0.173 A 
HETATM   15  C20 UNL     1      28.902   6.803  47.550  1.00  0.00     0.063 A 
ENDROOT
BRANCH   1  16
HETATM   16  N2  UNL     1      26.387   2.716  50.408  1.00  0.00    -0.342 N 
HETATM   17  C8  UNL     1      25.333   2.662  51.421  1.00  0.00     0.245 C 
HETATM   18  O2  UNL     1      24.515   3.480  51.904  1.00  0.00    -0.268 OA
HETATM   19  H13 UNL     1      26.890   1.852  50.188  1.00  0.00     0.163 HD
BRANCH  17  20
HETATM   20  C2  UNL     1      25.191   1.314  52.045  1.00  0.00    -0.004 C 
HETATM   21  C1  UNL     1      24.225   0.585  52.643  1.00  0.00     0.091 C 
BRANCH  20  22
HETATM   22  C3  UNL     1      26.465   0.524  51.925  1.00  0.00     0.094 C 
BRANCH  22  23
HETATM   23  N1  UNL     1      26.842   0.023  53.236  1.00  0.00    -0.312 N 
HETATM   24  C4  UNL     1      27.712   0.985  53.845  1.00  0.00     0.116 C 
HETATM   25  C5  UNL     1      28.627   0.358  54.874  1.00  0.00     0.182 C 
HETATM   26  O1  UNL     1      29.453  -0.598  54.314  1.00  0.00    -0.389 OA
HETATM   27  C6  UNL     1      28.979  -1.225  53.194  1.00  0.00     0.182 C 
HETATM   28  C7  UNL     1      27.474  -1.247  53.109  1.00  0.00     0.116 C 
ENDBRANCH  22  23
ENDBRANCH  20  22
ENDBRANCH  17  20
ENDBRANCH   1  16
TORSDOF 6
ENDMDL
MODEL 3
REMARK VINA RESULT:      -8.8      1.084      2.185
REMARK  6 active torsions:
REMARK  status: ('A' for Active; 'I' for Inactive)
REMARK    1  A    between atoms: C2_2  and  C3_3 
REMARK    2  A    between atoms: C2_2  and  C8_10 
REMARK    3  A    between atoms: C3_3  and  N1_4 
REMARK       I    between atoms: C8_10  and  N2_12 
REMARK    4  A    between atoms: N2_12  and  C9_13 
REMARK    5  A    between atoms: C10_14  and  C17_23 
REMARK    6  A    between atoms: C17_23  and  C18_24 
ROOT
HETATM    1  C9  UNL     1      25.768   2.664  51.323  1.00  0.00     0.100 A 
HETATM    2  C10 UNL     1      24.497   2.293  51.129  1.00  0.00     0.073 A 
HETATM    3  C11 UNL     1      23.842   1.312  52.061  1.00  0.00     0.043 A 
HETATM    4  C12 UNL     1      23.675   0.424  53.121  1.00  0.00    -0.042 A 
HETATM    5  C13 UNL     1      22.569  -0.243  53.399  1.00  0.00     0.065 A 
HETATM    6  C14 UNL     1      22.618  -1.095  54.541  1.00  0.00     0.101 C 
HETATM    7  N3  UNL     1      22.650  -1.803  55.455  1.00  0.00    -0.191 NA
HETATM    8  C15 UNL     1      21.385  -0.275  52.812  1.00  0.00     0.133 A 
HETATM    9  N4  UNL     1      21.276   0.521  51.709  1.00  0.00    -0.293 NA
HETATM   10  C16 UNL     1      22.448   1.203  51.447  1.00  0.00     0.059 A 
HETATM   11  C17 UNL     1      23.512   1.800  51.237  1.00  0.00     0.135 A 
HETATM   12  C18 UNL     1      24.867   1.818  51.974  1.00  0.00     0.087 A 
HETATM   13  O3  UNL     1      25.873   1.473  53.023  1.00  0.00    -0.378 OA
HETATM   14  C19 UNL     1      25.910   0.582  54.072  1.00  0.00     0.173 A 
HETATM   15  C20 UNL     1      24.563  -0.074  54.210  1.00  0.00     0.063 A 
ENDROOT
BRANCH   1  16
HETATM   16  N2  UNL     1      26.517   3.602  50.486  1.00  0.00    -0.342 N 
HETATM   17  C8  UNL     1      25.948   4.554  49.531  1.00  0.00     0.245 C 
HETATM   18  O2  UNL     1      24.791   4.868  49.165  1.00  0.00    -0.268 OA
HETATM   19  H13 UNL     1      27.533   3.586  50.604  1.00  0.00     0.163 HD
BRANCH  17  20
HETATM   20  C2  UNL     1      26.984   5.342  48.804  1.00  0.00    -0.004 C 
HETATM   21  C1  UNL     1      28.274   5.195  48.430  1.00  0.00     0.091 C 
BRANCH  20  22
HETATM   22  C3  UNL     1      26.421   6.639  48.295  1.00  0.00     0.094 C 
BRANCH  22  23
HETATM   23  N1  UNL     1      27.246   7.738  48.768  1.00  0.00    -0.312 N 
HETATM   24  C4  UNL     1      26.685   8.215  49.997  1.00  0.00     0.116 C 
HETATM   25  C5  UNL     1      27.040   9.661  50.264  1.00  0.00     0.182 C 
HETATM   26  O1  UNL     1      26.558  10.501  49.278  1.00  0.00    -0.389 OA
HETATM   27  C6  UNL     1      26.395   9.945  48.039  1.00  0.00     0.182 C 
HETATM   28  C7  UNL     1      27.300   8.766  47.784  1.00  0.00     0.116 C 
ENDBRANCH  22  23
ENDBRANCH  20  22
ENDBRANCH  17  20
ENDBRANCH   1  16
TORSDOF 6
ENDMDL
MODEL 4
REMARK VINA RESULT:      -8.8      2.182      8.674
REMARK  6 active torsions:
REMARK  status: ('A' for Active; 'I' for Inactive)
REMARK    1  A    between atoms: C2_2  and  C3_3 
REMARK    2  A    between atoms: C2_2  and  C8_10 
REMARK    3  A    between atoms: C3_3  and  N1_4 
REMARK       I    between atoms: C8_10  and  N2_12 
REMARK    4  A    between atoms: N2_12  and  C9_13 
REMARK    5  A    between atoms: C10_14  and  C17_23 
REMARK    6  A    between atoms: C17_23  and  C18_24 
ROOT
HETATM    1  C9  UNL     1      25.003   3.984  49.870  1.00  0.00     0.100 A 
HETATM    2  C10 UNL     1      26.274   4.097  49.470  1.00  0.00     0.073 A 
HETATM    3  C11 UNL     1      26.750   5.355  48.799  1.00  0.00     0.043 A 
HETATM    4  C12 UNL     1      26.728   6.635  48.249  1.00  0.00    -0.042 A 
HETATM    5  C13 UNL     1      27.757   7.254  47.698  1.00  0.00     0.065 A 
HETATM    6  C14 UNL     1      27.510   8.568  47.205  1.00  0.00     0.101 C 
HETATM    7  N3  UNL     1      27.318   9.629  46.786  1.00  0.00    -0.191 NA
HETATM    8  C15 UNL     1      29.013   6.886  47.511  1.00  0.00     0.133 A 
HETATM    9  N4  UNL     1      29.311   5.633  47.963  1.00  0.00    -0.293 NA
HETATM   10  C16 UNL     1      28.214   5.016  48.532  1.00  0.00     0.059 A 
HETATM   11  C17 UNL     1      27.215   4.487  49.036  1.00  0.00     0.135 A 
HETATM   12  C18 UNL     1      25.768   4.975  49.251  1.00  0.00     0.087 A 
HETATM   13  O3  UNL     1      24.606   5.914  49.209  1.00  0.00    -0.378 OA
HETATM   14  C19 UNL     1      24.384   7.153  48.652  1.00  0.00     0.173 A 
HETATM   15  C20 UNL     1      25.672   7.673  48.074  1.00  0.00     0.063 A 
ENDROOT
BRANCH   1  16
HETATM   16  N2  UNL     1      24.419   2.813  50.525  1.00  0.00    -0.342 N 
HETATM   17  C8  UNL     1      23.948   2.742  51.909  1.00  0.00     0.245 C 
HETATM   18  O2  UNL     1      23.872   3.544  52.869  1.00  0.00    -0.268 OA
HETATM   19  H13 UNL     1      24.325   1.978  49.941  1.00  0.00     0.163 HD
BRANCH  17  20
HETATM   20  C2  UNL     1      23.442   1.390  52.285  1.00  0.00    -0.004 C 
HETATM   21  C1  UNL     1      22.489   0.528  51.870  1.00  0.00     0.091 C 
BRANCH  20  22
HETATM   22  C3  UNL     1      24.256   0.797  53.401  1.00  0.00     0.094 C 
BRANCH  22  23
HETATM   23  N1  UNL     1      25.634   0.651  52.962  1.00  0.00    -0.312 N 
HETATM   24  C4  UNL     1      25.896  -0.746  52.783  1.00  0.00     0.116 C 
HETATM   25  C5  UNL     1      27.366  -1.075  52.930  1.00  0.00     0.182 C 
HETATM   26  O1  UNL     1      27.841  -0.759  54.189  1.00  0.00    -0.389 OA
HETATM   27  C6  UNL     1      27.190   0.248  54.845  1.00  0.00     0.182 C 
HETATM   28  C7  UNL     1      26.514   1.230  53.921  1.00  0.00     0.116 C 
ENDBRANCH  22  23
ENDBRANCH  20  22
ENDBRANCH  17  20
ENDBRANCH   1  16
TORSDOF 6
ENDMDL
MODEL 5
REMARK VINA RESULT:      -8.6      2.103      8.779
REMARK  6 active torsions:
REMARK  status: ('A' for Active; 'I' for Inactive)
REMARK    1  A    between atoms: C2_2  and  C3_3 
REMARK    2  A    between atoms: C2_2  and  C8_10 
REMARK    3  A    between atoms: C3_3  and  N1_4 
REMARK       I    between atoms: C8_10  and  N2_12 
REMARK    4  A    between atoms: N2_12  and  C9_13 
REMARK    5  A    between atoms: C10_14  and  C17_23 
REMARK    6  A    between atoms: C17_23  and  C18_24 
ROOT
HETATM    1  C9  UNL     1      25.861   3.803  49.943  1.00  0.00     0.100 A 
HETATM    2  C10 UNL     1      26.989   4.267  49.394  1.00  0.00     0.073 A 
HETATM    3  C11 UNL     1      26.993   5.578  48.659  1.00  0.00     0.043 A 
HETATM    4  C12 UNL     1      26.530   6.767  48.101  1.00  0.00    -0.042 A 
HETATM    5  C13 UNL     1      27.262   7.636  47.426  1.00  0.00     0.065 A 
HETATM    6  C14 UNL     1      26.583   8.796  46.951  1.00  0.00     0.101 C 
HETATM    7  N3  UNL     1      26.039   9.733  46.546  1.00  0.00    -0.191 NA
HETATM    8  C15 UNL     1      28.542   7.646  47.096  1.00  0.00     0.133 A 
HETATM    9  N4  UNL     1      29.247   6.559  47.523  1.00  0.00    -0.293 NA
HETATM   10  C16 UNL     1      28.453   5.672  48.224  1.00  0.00     0.059 A 
HETATM   11  C17 UNL     1      27.718   4.897  48.849  1.00  0.00     0.135 A 
HETATM   12  C18 UNL     1      26.224   4.946  49.227  1.00  0.00     0.087 A 
HETATM   13  O3  UNL     1      24.838   5.499  49.313  1.00  0.00    -0.378 OA
HETATM   14  C19 UNL     1      24.197   6.590  48.772  1.00  0.00     0.173 A 
HETATM   15  C20 UNL     1      25.201   7.439  48.040  1.00  0.00     0.063 A 
ENDROOT
BRANCH   1  16
HETATM   16  N2  UNL     1      25.727   2.543  50.675  1.00  0.00    -0.342 N 
HETATM   17  C8  UNL     1      26.650   2.029  51.688  1.00  0.00     0.245 C 
HETATM   18  O2  UNL     1      27.710   2.437  52.219  1.00  0.00    -0.268 OA
HETATM   19  H13 UNL     1      24.896   1.989  50.455  1.00  0.00     0.163 HD
BRANCH  17  20
HETATM   20  C2  UNL     1      26.251   0.694  52.219  1.00  0.00    -0.004 C 
HETATM   21  C1  UNL     1      26.617  -0.596  52.061  1.00  0.00     0.091 C 
BRANCH  20  22
HETATM   22  C3  UNL     1      25.179   0.825  53.266  1.00  0.00     0.094 C 
BRANCH  22  23
HETATM   23  N1  UNL     1      23.891   0.508  52.673  1.00  0.00    -0.312 N 
HETATM   24  C4  UNL     1      23.038   1.648  52.831  1.00  0.00     0.116 C 
HETATM   25  C5  UNL     1      21.573   1.271  52.830  1.00  0.00     0.182 C 
HETATM   26  O1  UNL     1      21.260   0.418  53.871  1.00  0.00    -0.389 OA
HETATM   27  C6  UNL     1      22.277  -0.373  54.331  1.00  0.00     0.182 C 
HETATM   28  C7  UNL     1      23.339  -0.648  53.296  1.00  0.00     0.116 C 
ENDBRANCH  22  23
ENDBRANCH  20  22
ENDBRANCH  17  20
ENDBRANCH   1  16
TORSDOF 6
ENDMDL
MODEL 6
REMARK VINA RESULT:      -8.5      2.457      3.110
REMARK  6 active torsions:
REMARK  status: ('A' for Active; 'I' for Inactive)
REMARK    1  A    between atoms: C2_2  and  C3_3 
REMARK    2  A    between atoms: C2_2  and  C8_10 
REMARK    3  A    between atoms: C3_3  and  N1_4 
REMARK       I    between atoms: C8_10  and  N2_12 
REMARK    4  A    between atoms: N2_12  and  C9_13 
REMARK    5  A    between atoms: C10_14  and  C17_23 
REMARK    6  A    between atoms: C17_23  and  C18_24 
ROOT
HETATM    1  C9  UNL     1      25.635   4.099  50.596  1.00  0.00     0.100 A 
HETATM    2  C10 UNL     1      26.311   2.993  50.924  1.00  0.00     0.073 A 
HETATM    3  C11 UNL     1      25.640   1.897  51.704  1.00  0.00     0.043 A 
HETATM    4  C12 UNL     1      24.655   1.197  52.397  1.00  0.00    -0.042 A 
HETATM    5  C13 UNL     1      24.802   0.006  52.949  1.00  0.00     0.065 A 
HETATM    6  C14 UNL     1      23.655  -0.530  53.605  1.00  0.00     0.101 C 
HETATM    7  N3  UNL     1      22.736  -0.967  54.155  1.00  0.00    -0.191 NA
HETATM    8  C15 UNL     1      25.834  -0.818  53.013  1.00  0.00     0.133 A 
HETATM    9  N4  UNL     1      26.965  -0.360  52.402  1.00  0.00    -0.293 NA
HETATM   10  C16 UNL     1      26.777   0.886  51.836  1.00  0.00     0.059 A 
HETATM   11  C17 UNL     1      26.580   2.002  51.339  1.00  0.00     0.135 A 
HETATM   12  C18 UNL     1      25.338   2.915  51.275  1.00  0.00     0.087 A 
HETATM   13  O3  UNL     1      23.923   3.341  51.498  1.00  0.00    -0.378 OA
HETATM   14  C19 UNL     1      22.860   2.829  52.207  1.00  0.00     0.173 A 
HETATM   15  C20 UNL     1      23.237   1.482  52.758  1.00  0.00     0.063 A 
ENDROOT
BRANCH   1  16
HETATM   16  N2  UNL     1      26.176   5.236  49.848  1.00  0.00    -0.342 N 
HETATM   17  C8  UNL     1      27.310   5.202  48.925  1.00  0.00     0.245 C 
HETATM   18  O2  UNL     1      28.088   4.317  48.498  1.00  0.00    -0.268 OA
HETATM   19  H13 UNL     1      25.692   6.127  49.987  1.00  0.00     0.163 HD
BRANCH  17  20
HETATM   20  C2  UNL     1      27.637   6.540  48.353  1.00  0.00    -0.004 C 
HETATM   21  C1  UNL     1      27.095   7.777  48.325  1.00  0.00     0.091 C 
BRANCH  20  22
HETATM   22  C3  UNL     1      28.972   6.523  47.661  1.00  0.00     0.094 C 
BRANCH  22  23
HETATM   23  N1  UNL     1      29.945   7.226  48.482  1.00  0.00    -0.312 N 
HETATM   24  C4  UNL     1      30.549   8.245  47.676  1.00  0.00     0.116 C 
HETATM   25  C5  UNL     1      31.931   8.617  48.167  1.00  0.00     0.182 C 
HETATM   26  O1  UNL     1      32.798   7.542  48.129  1.00  0.00    -0.389 OA
HETATM   27  C6  UNL     1      32.229   6.303  48.241  1.00  0.00     0.182 C 
HETATM   28  C7  UNL     1      30.914   6.309  48.980  1.00  0.00     0.116 C 
ENDBRANCH  22  23
ENDBRANCH  20  22
ENDBRANCH  17  20
ENDBRANCH   1  16
TORSDOF 6
ENDMDL
MODEL 7
REMARK VINA RESULT:      -8.4      2.891      4.309
REMARK  6 active torsions:
REMARK  status: ('A' for Active; 'I' for Inactive)
REMARK    1  A    between atoms: C2_2  and  C3_3 
REMARK    2  A    between atoms: C2_2  and  C8_10 
REMARK    3  A    between atoms: C3_3  and  N1_4 
REMARK       I    between atoms: C8_10  and  N2_12 
REMARK    4  A    between atoms: N2_12  and  C9_13 
REMARK    5  A    between atoms: C10_14  and  C17_23 
REMARK    6  A    between atoms: C17_23  and  C18_24 
ROOT
HETATM    1  C9  UNL     1      26.856   4.093  49.545  1.00  0.00     0.100 A 
HETATM    2  C10 UNL     1      25.558   3.777  49.475  1.00  0.00     0.073 A 
HETATM    3  C11 UNL     1      24.958   2.807  50.453  1.00  0.00     0.043 A 
HETATM    4  C12 UNL     1      24.861   1.907  51.511  1.00  0.00    -0.042 A 
HETATM    5  C13 UNL     1      23.761   1.280  51.890  1.00  0.00     0.065 A 
HETATM    6  C14 UNL     1      23.887   0.406  53.009  1.00  0.00     0.101 C 
HETATM    7  N3  UNL     1      23.981  -0.319  53.905  1.00  0.00    -0.191 NA
HETATM    8  C15 UNL     1      22.524   1.307  51.424  1.00  0.00     0.133 A 
HETATM    9  N4  UNL     1      22.339   2.127  50.349  1.00  0.00    -0.293 NA
HETATM   10  C16 UNL     1      23.507   2.765  49.981  1.00  0.00     0.059 A 
HETATM   11  C17 UNL     1      24.568   3.323  49.673  1.00  0.00     0.135 A 
HETATM   12  C18 UNL     1      25.990   3.272  50.271  1.00  0.00     0.087 A 
HETATM   13  O3  UNL     1      27.080   2.868  51.209  1.00  0.00    -0.378 OA
HETATM   14  C19 UNL     1      27.184   1.957  52.236  1.00  0.00     0.173 A 
HETATM   15  C20 UNL     1      25.831   1.354  52.499  1.00  0.00     0.063 A 
ENDROOT
BRANCH   1  16
HETATM   16  N2  UNL     1      27.557   5.015  48.650  1.00  0.00    -0.342 N 
HETATM   17  C8  UNL     1      27.460   6.475  48.665  1.00  0.00     0.245 C 
HETATM   18  O2  UNL     1      26.851   7.323  49.359  1.00  0.00    -0.268 OA
HETATM   19  H13 UNL     1      28.180   4.580  47.966  1.00  0.00     0.163 HD
BRANCH  17  20
HETATM   20  C2  UNL     1      28.271   7.125  47.595  1.00  0.00    -0.004 C 
HETATM   21  C1  UNL     1      28.143   8.152  46.727  1.00  0.00     0.091 C 
BRANCH  20  22
HETATM   22  C3  UNL     1      29.634   6.499  47.492  1.00  0.00     0.094 C 
BRANCH  22  23
HETATM   23  N1  UNL     1      30.476   7.007  48.562  1.00  0.00    -0.312 N 
HETATM   24  C4  UNL     1      31.367   7.978  48.002  1.00  0.00     0.116 C 
HETATM   25  C5  UNL     1      32.638   8.122  48.810  1.00  0.00     0.182 C 
HETATM   26  O1  UNL     1      33.352   6.940  48.862  1.00  0.00    -0.389 OA
HETATM   27  C6  UNL     1      32.624   5.789  48.736  1.00  0.00     0.182 C 
HETATM   28  C7  UNL     1      31.188   5.934  49.172  1.00  0.00     0.116 C 
ENDBRANCH  22  23
ENDBRANCH  20  22
ENDBRANCH  17  20
ENDBRANCH   1  16
TORSDOF 6
ENDMDL
MODEL 8
REMARK VINA RESULT:      -8.2      4.088      7.762
REMARK  6 active torsions:
REMARK  status: ('A' for Active; 'I' for Inactive)
REMARK    1  A    between atoms: C2_2  and  C3_3 
REMARK    2  A    between atoms: C2_2  and  C8_10 
REMARK    3  A    between atoms: C3_3  and  N1_4 
REMARK       I    between atoms: C8_10  and  N2_12 
REMARK    4  A    between atoms: N2_12  and  C9_13 
REMARK    5  A    between atoms: C10_14  and  C17_23 
REMARK    6  A    between atoms: C17_23  and  C18_24 
ROOT
HETATM    1  C9  UNL     1      22.121   0.840  51.944  1.00  0.00     0.100 A 
HETATM    2  C10 UNL     1      22.872   0.187  52.837  1.00  0.00     0.073 A 
HETATM    3  C11 UNL     1      24.311   0.568  53.043  1.00  0.00     0.043 A 
HETATM    4  C12 UNL     1      25.524   1.235  52.886  1.00  0.00    -0.042 A 
HETATM    5  C13 UNL     1      26.635   0.976  53.553  1.00  0.00     0.065 A 
HETATM    6  C14 UNL     1      27.762   1.791  53.239  1.00  0.00     0.101 C 
HETATM    7  N3  UNL     1      28.688   2.435  52.980  1.00  0.00    -0.191 NA
HETATM    8  C15 UNL     1      26.919   0.085  54.488  1.00  0.00     0.133 A 
HETATM    9  N4  UNL     1      25.878  -0.727  54.833  1.00  0.00    -0.293 NA
HETATM   10  C16 UNL     1      24.734  -0.430  54.118  1.00  0.00     0.059 A 
HETATM   11  C17 UNL     1      23.724  -0.142  53.463  1.00  0.00     0.135 A 
HETATM   12  C18 UNL     1      23.441   0.931  52.392  1.00  0.00     0.087 A 
HETATM   13  O3  UNL     1      23.720   2.085  51.485  1.00  0.00    -0.378 OA
HETATM   14  C19 UNL     1      24.848   2.800  51.150  1.00  0.00     0.173 A 
HETATM   15  C20 UNL     1      25.994   2.347  52.012  1.00  0.00     0.063 A 
ENDROOT
BRANCH   1  16
HETATM   16  N2  UNL     1      20.714   0.561  51.649  1.00  0.00    -0.342 N 
HETATM   17  C8  UNL     1      19.767  -0.126  52.526  1.00  0.00     0.245 C 
HETATM   18  O2  UNL     1      19.813  -0.624  53.676  1.00  0.00    -0.268 OA
HETATM   19  H13 UNL     1      20.376   0.899  50.744  1.00  0.00     0.163 HD
BRANCH  17  20
HETATM   20  C2  UNL     1      18.416  -0.289  51.914  1.00  0.00    -0.004 C 
HETATM   21  C1  UNL     1      17.259  -0.925  52.198  1.00  0.00     0.091 C 
BRANCH  20  22
HETATM   22  C3  UNL     1      18.287   0.530  50.660  1.00  0.00     0.094 C 
BRANCH  22  23
HETATM   23  N1  UNL     1      17.185   1.466  50.812  1.00  0.00    -0.312 N 
HETATM   24  C4  UNL     1      16.589   1.660  49.523  1.00  0.00     0.116 C 
HETATM   25  C5  UNL     1      15.885   2.995  49.415  1.00  0.00     0.182 C 
HETATM   26  O1  UNL     1      16.757   4.053  49.591  1.00  0.00    -0.389 OA
HETATM   27  C6  UNL     1      17.860   3.804  50.360  1.00  0.00     0.182 C 
HETATM   28  C7  UNL     1      17.660   2.692  51.359  1.00  0.00     0.116 C 
ENDBRANCH  22  23
ENDBRANCH  20  22
ENDBRANCH  17  20
ENDBRANCH   1  16
TORSDOF 6
ENDMDL
MODEL 9
REMARK VINA RESULT:      -8.2      5.135      8.528
REMARK  6 active torsions:
REMARK  status: ('A' for Active; 'I' for Inactive)
REMARK    1  A    between atoms: C2_2  and  C3_3 
REMARK    2  A    between atoms: C2_2  and  C8_10 
REMARK    3  A    between atoms: C3_3  and  N1_4 
REMARK       I    between atoms: C8_10  and  N2_12 
REMARK    4  A    between atoms: N2_12  and  C9_13 
REMARK    5  A    between atoms: C10_14  and  C17_23 
REMARK    6  A    between atoms: C17_23  and  C18_24 
ROOT
HETATM    1  C9  UNL     1      20.745   0.286  51.882  1.00  0.00     0.100 A 
HETATM    2  C10 UNL     1      21.067  -0.378  52.997  1.00  0.00     0.073 A 
HETATM    3  C11 UNL     1      22.480  -0.363  53.509  1.00  0.00     0.043 A 
HETATM    4  C12 UNL     1      23.842  -0.080  53.586  1.00  0.00    -0.042 A 
HETATM    5  C13 UNL     1      24.664  -0.505  54.529  1.00  0.00     0.065 A 
HETATM    6  C14 UNL     1      26.021  -0.085  54.417  1.00  0.00     0.101 C 
HETATM    7  N3  UNL     1      27.129   0.235  54.327  1.00  0.00    -0.191 NA
HETATM    8  C15 UNL     1      24.470  -1.264  55.595  1.00  0.00     0.133 A 
HETATM    9  N4  UNL     1      23.187  -1.699  55.757  1.00  0.00    -0.293 NA
HETATM   10  C16 UNL     1      22.356  -1.237  54.754  1.00  0.00     0.059 A 
HETATM   11  C17 UNL     1      21.634  -0.809  53.845  1.00  0.00     0.135 A 
HETATM   12  C18 UNL     1      21.911   0.100  52.629  1.00  0.00     0.087 A 
HETATM   13  O3  UNL     1      22.702   0.964  51.701  1.00  0.00    -0.378 OA
HETATM   14  C19 UNL     1      24.035   1.285  51.580  1.00  0.00     0.173 A 
HETATM   15  C20 UNL     1      24.791   0.700  52.741  1.00  0.00     0.063 A 
ENDROOT
BRANCH   1  16
HETATM   16  N2  UNL     1      19.412   0.344  51.280  1.00  0.00    -0.342 N 
HETATM   17  C8  UNL     1      18.212  -0.335  51.771  1.00  0.00     0.245 C 
HETATM   18  O2  UNL     1      17.941  -1.077  52.745  1.00  0.00    -0.268 OA
HETATM   19  H13 UNL     1      19.327   0.931  50.447  1.00  0.00     0.163 HD
BRANCH  17  20
HETATM   20  C2  UNL     1      17.017  -0.106  50.909  1.00  0.00    -0.004 C 
HETATM   21  C1  UNL     1      16.652  -0.323  49.627  1.00  0.00     0.091 C 
BRANCH  20  22
HETATM   22  C3  UNL     1      15.881   0.478  51.700  1.00  0.00     0.094 C 
BRANCH  22  23
HETATM   23  N1  UNL     1      15.636   1.839  51.252  1.00  0.00    -0.312 N 
HETATM   24  C4  UNL     1      16.677   2.672  51.778  1.00  0.00     0.116 C 
HETATM   25  C5  UNL     1      16.241   4.114  51.914  1.00  0.00     0.182 C 
HETATM   26  O1  UNL     1      15.174   4.250  52.783  1.00  0.00    -0.389 OA
HETATM   27  C6  UNL     1      14.352   3.163  52.904  1.00  0.00     0.182 C 
HETATM   28  C7  UNL     1      14.350   2.271  51.688  1.00  0.00     0.116 C 
ENDBRANCH  22  23
ENDBRANCH  20  22
ENDBRANCH  17  20
ENDBRANCH   1  16
TORSDOF 6
ENDMDL
