MODEL 1
REMARK VINA RESULT:      -7.4      0.000      0.000
REMARK  4 active torsions:
REMARK  status: ('A' for Active; 'I' for Inactive)
REMARK    1  A    between atoms: N1_2  and  C3_4 
REMARK    2  A    between atoms: C3_4  and  C4_5 
REMARK    3  A    between atoms: C4_5  and  C5_6 
REMARK    4  A    between atoms: C5_6  and  C6_7 
REMARK       I    between atoms: C6_7  and  N2_9 
ROOT
HETATM    1  C6  UNL     1      25.971   0.795  52.028  1.00  0.00     0.223 C 
HETATM    2  O1  UNL     1      26.939   1.415  51.519  1.00  0.00    -0.273 OA
HETATM    3  N2  UNL     1      24.643   1.360  52.317  1.00  0.00    -0.328 N 
HETATM    4  C7  UNL     1      23.704   0.471  52.914  1.00  0.00     0.078 C 
HETATM    5  C8  UNL     1      22.420   0.687  52.539  1.00  0.00     0.083 C 
HETATM    6  C9  UNL     1      20.987   0.431  52.540  1.00  0.00     0.050 C 
HETATM    7  C10 UNL     1      20.093  -0.512  53.234  1.00  0.00     0.097 C 
HETATM    8  N3  UNL     1      19.397  -1.276  53.787  1.00  0.00    -0.192 NA
HETATM    9  C11 UNL     1      20.433   1.273  51.707  1.00  0.00     0.137 C 
HETATM   10  N4  UNL     1      19.760   2.167  50.811  1.00  0.00    -0.255 NA
HETATM   11  C12 UNL     1      19.898   2.054  49.509  1.00  0.00     0.202 C 
HETATM   12  N5  UNL     1      19.840   2.193  48.074  1.00  0.00    -0.381 N 
HETATM   13  C13 UNL     1      20.428   3.492  47.845  1.00  0.00     0.147 C 
HETATM   14  C14 UNL     1      21.863   3.587  48.144  1.00  0.00    -0.007 C 
HETATM   15  C15 UNL     1      23.147   3.695  48.340  1.00  0.00    -0.003 C 
HETATM   16  C16 UNL     1      24.133   3.506  49.372  1.00  0.00    -0.003 C 
HETATM   17  C17 UNL     1      24.200   3.108  50.615  1.00  0.00    -0.007 C 
HETATM   18  C18 UNL     1      24.699   2.756  51.938  1.00  0.00     0.158 C 
HETATM   19  H17 UNL     1      19.442   1.488  47.422  1.00  0.00     0.160 HD
ENDROOT
BRANCH   1  20
HETATM   20  C5  UNL     1      26.279  -0.620  52.333  1.00  0.00     0.105 C 
BRANCH  20  21
HETATM   21  C4  UNL     1      27.530  -0.821  53.100  1.00  0.00     0.039 C 
BRANCH  21  22
HETATM   22  C3  UNL     1      27.609  -0.077  54.398  1.00  0.00     0.271 C 
BRANCH  22  23
HETATM   23  N1  UNL     1      29.021   0.298  54.573  1.00  0.00     0.080 N 
HETATM   24  C1  UNL     1      29.144   1.687  54.221  1.00  0.00     0.309 C 
HETATM   25  C2  UNL     1      29.869  -0.483  53.679  1.00  0.00     0.309 C 
ENDBRANCH  22  23
ENDBRANCH  21  22
ENDBRANCH  20  21
ENDBRANCH   1  20
TORSDOF 4
ENDMDL
MODEL 2
REMARK VINA RESULT:      -7.3      3.608      5.538
REMARK  4 active torsions:
REMARK  status: ('A' for Active; 'I' for Inactive)
REMARK    1  A    between atoms: N1_2  and  C3_4 
REMARK    2  A    between atoms: C3_4  and  C4_5 
REMARK    3  A    between atoms: C4_5  and  C5_6 
REMARK    4  A    between atoms: C5_6  and  C6_7 
REMARK       I    between atoms: C6_7  and  N2_9 
ROOT
HETATM    1  C6  UNL     1      24.680   1.896  52.577  1.00  0.00     0.223 C 
HETATM    2  O1  UNL     1      23.634   1.556  53.186  1.00  0.00    -0.273 OA
HETATM    3  N2  UNL     1      24.739   2.481  51.228  1.00  0.00    -0.328 N 
HETATM    4  C7  UNL     1      26.042   2.772  50.730  1.00  0.00     0.078 C 
HETATM    5  C8  UNL     1      26.100   3.865  49.933  1.00  0.00     0.083 C 
HETATM    6  C9  UNL     1      26.766   4.840  49.081  1.00  0.00     0.050 C 
HETATM    7  C10 UNL     1      28.142   5.036  48.593  1.00  0.00     0.097 C 
HETATM    8  N3  UNL     1      29.243   5.183  48.221  1.00  0.00    -0.192 NA
HETATM    9  C11 UNL     1      25.869   5.712  48.701  1.00  0.00     0.137 C 
HETATM   10  N4  UNL     1      24.939   6.704  48.246  1.00  0.00    -0.255 NA
HETATM   11  C12 UNL     1      24.437   7.594  49.072  1.00  0.00     0.202 C 
HETATM   12  N5  UNL     1      23.726   8.678  49.703  1.00  0.00    -0.381 N 
HETATM   13  C13 UNL     1      22.342   8.293  49.559  1.00  0.00     0.147 C 
HETATM   14  C14 UNL     1      21.939   7.115  50.340  1.00  0.00    -0.007 C 
HETATM   15  C15 UNL     1      21.530   6.111  51.063  1.00  0.00    -0.003 C 
HETATM   16  C16 UNL     1      21.822   4.722  51.302  1.00  0.00    -0.003 C 
HETATM   17  C17 UNL     1      22.668   3.807  50.908  1.00  0.00    -0.007 C 
HETATM   18  C18 UNL     1      23.375   2.543  50.746  1.00  0.00     0.158 C 
HETATM   19  H17 UNL     1      24.171   9.517  50.129  1.00  0.00     0.160 HD
ENDROOT
BRANCH   1  20
HETATM   20  C5  UNL     1      25.915   1.652  53.356  1.00  0.00     0.105 C 
BRANCH  20  21
HETATM   21  C4  UNL     1      26.287   0.223  53.478  1.00  0.00     0.039 C 
BRANCH  21  22
HETATM   22  C3  UNL     1      27.537  -0.174  52.756  1.00  0.00     0.271 C 
BRANCH  22  23
HETATM   23  N1  UNL     1      28.532  -0.486  53.795  1.00  0.00     0.080 N 
HETATM   24  C1  UNL     1      29.380   0.666  53.938  1.00  0.00     0.309 C 
HETATM   25  C2  UNL     1      29.354  -1.619  53.386  1.00  0.00     0.309 C 
ENDBRANCH  22  23
ENDBRANCH  21  22
ENDBRANCH  20  21
ENDBRANCH   1  20
TORSDOF 4
ENDMDL
MODEL 3
REMARK VINA RESULT:      -7.1      2.886      7.278
REMARK  4 active torsions:
REMARK  status: ('A' for Active; 'I' for Inactive)
REMARK    1  A    between atoms: N1_2  and  C3_4 
REMARK    2  A    between atoms: C3_4  and  C4_5 
REMARK    3  A    between atoms: C4_5  and  C5_6 
REMARK    4  A    between atoms: C5_6  and  C6_7 
REMARK       I    between atoms: C6_7  and  N2_9 
ROOT
HETATM    1  C6  UNL     1      19.322   1.824  49.936  1.00  0.00     0.223 C 
HETATM    2  O1  UNL     1      19.175   2.500  48.887  1.00  0.00    -0.273 OA
HETATM    3  N2  UNL     1      20.461   0.944  50.242  1.00  0.00    -0.328 N 
HETATM    4  C7  UNL     1      20.405   0.261  51.490  1.00  0.00     0.078 C 
HETATM    5  C8  UNL     1      21.612   0.074  52.076  1.00  0.00     0.083 C 
HETATM    6  C9  UNL     1      22.510  -0.399  53.119  1.00  0.00     0.050 C 
HETATM    7  C10 UNL     1      22.350  -1.140  54.382  1.00  0.00     0.097 C 
HETATM    8  N3  UNL     1      22.202  -1.722  55.388  1.00  0.00    -0.192 NA
HETATM    9  C11 UNL     1      23.724  -0.045  52.787  1.00  0.00     0.137 C 
HETATM   10  N4  UNL     1      25.080   0.309  52.484  1.00  0.00    -0.255 NA
HETATM   11  C12 UNL     1      25.483   1.559  52.540  1.00  0.00     0.202 C 
HETATM   12  N5  UNL     1      26.221   2.798  52.511  1.00  0.00    -0.381 N 
HETATM   13  C13 UNL     1      26.593   2.927  51.122  1.00  0.00     0.147 C 
HETATM   14  C14 UNL     1      25.477   3.167  50.197  1.00  0.00    -0.007 C 
HETATM   15  C15 UNL     1      24.521   3.441  49.355  1.00  0.00    -0.003 C 
HETATM   16  C16 UNL     1      23.260   2.920  48.898  1.00  0.00    -0.003 C 
HETATM   17  C17 UNL     1      22.459   1.915  49.139  1.00  0.00    -0.007 C 
HETATM   18  C18 UNL     1      21.336   0.988  49.089  1.00  0.00     0.158 C 
HETATM   19  H17 UNL     1      26.413   3.399  53.338  1.00  0.00     0.160 HD
ENDROOT
BRANCH   1  20
HETATM   20  C5  UNL     1      18.206   1.986  50.895  1.00  0.00     0.105 C 
BRANCH  20  21
HETATM   21  C4  UNL     1      16.949   1.317  50.487  1.00  0.00     0.039 C 
BRANCH  21  22
HETATM   22  C3  UNL     1      16.828  -0.118  50.899  1.00  0.00     0.271 C 
BRANCH  22  23
HETATM   23  N1  UNL     1      16.730  -0.118  52.368  1.00  0.00     0.080 N 
HETATM   24  C1  UNL     1      17.261  -1.371  52.834  1.00  0.00     0.309 C 
HETATM   25  C2  UNL     1      15.336  -0.022  52.784  1.00  0.00     0.309 C 
ENDBRANCH  22  23
ENDBRANCH  21  22
ENDBRANCH  20  21
ENDBRANCH   1  20
TORSDOF 4
ENDMDL
MODEL 4
REMARK VINA RESULT:      -7.0      2.707      8.100
REMARK  4 active torsions:
REMARK  status: ('A' for Active; 'I' for Inactive)
REMARK    1  A    between atoms: N1_2  and  C3_4 
REMARK    2  A    between atoms: C3_4  and  C4_5 
REMARK    3  A    between atoms: C4_5  and  C5_6 
REMARK    4  A    between atoms: C5_6  and  C6_7 
REMARK       I    between atoms: C6_7  and  N2_9 
ROOT
HETATM    1  C6  UNL     1      21.313   2.196  49.321  1.00  0.00     0.223 C 
HETATM    2  O1  UNL     1      20.298   1.618  49.784  1.00  0.00    -0.273 OA
HETATM    3  N2  UNL     1      22.408   2.779  50.113  1.00  0.00    -0.328 N 
HETATM    4  C7  UNL     1      23.451   3.402  49.370  1.00  0.00     0.078 C 
HETATM    5  C8  UNL     1      24.680   3.282  49.929  1.00  0.00     0.083 C 
HETATM    6  C9  UNL     1      26.118   3.492  50.006  1.00  0.00     0.050 C 
HETATM    7  C10 UNL     1      27.118   4.195  49.185  1.00  0.00     0.097 C 
HETATM    8  N3  UNL     1      27.902   4.752  48.515  1.00  0.00    -0.192 NA
HETATM    9  C11 UNL     1      26.550   2.884  51.080  1.00  0.00     0.137 C 
HETATM   10  N4  UNL     1      27.093   2.241  52.241  1.00  0.00    -0.255 NA
HETATM   11  C12 UNL     1      27.162   0.931  52.322  1.00  0.00     0.202 C 
HETATM   12  N5  UNL     1      27.373  -0.441  52.711  1.00  0.00    -0.381 N 
HETATM   13  C13 UNL     1      26.516  -0.593  53.864  1.00  0.00     0.147 C 
HETATM   14  C14 UNL     1      25.076  -0.531  53.582  1.00  0.00    -0.007 C 
HETATM   15  C15 UNL     1      23.791  -0.543  53.363  1.00  0.00    -0.003 C 
HETATM   16  C16 UNL     1      22.755   0.273  52.786  1.00  0.00    -0.003 C 
HETATM   17  C17 UNL     1      22.625   1.423  52.179  1.00  0.00    -0.007 C 
HETATM   18  C18 UNL     1      22.058   2.585  51.504  1.00  0.00     0.158 C 
HETATM   19  H17 UNL     1      28.017  -1.105  52.234  1.00  0.00     0.160 HD
ENDROOT
BRANCH   1  20
HETATM   20  C5  UNL     1      21.328   2.254  47.842  1.00  0.00     0.105 C 
BRANCH  20  21
HETATM   21  C4  UNL     1      20.304   3.150  47.256  1.00  0.00     0.039 C 
BRANCH  21  22
HETATM   22  C3  UNL     1      20.679   4.599  47.203  1.00  0.00     0.271 C 
BRANCH  22  23
HETATM   23  N1  UNL     1      21.896   4.680  46.379  1.00  0.00     0.080 N 
HETATM   24  C1  UNL     1      22.459   5.989  46.572  1.00  0.00     0.309 C 
HETATM   25  C2  UNL     1      21.565   4.521  44.968  1.00  0.00     0.309 C 
ENDBRANCH  22  23
ENDBRANCH  21  22
ENDBRANCH  20  21
ENDBRANCH   1  20
TORSDOF 4
ENDMDL
MODEL 5
REMARK VINA RESULT:      -7.0      7.445      9.520
REMARK  4 active torsions:
REMARK  status: ('A' for Active; 'I' for Inactive)
REMARK    1  A    between atoms: N1_2  and  C3_4 
REMARK    2  A    between atoms: C3_4  and  C4_5 
REMARK    3  A    between atoms: C4_5  and  C5_6 
REMARK    4  A    between atoms: C5_6  and  C6_7 
REMARK       I    between atoms: C6_7  and  N2_9 
ROOT
HETATM    1  C6  UNL     1      31.005   6.224  48.752  1.00  0.00     0.223 C 
HETATM    2  O1  UNL     1      31.141   4.976  48.675  1.00  0.00    -0.273 OA
HETATM    3  N2  UNL     1      29.856   6.997  48.257  1.00  0.00    -0.328 N 
HETATM    4  C7  UNL     1      29.928   8.408  48.439  1.00  0.00     0.078 C 
HETATM    5  C8  UNL     1      28.732   9.000  48.672  1.00  0.00     0.083 C 
HETATM    6  C9  UNL     1      27.849  10.127  48.932  1.00  0.00     0.050 C 
HETATM    7  C10 UNL     1      28.024  11.583  49.072  1.00  0.00     0.097 C 
HETATM    8  N3  UNL     1      28.183  12.738  49.191  1.00  0.00    -0.192 NA
HETATM    9  C11 UNL     1      26.635   9.659  49.061  1.00  0.00     0.137 C 
HETATM   10  N4  UNL     1      25.280   9.215  49.213  1.00  0.00    -0.255 NA
HETATM   11  C12 UNL     1      24.906   8.527  50.268  1.00  0.00     0.202 C 
HETATM   12  N5  UNL     1      24.195   7.777  51.275  1.00  0.00    -0.381 N 
HETATM   13  C13 UNL     1      23.791   6.582  50.572  1.00  0.00     0.147 C 
HETATM   14  C14 UNL     1      24.889   5.685  50.187  1.00  0.00    -0.007 C 
HETATM   15  C15 UNL     1      25.830   4.837  49.881  1.00  0.00    -0.003 C 
HETATM   16  C16 UNL     1      27.069   4.767  49.151  1.00  0.00    -0.003 C 
HETATM   17  C17 UNL     1      27.853   5.548  48.456  1.00  0.00    -0.007 C 
HETATM   18  C18 UNL     1      28.955   6.046  47.642  1.00  0.00     0.158 C 
HETATM   19  H17 UNL     1      24.036   8.093  52.253  1.00  0.00     0.160 HD
ENDROOT
BRANCH   1  20
HETATM   20  C5  UNL     1      32.148   6.895  49.411  1.00  0.00     0.105 C 
BRANCH  20  21
HETATM   21  C4  UNL     1      33.380   6.952  48.590  1.00  0.00     0.039 C 
BRANCH  21  22
HETATM   22  C3  UNL     1      34.443   5.966  48.966  1.00  0.00     0.271 C 
BRANCH  22  23
HETATM   23  N1  UNL     1      34.885   5.339  47.710  1.00  0.00     0.080 N 
HETATM   24  C1  UNL     1      34.047   5.845  46.657  1.00  0.00     0.309 C 
HETATM   25  C2  UNL     1      34.718   3.892  47.779  1.00  0.00     0.309 C 
ENDBRANCH  22  23
ENDBRANCH  21  22
ENDBRANCH  20  21
ENDBRANCH   1  20
TORSDOF 4
ENDMDL
MODEL 6
REMARK VINA RESULT:      -6.9      3.376      8.508
REMARK  4 active torsions:
REMARK  status: ('A' for Active; 'I' for Inactive)
REMARK    1  A    between atoms: N1_2  and  C3_4 
REMARK    2  A    between atoms: C3_4  and  C4_5 
REMARK    3  A    between atoms: C4_5  and  C5_6 
REMARK    4  A    between atoms: C5_6  and  C6_7 
REMARK       I    between atoms: C6_7  and  N2_9 
ROOT
HETATM    1  C6  UNL     1      19.218  -0.093  52.537  1.00  0.00     0.223 C 
HETATM    2  O1  UNL     1      18.819  -1.103  53.169  1.00  0.00    -0.273 OA
HETATM    3  N2  UNL     1      20.137   0.937  53.048  1.00  0.00    -0.328 N 
HETATM    4  C7  UNL     1      20.437   2.005  52.155  1.00  0.00     0.078 C 
HETATM    5  C8  UNL     1      21.695   2.492  52.274  1.00  0.00     0.083 C 
HETATM    6  C9  UNL     1      22.802   3.377  51.943  1.00  0.00     0.050 C 
HETATM    7  C10 UNL     1      23.002   4.495  51.005  1.00  0.00     0.097 C 
HETATM    8  N3  UNL     1      23.147   5.376  50.246  1.00  0.00    -0.192 NA
HETATM    9  C11 UNL     1      23.818   3.039  52.692  1.00  0.00     0.137 C 
HETATM   10  N4  UNL     1      24.972   2.724  53.482  1.00  0.00    -0.255 NA
HETATM   11  C12 UNL     1      25.648   1.614  53.284  1.00  0.00     0.202 C 
HETATM   12  N5  UNL     1      26.580   0.513  53.316  1.00  0.00    -0.381 N 
HETATM   13  C13 UNL     1      26.368  -0.059  54.625  1.00  0.00     0.147 C 
HETATM   14  C14 UNL     1      25.064  -0.706  54.819  1.00  0.00    -0.007 C 
HETATM   15  C15 UNL     1      23.942  -1.341  55.009  1.00  0.00    -0.003 C 
HETATM   16  C16 UNL     1      22.519  -1.126  54.948  1.00  0.00    -0.003 C 
HETATM   17  C17 UNL     1      21.675  -0.177  54.644  1.00  0.00    -0.007 C 
HETATM   18  C18 UNL     1      20.444   0.571  54.415  1.00  0.00     0.158 C 
HETATM   19  H17 UNL     1      27.231   0.259  52.546  1.00  0.00     0.160 HD
ENDROOT
BRANCH   1  20
HETATM   20  C5  UNL     1      18.667  -0.008  51.166  1.00  0.00     0.105 C 
BRANCH  20  21
HETATM   21  C4  UNL     1      17.190   0.090  51.106  1.00  0.00     0.039 C 
BRANCH  21  22
HETATM   22  C3  UNL     1      16.621   1.410  51.526  1.00  0.00     0.271 C 
BRANCH  22  23
HETATM   23  N1  UNL     1      15.233   1.148  51.938  1.00  0.00     0.080 N 
HETATM   24  C1  UNL     1      14.761   2.317  52.629  1.00  0.00     0.309 C 
HETATM   25  C2  UNL     1      15.181   0.015  52.854  1.00  0.00     0.309 C 
ENDBRANCH  22  23
ENDBRANCH  21  22
ENDBRANCH  20  21
ENDBRANCH   1  20
TORSDOF 4
ENDMDL
MODEL 7
REMARK VINA RESULT:      -6.8      2.540      8.142
REMARK  4 active torsions:
REMARK  status: ('A' for Active; 'I' for Inactive)
REMARK    1  A    between atoms: N1_2  and  C3_4 
REMARK    2  A    between atoms: C3_4  and  C4_5 
REMARK    3  A    between atoms: C4_5  and  C5_6 
REMARK    4  A    between atoms: C5_6  and  C6_7 
REMARK       I    between atoms: C6_7  and  N2_9 
ROOT
HETATM    1  C6  UNL     1      21.530   1.433  50.246  1.00  0.00     0.223 C 
HETATM    2  O1  UNL     1      20.638   0.789  50.854  1.00  0.00    -0.273 OA
HETATM    3  N2  UNL     1      22.623   2.193  50.874  1.00  0.00    -0.328 N 
HETATM    4  C7  UNL     1      23.510   2.861  49.982  1.00  0.00     0.078 C 
HETATM    5  C8  UNL     1      24.792   2.920  50.416  1.00  0.00     0.083 C 
HETATM    6  C9  UNL     1      26.198   3.289  50.324  1.00  0.00     0.050 C 
HETATM    7  C10 UNL     1      27.026   4.024  49.354  1.00  0.00     0.097 C 
HETATM    8  N3  UNL     1      27.672   4.604  48.566  1.00  0.00    -0.192 NA
HETATM    9  C11 UNL     1      26.800   2.822  51.387  1.00  0.00     0.137 C 
HETATM   10  N4  UNL     1      27.523   2.339  52.527  1.00  0.00    -0.255 NA
HETATM   11  C12 UNL     1      27.749   1.055  52.694  1.00  0.00     0.202 C 
HETATM   12  N5  UNL     1      28.153  -0.250  53.156  1.00  0.00    -0.381 N 
HETATM   13  C13 UNL     1      27.436  -0.396  54.401  1.00  0.00     0.147 C 
HETATM   14  C14 UNL     1      25.978  -0.513  54.270  1.00  0.00    -0.007 C 
HETATM   15  C15 UNL     1      24.688  -0.680  54.189  1.00  0.00    -0.003 C 
HETATM   16  C16 UNL     1      23.514  -0.030  53.668  1.00  0.00    -0.003 C 
HETATM   17  C17 UNL     1      23.194   1.045  52.997  1.00  0.00    -0.007 C 
HETATM   18  C18 UNL     1      22.434   2.079  52.304  1.00  0.00     0.158 C 
HETATM   19  H17 UNL     1      28.820  -0.878  52.663  1.00  0.00     0.160 HD
ENDROOT
BRANCH   1  20
HETATM   20  C5  UNL     1      21.394   1.369  48.774  1.00  0.00     0.105 C 
BRANCH  20  21
HETATM   21  C4  UNL     1      20.315   2.220  48.222  1.00  0.00     0.039 C 
BRANCH  21  22
HETATM   22  C3  UNL     1      20.181   3.571  48.856  1.00  0.00     0.271 C 
BRANCH  22  23
HETATM   23  N1  UNL     1      18.845   3.606  49.472  1.00  0.00     0.080 N 
HETATM   24  C1  UNL     1      18.057   4.557  48.737  1.00  0.00     0.309 C 
HETATM   25  C2  UNL     1      18.937   4.052  50.858  1.00  0.00     0.309 C 
ENDBRANCH  22  23
ENDBRANCH  21  22
ENDBRANCH  20  21
ENDBRANCH   1  20
TORSDOF 4
ENDMDL
MODEL 8
REMARK VINA RESULT:      -6.8      4.636      6.996
REMARK  4 active torsions:
REMARK  status: ('A' for Active; 'I' for Inactive)
REMARK    1  A    between atoms: N1_2  and  C3_4 
REMARK    2  A    between atoms: C3_4  and  C4_5 
REMARK    3  A    between atoms: C4_5  and  C5_6 
REMARK    4  A    between atoms: C5_6  and  C6_7 
REMARK       I    between atoms: C6_7  and  N2_9 
ROOT
HETATM    1  C6  UNL     1      24.773   3.005  50.981  1.00  0.00     0.223 C 
HETATM    2  O1  UNL     1      23.569   2.939  51.337  1.00  0.00    -0.273 OA
HETATM    3  N2  UNL     1      25.275   3.647  49.756  1.00  0.00    -0.328 N 
HETATM    4  C7  UNL     1      26.682   3.584  49.549  1.00  0.00     0.078 C 
HETATM    5  C8  UNL     1      27.203   4.671  48.930  1.00  0.00     0.083 C 
HETATM    6  C9  UNL     1      28.272   5.471  48.353  1.00  0.00     0.050 C 
HETATM    7  C10 UNL     1      29.721   5.296  48.156  1.00  0.00     0.097 C 
HETATM    8  N3  UNL     1      30.875   5.144  48.017  1.00  0.00    -0.192 NA
HETATM    9  C11 UNL     1      27.746   6.593  47.934  1.00  0.00     0.137 C 
HETATM   10  N4  UNL     1      27.237   7.843  47.451  1.00  0.00    -0.255 NA
HETATM   11  C12 UNL     1      26.828   8.776  48.282  1.00  0.00     0.202 C 
HETATM   12  N5  UNL     1      26.317   9.969  48.910  1.00  0.00    -0.381 N 
HETATM   13  C13 UNL     1      24.944  10.014  48.464  1.00  0.00     0.147 C 
HETATM   14  C14 UNL     1      24.082   8.949  48.993  1.00  0.00    -0.007 C 
HETATM   15  C15 UNL     1      23.273   8.055  49.489  1.00  0.00    -0.003 C 
HETATM   16  C16 UNL     1      23.122   6.627  49.590  1.00  0.00    -0.003 C 
HETATM   17  C17 UNL     1      23.755   5.539  49.241  1.00  0.00    -0.007 C 
HETATM   18  C18 UNL     1      24.114   4.139  49.044  1.00  0.00     0.158 C 
HETATM   19  H17 UNL     1      26.869  10.607  49.518  1.00  0.00     0.160 HD
ENDROOT
BRANCH   1  20
HETATM   20  C5  UNL     1      25.699   2.354  51.934  1.00  0.00     0.105 C 
BRANCH  20  21
HETATM   21  C4  UNL     1      25.550   0.883  52.023  1.00  0.00     0.039 C 
BRANCH  21  22
HETATM   22  C3  UNL     1      26.767   0.146  52.492  1.00  0.00     0.271 C 
BRANCH  22  23
HETATM   23  N1  UNL     1      26.388  -0.517  53.750  1.00  0.00     0.080 N 
HETATM   24  C1  UNL     1      24.953  -0.603  53.775  1.00  0.00     0.309 C 
HETATM   25  C2  UNL     1      26.825   0.276  54.893  1.00  0.00     0.309 C 
ENDBRANCH  22  23
ENDBRANCH  21  22
ENDBRANCH  20  21
ENDBRANCH   1  20
TORSDOF 4
ENDMDL
MODEL 9
REMARK VINA RESULT:      -6.6      3.271      6.504
REMARK  4 active torsions:
REMARK  status: ('A' for Active; 'I' for Inactive)
REMARK    1  A    between atoms: N1_2  and  C3_4 
REMARK    2  A    between atoms: C3_4  and  C4_5 
REMARK    3  A    between atoms: C4_5  and  C5_6 
REMARK    4  A    between atoms: C5_6  and  C6_7 
REMARK       I    between atoms: C6_7  and  N2_9 
ROOT
HETATM    1  C6  UNL     1      23.982   5.028  50.821  1.00  0.00     0.223 C 
HETATM    2  O1  UNL     1      25.223   4.841  50.736  1.00  0.00    -0.273 OA
HETATM    3  N2  UNL     1      22.941   4.010  50.608  1.00  0.00    -0.328 N 
HETATM    4  C7  UNL     1      21.595   4.457  50.741  1.00  0.00     0.078 C 
HETATM    5  C8  UNL     1      20.749   3.528  51.248  1.00  0.00     0.083 C 
HETATM    6  C9  UNL     1      19.458   3.028  51.696  1.00  0.00     0.050 C 
HETATM    7  C10 UNL     1      18.091   3.572  51.763  1.00  0.00     0.097 C 
HETATM    8  N3  UNL     1      17.011   4.025  51.818  1.00  0.00    -0.192 NA
HETATM    9  C11 UNL     1      19.633   1.806  52.126  1.00  0.00     0.137 C 
HETATM   10  N4  UNL     1      19.753   0.463  52.612  1.00  0.00    -0.255 NA
HETATM   11  C12 UNL     1      20.377   0.201  53.739  1.00  0.00     0.202 C 
HETATM   12  N5  UNL     1      20.979  -0.402  54.902  1.00  0.00    -0.381 N 
HETATM   13  C13 UNL     1      22.016  -1.236  54.342  1.00  0.00     0.147 C 
HETATM   14  C14 UNL     1      23.129  -0.508  53.716  1.00  0.00    -0.007 C 
HETATM   15  C15 UNL     1      24.161   0.102  53.206  1.00  0.00    -0.003 C 
HETATM   16  C16 UNL     1      24.490   1.074  52.196  1.00  0.00    -0.003 C 
HETATM   17  C17 UNL     1      23.887   1.829  51.317  1.00  0.00    -0.007 C 
HETATM   18  C18 UNL     1      23.629   2.788  50.249  1.00  0.00     0.158 C 
HETATM   19  H17 UNL     1      20.675  -0.240  55.884  1.00  0.00     0.160 HD
ENDROOT
BRANCH   1  20
HETATM   20  C5  UNL     1      23.625   6.421  51.169  1.00  0.00     0.105 C 
BRANCH  20  21
HETATM   21  C4  UNL     1      24.168   7.441  50.242  1.00  0.00     0.039 C 
BRANCH  21  22
HETATM   22  C3  UNL     1      23.609   7.402  48.853  1.00  0.00     0.271 C 
BRANCH  22  23
HETATM   23  N1  UNL     1      24.636   7.991  47.979  1.00  0.00     0.080 N 
HETATM   24  C1  UNL     1      25.828   7.200  48.122  1.00  0.00     0.309 C 
HETATM   25  C2  UNL     1      24.933   9.357  48.393  1.00  0.00     0.309 C 
ENDBRANCH  22  23
ENDBRANCH  21  22
ENDBRANCH  20  21
ENDBRANCH   1  20
TORSDOF 4
ENDMDL
