MODEL 1
REMARK VINA RESULT:      -7.4      0.000      0.000
REMARK  6 active torsions:
REMARK  status: ('A' for Active; 'I' for Inactive)
REMARK    1  A    between atoms: C3_3  and  C4_5 
REMARK    2  A    between atoms: C4_5  and  C5_6 
REMARK    3  A    between atoms: C5_6  and  C6_7 
REMARK    4  A    between atoms: C6_7  and  P1_8 
REMARK    5  A    between atoms: P1_8  and  C7_9 
REMARK    6  A    between atoms: C7_9  and  C8_10 
ROOT
HETATM    1  C8  UNL     1      23.497   2.834  49.101  1.00  0.00     0.124 A 
HETATM    2  C9  UNL     1      22.378   1.863  49.303  1.00  0.00     0.047 A 
HETATM    3  N1  UNL     1      22.289   2.841  50.176  1.00  0.00    -0.292 N 
HETATM    4  N2  UNL     1      21.354   3.054  51.152  1.00  0.00    -0.309 N 
HETATM    5  C10 UNL     1      20.364   3.265  52.170  1.00  0.00     0.216 C 
HETATM    6  C11 UNL     1      19.029   3.678  51.535  1.00  0.00     0.059 C 
HETATM    7  N3  UNL     1      20.137   2.189  52.971  1.00  0.00    -0.279 NA
HETATM    8  C12 UNL     1      20.469   1.014  53.079  1.00  0.00     0.094 C 
HETATM    9  C13 UNL     1      21.440   0.344  52.114  1.00  0.00     0.044 C 
HETATM   10  C14 UNL     1      22.819   0.901  52.524  1.00  0.00     0.020 C 
HETATM   11  C15 UNL     1      21.109   0.476  50.732  1.00  0.00    -0.015 C 
HETATM   12  C16 UNL     1      21.368   0.985  49.585  1.00  0.00     0.025 C 
HETATM   13  H10 UNL     1      22.217   3.632  51.271  1.00  0.00     0.182 HD
ENDROOT
BRANCH   1  14
HETATM   14  C7  UNL     1      24.375   3.911  49.199  1.00  0.00     0.124 C 
BRANCH  14  15
HETATM   15  P1  UNL     1      25.915   3.011  50.814  1.00  0.00    -0.052 P 
HETATM   16  H7  UNL     1      25.593   3.199  50.453  1.00  0.00     0.070 HD
BRANCH  15  17
HETATM   17  C6  UNL     1      26.763   2.504  51.740  1.00  0.00    -0.148 C 
BRANCH  17  18
HETATM   18  C5  UNL     1      27.623   2.009  52.650  1.00  0.00     0.083 C 
BRANCH  18  19
HETATM   19  C4  UNL     1      27.280   0.721  52.649  1.00  0.00     0.075 C 
BRANCH  19  20
HETATM   20  C3  UNL     1      27.234  -0.714  52.689  1.00  0.00     0.096 C 
HETATM   21  C2  UNL     1      28.364  -1.229  53.198  1.00  0.00     0.007 C 
HETATM   22  C1  UNL     1      29.565  -0.490  53.658  1.00  0.00     0.038 C 
HETATM   23  F1  UNL     1      26.322  -1.666  52.363  1.00  0.00    -0.211 F 
ENDBRANCH  19  20
ENDBRANCH  18  19
ENDBRANCH  17  18
ENDBRANCH  15  17
ENDBRANCH  14  15
ENDBRANCH   1  14
TORSDOF 6
ENDMDL
MODEL 2
REMARK VINA RESULT:      -6.9      2.120      4.002
REMARK  6 active torsions:
REMARK  status: ('A' for Active; 'I' for Inactive)
REMARK    1  A    between atoms: C3_3  and  C4_5 
REMARK    2  A    between atoms: C4_5  and  C5_6 
REMARK    3  A    between atoms: C5_6  and  C6_7 
REMARK    4  A    between atoms: C6_7  and  P1_8 
REMARK    5  A    between atoms: P1_8  and  C7_9 
REMARK    6  A    between atoms: C7_9  and  C8_10 
ROOT
HETATM    1  C8  UNL     1      20.616   1.488  52.180  1.00  0.00     0.124 A 
HETATM    2  C9  UNL     1      20.843   2.958  52.019  1.00  0.00     0.047 A 
HETATM    3  N1  UNL     1      21.581   2.292  51.160  1.00  0.00    -0.292 N 
HETATM    4  N2  UNL     1      22.446   2.760  50.209  1.00  0.00    -0.309 N 
HETATM    5  C10 UNL     1      23.347   3.267  49.213  1.00  0.00     0.216 C 
HETATM    6  C11 UNL     1      22.560   3.919  48.067  1.00  0.00     0.059 C 
HETATM    7  N3  UNL     1      24.250   4.173  49.675  1.00  0.00    -0.279 NA
HETATM    8  C12 UNL     1      24.526   4.781  50.703  1.00  0.00     0.094 C 
HETATM    9  C13 UNL     1      23.731   4.614  51.993  1.00  0.00     0.044 C 
HETATM   10  C14 UNL     1      24.181   3.243  52.536  1.00  0.00     0.020 C 
HETATM   11  C15 UNL     1      22.321   4.793  51.863  1.00  0.00    -0.015 C 
HETATM   12  C16 UNL     1      21.146   4.282  51.861  1.00  0.00     0.025 C 
HETATM   13  H10 UNL     1      22.563   1.741  50.411  1.00  0.00     0.182 HD
ENDROOT
BRANCH   1  14
HETATM   14  C7  UNL     1      20.655   0.102  52.053  1.00  0.00     0.124 C 
BRANCH  14  15
HETATM   15  P1  UNL     1      22.654  -0.348  53.312  1.00  0.00    -0.052 P 
HETATM   16  H7  UNL     1      22.219  -0.268  53.041  1.00  0.00     0.070 HD
BRANCH  15  17
HETATM   17  C6  UNL     1      23.781  -0.578  54.029  1.00  0.00    -0.148 C 
BRANCH  17  18
HETATM   18  C5  UNL     1      24.895  -0.827  54.741  1.00  0.00     0.083 C 
BRANCH  18  19
HETATM   19  C4  UNL     1      25.838  -0.574  53.834  1.00  0.00     0.075 C 
BRANCH  19  20
HETATM   20  C3  UNL     1      26.672  -0.035  52.796  1.00  0.00     0.096 C 
HETATM   21  C2  UNL     1      27.907   0.236  53.247  1.00  0.00     0.007 C 
HETATM   22  C1  UNL     1      28.421   0.060  54.627  1.00  0.00     0.038 C 
HETATM   23  F1  UNL     1      26.523   0.240  51.474  1.00  0.00    -0.211 F 
ENDBRANCH  19  20
ENDBRANCH  18  19
ENDBRANCH  17  18
ENDBRANCH  15  17
ENDBRANCH  14  15
ENDBRANCH   1  14
TORSDOF 6
ENDMDL
MODEL 3
REMARK VINA RESULT:      -6.9      3.064      5.177
REMARK  6 active torsions:
REMARK  status: ('A' for Active; 'I' for Inactive)
REMARK    1  A    between atoms: C3_3  and  C4_5 
REMARK    2  A    between atoms: C4_5  and  C5_6 
REMARK    3  A    between atoms: C5_6  and  C6_7 
REMARK    4  A    between atoms: C6_7  and  P1_8 
REMARK    5  A    between atoms: P1_8  and  C7_9 
REMARK    6  A    between atoms: C7_9  and  C8_10 
ROOT
HETATM    1  C8  UNL     1      23.410   3.573  51.491  1.00  0.00     0.124 A 
HETATM    2  C9  UNL     1      23.400   3.840  50.020  1.00  0.00     0.047 A 
HETATM    3  N1  UNL     1      24.423   4.445  50.580  1.00  0.00    -0.292 N 
HETATM    4  N2  UNL     1      25.401   5.211  50.007  1.00  0.00    -0.309 N 
HETATM    5  C10 UNL     1      26.423   6.010  49.392  1.00  0.00     0.216 C 
HETATM    6  C11 UNL     1      27.367   5.123  48.568  1.00  0.00     0.059 C 
HETATM    7  N3  UNL     1      25.957   6.999  48.582  1.00  0.00    -0.279 NA
HETATM    8  C12 UNL     1      24.898   7.418  48.129  1.00  0.00     0.094 C 
HETATM    9  C13 UNL     1      23.555   6.772  48.450  1.00  0.00     0.044 C 
HETATM   10  C14 UNL     1      23.259   7.225  49.895  1.00  0.00     0.020 C 
HETATM   11  C15 UNL     1      23.488   5.366  48.220  1.00  0.00    -0.015 C 
HETATM   12  C16 UNL     1      23.415   4.178  48.695  1.00  0.00     0.025 C 
HETATM   13  H10 UNL     1      25.353   5.308  51.047  1.00  0.00     0.182 HD
ENDROOT
BRANCH   1  14
HETATM   14  C7  UNL     1      23.725   3.538  52.847  1.00  0.00     0.124 C 
BRANCH  14  15
HETATM   15  P1  UNL     1      24.883   1.431  52.924  1.00  0.00    -0.052 P 
HETATM   16  H7  UNL     1      24.634   1.885  52.890  1.00  0.00     0.070 HD
BRANCH  15  17
HETATM   17  C6  UNL     1      25.526   0.240  52.989  1.00  0.00    -0.148 C 
BRANCH  17  18
HETATM   18  C5  UNL     1      26.158  -0.945  53.075  1.00  0.00     0.083 C 
BRANCH  18  19
HETATM   19  C4  UNL     1      27.421  -0.549  53.229  1.00  0.00     0.075 C 
BRANCH  19  20
HETATM   20  C3  UNL     1      28.642   0.153  53.509  1.00  0.00     0.096 C 
HETATM   21  C2  UNL     1      29.691  -0.682  53.557  1.00  0.00     0.007 C 
HETATM   22  C1  UNL     1      29.679  -2.156  53.385  1.00  0.00     0.038 C 
HETATM   23  F1  UNL     1      28.993   1.450  53.709  1.00  0.00    -0.211 F 
ENDBRANCH  19  20
ENDBRANCH  18  19
ENDBRANCH  17  18
ENDBRANCH  15  17
ENDBRANCH  14  15
ENDBRANCH   1  14
TORSDOF 6
ENDMDL
MODEL 4
REMARK VINA RESULT:      -6.8      3.167      4.032
REMARK  6 active torsions:
REMARK  status: ('A' for Active; 'I' for Inactive)
REMARK    1  A    between atoms: C3_3  and  C4_5 
REMARK    2  A    between atoms: C4_5  and  C5_6 
REMARK    3  A    between atoms: C5_6  and  C6_7 
REMARK    4  A    between atoms: C6_7  and  P1_8 
REMARK    5  A    between atoms: P1_8  and  C7_9 
REMARK    6  A    between atoms: C7_9  and  C8_10 
ROOT
HETATM    1  C8  UNL     1      25.330   3.636  49.573  1.00  0.00     0.124 A 
HETATM    2  C9  UNL     1      23.979   4.047  49.083  1.00  0.00     0.047 A 
HETATM    3  N1  UNL     1      24.579   5.066  49.657  1.00  0.00    -0.292 N 
HETATM    4  N2  UNL     1      24.142   6.352  49.823  1.00  0.00    -0.309 N 
HETATM    5  C10 UNL     1      23.673   7.699  49.987  1.00  0.00     0.216 C 
HETATM    6  C11 UNL     1      23.671   8.429  48.637  1.00  0.00     0.059 C 
HETATM    7  N3  UNL     1      22.428   7.802  50.526  1.00  0.00    -0.279 NA
HETATM    8  C12 UNL     1      21.497   7.087  50.879  1.00  0.00     0.094 C 
HETATM    9  C13 UNL     1      21.542   5.567  50.768  1.00  0.00     0.044 C 
HETATM   10  C14 UNL     1      22.474   5.136  51.919  1.00  0.00     0.020 C 
HETATM   11  C15 UNL     1      21.884   5.063  49.478  1.00  0.00    -0.015 C 
HETATM   12  C16 UNL     1      22.732   4.475  48.719  1.00  0.00     0.025 C 
HETATM   13  H10 UNL     1      24.964   6.111  50.424  1.00  0.00     0.182 HD
ENDROOT
BRANCH   1  14
HETATM   14  C7  UNL     1      26.602   3.608  50.141  1.00  0.00     0.124 C 
BRANCH  14  15
HETATM   15  P1  UNL     1      26.382   1.627  51.488  1.00  0.00    -0.052 P 
HETATM   16  H7  UNL     1      26.432   2.044  51.184  1.00  0.00     0.070 HD
BRANCH  15  17
HETATM   17  C6  UNL     1      26.246   0.525  52.264  1.00  0.00    -0.148 C 
BRANCH  17  18
HETATM   18  C5  UNL     1      26.091  -0.573  53.027  1.00  0.00     0.083 C 
BRANCH  18  19
HETATM   19  C4  UNL     1      27.338  -1.045  53.049  1.00  0.00     0.075 C 
BRANCH  19  20
HETATM   20  C3  UNL     1      28.534  -1.828  53.177  1.00  0.00     0.096 C 
HETATM   21  C2  UNL     1      29.589  -1.067  53.506  1.00  0.00     0.007 C 
HETATM   22  C1  UNL     1      29.613   0.404  53.702  1.00  0.00     0.038 C 
HETATM   23  F1  UNL     1      28.849  -3.146  53.073  1.00  0.00    -0.211 F 
ENDBRANCH  19  20
ENDBRANCH  18  19
ENDBRANCH  17  18
ENDBRANCH  15  17
ENDBRANCH  14  15
ENDBRANCH   1  14
TORSDOF 6
ENDMDL
MODEL 5
REMARK VINA RESULT:      -6.8      1.432      1.774
REMARK  6 active torsions:
REMARK  status: ('A' for Active; 'I' for Inactive)
REMARK    1  A    between atoms: C3_3  and  C4_5 
REMARK    2  A    between atoms: C4_5  and  C5_6 
REMARK    3  A    between atoms: C5_6  and  C6_7 
REMARK    4  A    between atoms: C6_7  and  P1_8 
REMARK    5  A    between atoms: P1_8  and  C7_9 
REMARK    6  A    between atoms: C7_9  and  C8_10 
ROOT
HETATM    1  C8  UNL     1      24.005   2.844  49.657  1.00  0.00     0.124 A 
HETATM    2  C9  UNL     1      22.714   2.342  49.093  1.00  0.00     0.047 A 
HETATM    3  N1  UNL     1      22.495   2.972  50.225  1.00  0.00    -0.292 N 
HETATM    4  N2  UNL     1      21.315   3.209  50.874  1.00  0.00    -0.309 N 
HETATM    5  C10 UNL     1      20.068   3.453  51.543  1.00  0.00     0.216 C 
HETATM    6  C11 UNL     1      19.250   4.500  50.774  1.00  0.00     0.059 C 
HETATM    7  N3  UNL     1      19.291   2.349  51.712  1.00  0.00    -0.279 NA
HETATM    8  C12 UNL     1      19.272   1.162  51.411  1.00  0.00     0.094 C 
HETATM    9  C13 UNL     1      20.377   0.505  50.591  1.00  0.00     0.044 C 
HETATM   10  C14 UNL     1      21.547   0.363  51.585  1.00  0.00     0.020 C 
HETATM   11  C15 UNL     1      20.688   1.159  49.362  1.00  0.00    -0.015 C 
HETATM   12  C16 UNL     1      21.508   1.858  48.668  1.00  0.00     0.025 C 
HETATM   13  H10 UNL     1      22.157   3.364  51.474  1.00  0.00     0.182 HD
ENDROOT
BRANCH   1  14
HETATM   14  C7  UNL     1      24.982   3.438  50.453  1.00  0.00     0.124 C 
BRANCH  14  15
HETATM   15  P1  UNL     1      25.498   1.577  51.888  1.00  0.00    -0.052 P 
HETATM   16  H7  UNL     1      25.381   1.968  51.566  1.00  0.00     0.070 HD
BRANCH  15  17
HETATM   17  C6  UNL     1      25.787   0.545  52.716  1.00  0.00    -0.148 C 
BRANCH  17  18
HETATM   18  C5  UNL     1      26.053  -0.483  53.542  1.00  0.00     0.083 C 
BRANCH  18  19
HETATM   19  C4  UNL     1      27.386  -0.465  53.549  1.00  0.00     0.075 C 
BRANCH  19  20
HETATM   20  C3  UNL     1      28.789  -0.753  53.444  1.00  0.00     0.096 C 
HETATM   21  C2  UNL     1      29.536   0.325  53.729  1.00  0.00     0.007 C 
HETATM   22  C1  UNL     1      29.059   1.684  54.086  1.00  0.00     0.038 C 
HETATM   23  F1  UNL     1      29.537  -1.850  53.155  1.00  0.00    -0.211 F 
ENDBRANCH  19  20
ENDBRANCH  18  19
ENDBRANCH  17  18
ENDBRANCH  15  17
ENDBRANCH  14  15
ENDBRANCH   1  14
TORSDOF 6
ENDMDL
MODEL 6
REMARK VINA RESULT:      -6.7      2.224      3.551
REMARK  6 active torsions:
REMARK  status: ('A' for Active; 'I' for Inactive)
REMARK    1  A    between atoms: C3_3  and  C4_5 
REMARK    2  A    between atoms: C4_5  and  C5_6 
REMARK    3  A    between atoms: C5_6  and  C6_7 
REMARK    4  A    between atoms: C6_7  and  P1_8 
REMARK    5  A    between atoms: P1_8  and  C7_9 
REMARK    6  A    between atoms: C7_9  and  C8_10 
ROOT
HETATM    1  C8  UNL     1      25.092   4.069  50.424  1.00  0.00     0.124 A 
HETATM    2  C9  UNL     1      23.637   4.363  50.609  1.00  0.00     0.047 A 
HETATM    3  N1  UNL     1      23.788   3.276  49.886  1.00  0.00    -0.292 N 
HETATM    4  N2  UNL     1      22.840   2.451  49.346  1.00  0.00    -0.309 N 
HETATM    5  C10 UNL     1      21.834   1.592  48.789  1.00  0.00     0.216 C 
HETATM    6  C11 UNL     1      21.148   0.786  49.901  1.00  0.00     0.059 C 
HETATM    7  N3  UNL     1      20.870   2.237  48.078  1.00  0.00    -0.279 NA
HETATM    8  C12 UNL     1      20.520   3.377  47.792  1.00  0.00     0.094 C 
HETATM    9  C13 UNL     1      21.267   4.612  48.284  1.00  0.00     0.044 C 
HETATM   10  C14 UNL     1      22.540   4.650  47.414  1.00  0.00     0.020 C 
HETATM   11  C15 UNL     1      21.482   4.668  49.693  1.00  0.00    -0.015 C 
HETATM   12  C16 UNL     1      22.294   4.607  50.683  1.00  0.00     0.025 C 
HETATM   13  H10 UNL     1      23.793   2.308  48.941  1.00  0.00     0.182 HD
ENDROOT
BRANCH   1  14
HETATM   14  C7  UNL     1      26.312   3.506  50.059  1.00  0.00     0.124 C 
BRANCH  14  15
HETATM   15  P1  UNL     1      26.256   1.530  51.429  1.00  0.00    -0.052 P 
HETATM   16  H7  UNL     1      26.251   1.958  51.135  1.00  0.00     0.070 HD
BRANCH  15  17
HETATM   17  C6  UNL     1      26.248   0.420  52.206  1.00  0.00    -0.148 C 
BRANCH  17  18
HETATM   18  C5  UNL     1      26.241  -0.694  52.961  1.00  0.00     0.083 C 
BRANCH  18  19
HETATM   19  C4  UNL     1      27.548  -0.923  53.087  1.00  0.00     0.075 C 
BRANCH  19  20
HETATM   20  C3  UNL     1      28.857  -1.475  53.298  1.00  0.00     0.096 C 
HETATM   21  C2  UNL     1      29.722  -0.541  53.724  1.00  0.00     0.007 C 
HETATM   22  C1  UNL     1      29.455   0.901  53.948  1.00  0.00     0.038 C 
HETATM   23  F1  UNL     1      29.420  -2.707  53.197  1.00  0.00    -0.211 F 
ENDBRANCH  19  20
ENDBRANCH  18  19
ENDBRANCH  17  18
ENDBRANCH  15  17
ENDBRANCH  14  15
ENDBRANCH   1  14
TORSDOF 6
ENDMDL
MODEL 7
REMARK VINA RESULT:      -6.5      2.794      5.013
REMARK  6 active torsions:
REMARK  status: ('A' for Active; 'I' for Inactive)
REMARK    1  A    between atoms: C3_3  and  C4_5 
REMARK    2  A    between atoms: C4_5  and  C5_6 
REMARK    3  A    between atoms: C5_6  and  C6_7 
REMARK    4  A    between atoms: C6_7  and  P1_8 
REMARK    5  A    between atoms: P1_8  and  C7_9 
REMARK    6  A    between atoms: C7_9  and  C8_10 
ROOT
HETATM    1  C8  UNL     1      20.756   0.999  50.943  1.00  0.00     0.124 A 
HETATM    2  C9  UNL     1      20.807   1.111  52.433  1.00  0.00     0.047 A 
HETATM    3  N1  UNL     1      21.967   0.701  51.973  1.00  0.00    -0.292 N 
HETATM    4  N2  UNL     1      23.118   0.408  52.652  1.00  0.00    -0.309 N 
HETATM    5  C10 UNL     1      24.320   0.108  53.378  1.00  0.00     0.216 C 
HETATM    6  C11 UNL     1      24.958   1.400  53.906  1.00  0.00     0.059 C 
HETATM    7  N3  UNL     1      24.150  -0.740  54.428  1.00  0.00    -0.279 NA
HETATM    8  C12 UNL     1      23.252  -1.316  55.032  1.00  0.00     0.094 C 
HETATM    9  C13 UNL     1      21.783  -1.176  54.647  1.00  0.00     0.044 C 
HETATM   10  C14 UNL     1      21.647  -2.036  53.374  1.00  0.00     0.020 C 
HETATM   11  C15 UNL     1      21.311   0.166  54.538  1.00  0.00    -0.015 C 
HETATM   12  C16 UNL     1      20.904   1.129  53.797  1.00  0.00     0.025 C 
HETATM   13  H10 UNL     1      23.112   0.048  51.671  1.00  0.00     0.182 HD
ENDROOT
BRANCH   1  14
HETATM   14  C7  UNL     1      21.062   0.785  49.601  1.00  0.00     0.124 C 
BRANCH  14  15
HETATM   15  P1  UNL     1      22.366   2.763  49.180  1.00  0.00    -0.052 P 
HETATM   16  H7  UNL     1      22.073   2.342  49.259  1.00  0.00     0.070 HD
BRANCH  15  17
HETATM   17  C6  UNL     1      23.120   3.865  48.952  1.00  0.00    -0.148 C 
BRANCH  17  18
HETATM   18  C5  UNL     1      23.887   4.948  48.728  1.00  0.00     0.083 C 
BRANCH  18  19
HETATM   19  C4  UNL     1      25.070   4.514  49.162  1.00  0.00     0.075 C 
BRANCH  19  20
HETATM   20  C3  UNL     1      26.312   3.828  49.387  1.00  0.00     0.096 C 
HETATM   21  C2  UNL     1      27.363   4.576  49.018  1.00  0.00     0.007 C 
HETATM   22  C1  UNL     1      27.337   5.934  48.421  1.00  0.00     0.038 C 
HETATM   23  F1  UNL     1      26.678   2.625  49.902  1.00  0.00    -0.211 F 
ENDBRANCH  19  20
ENDBRANCH  18  19
ENDBRANCH  17  18
ENDBRANCH  15  17
ENDBRANCH  14  15
ENDBRANCH   1  14
TORSDOF 6
ENDMDL
MODEL 8
REMARK VINA RESULT:      -6.5      5.021      5.897
REMARK  6 active torsions:
REMARK  status: ('A' for Active; 'I' for Inactive)
REMARK    1  A    between atoms: C3_3  and  C4_5 
REMARK    2  A    between atoms: C4_5  and  C5_6 
REMARK    3  A    between atoms: C5_6  and  C6_7 
REMARK    4  A    between atoms: C6_7  and  P1_8 
REMARK    5  A    between atoms: P1_8  and  C7_9 
REMARK    6  A    between atoms: C7_9  and  C8_10 
ROOT
HETATM    1  C8  UNL     1      26.772   5.268  49.037  1.00  0.00     0.124 A 
HETATM    2  C9  UNL     1      26.102   4.079  49.649  1.00  0.00     0.047 A 
HETATM    3  N1  UNL     1      25.221   4.810  49.005  1.00  0.00    -0.292 N 
HETATM    4  N2  UNL     1      23.878   4.606  48.837  1.00  0.00    -0.309 N 
HETATM    5  C10 UNL     1      22.471   4.378  48.666  1.00  0.00     0.216 C 
HETATM    6  C11 UNL     1      22.237   3.205  47.705  1.00  0.00     0.059 C 
HETATM    7  N3  UNL     1      21.796   4.123  49.819  1.00  0.00    -0.279 NA
HETATM    8  C12 UNL     1      22.010   3.951  51.013  1.00  0.00     0.094 C 
HETATM    9  C13 UNL     1      23.413   4.000  51.609  1.00  0.00     0.044 C 
HETATM   10  C14 UNL     1      23.755   5.504  51.636  1.00  0.00     0.020 C 
HETATM   11  C15 UNL     1      24.373   3.161  50.970  1.00  0.00    -0.015 C 
HETATM   12  C16 UNL     1      25.416   3.050  50.233  1.00  0.00     0.025 C 
HETATM   13  H10 UNL     1      24.184   5.579  48.604  1.00  0.00     0.182 HD
ENDROOT
BRANCH   1  14
HETATM   14  C7  UNL     1      27.049   6.447  48.351  1.00  0.00     0.124 C 
BRANCH  14  15
HETATM   15  P1  UNL     1      29.427   6.196  48.089  1.00  0.00    -0.052 P 
HETATM   16  H7  UNL     1      28.911   6.235  48.138  1.00  0.00     0.070 HD
BRANCH  15  17
HETATM   17  C6  UNL     1      30.770   6.069  47.961  1.00  0.00    -0.148 C 
BRANCH  17  18
HETATM   18  C5  UNL     1      32.106   5.953  47.854  1.00  0.00     0.083 C 
BRANCH  18  19
HETATM   19  C4  UNL     1      32.224   4.659  47.554  1.00  0.00     0.075 C 
BRANCH  19  20
HETATM   20  C3  UNL     1      32.154   3.345  46.980  1.00  0.00     0.096 C 
HETATM   21  C2  UNL     1      33.306   2.674  47.141  1.00  0.00     0.007 C 
HETATM   22  C1  UNL     1      34.549   3.161  47.788  1.00  0.00     0.038 C 
HETATM   23  F1  UNL     1      31.204   2.612  46.343  1.00  0.00    -0.211 F 
ENDBRANCH  19  20
ENDBRANCH  18  19
ENDBRANCH  17  18
ENDBRANCH  15  17
ENDBRANCH  14  15
ENDBRANCH   1  14
TORSDOF 6
ENDMDL
MODEL 9
REMARK VINA RESULT:      -6.4      3.111      6.409
REMARK  6 active torsions:
REMARK  status: ('A' for Active; 'I' for Inactive)
REMARK    1  A    between atoms: C3_3  and  C4_5 
REMARK    2  A    between atoms: C4_5  and  C5_6 
REMARK    3  A    between atoms: C5_6  and  C6_7 
REMARK    4  A    between atoms: C6_7  and  P1_8 
REMARK    5  A    between atoms: P1_8  and  C7_9 
REMARK    6  A    between atoms: C7_9  and  C8_10 
ROOT
HETATM    1  C8  UNL     1      26.733   2.905  50.859  1.00  0.00     0.124 A 
HETATM    2  C9  UNL     1      26.987   2.548  52.289  1.00  0.00     0.047 A 
HETATM    3  N1  UNL     1      26.762   1.461  51.586  1.00  0.00    -0.292 N 
HETATM    4  N2  UNL     1      26.752   0.153  51.986  1.00  0.00    -0.309 N 
HETATM    5  C10 UNL     1      26.749  -1.216  52.420  1.00  0.00     0.216 C 
HETATM    6  C11 UNL     1      28.180  -1.680  52.725  1.00  0.00     0.059 C 
HETATM    7  N3  UNL     1      25.983  -1.460  53.517  1.00  0.00    -0.279 NA
HETATM    8  C12 UNL     1      25.306  -0.856  54.341  1.00  0.00     0.094 C 
HETATM    9  C13 UNL     1      25.133   0.659  54.309  1.00  0.00     0.044 C 
HETATM   10  C14 UNL     1      24.151   0.898  53.143  1.00  0.00     0.020 C 
HETATM   11  C15 UNL     1      26.347   1.407  54.255  1.00  0.00    -0.015 C 
HETATM   12  C16 UNL     1      27.146   2.155  53.589  1.00  0.00     0.025 C 
HETATM   13  H10 UNL     1      26.310   0.304  51.051  1.00  0.00     0.182 HD
ENDROOT
BRANCH   1  14
HETATM   14  C7  UNL     1      26.460   2.869  49.494  1.00  0.00     0.124 C 
BRANCH  14  15
HETATM   15  P1  UNL     1      24.111   3.383  49.553  1.00  0.00    -0.052 P 
HETATM   16  H7  UNL     1      24.615   3.265  49.525  1.00  0.00     0.070 HD
BRANCH  15  17
HETATM   17  C6  UNL     1      22.792   3.690  49.604  1.00  0.00    -0.148 C 
BRANCH  17  18
HETATM   18  C5  UNL     1      21.478   3.975  49.646  1.00  0.00     0.083 C 
BRANCH  18  19
HETATM   19  C4  UNL     1      21.068   3.144  50.604  1.00  0.00     0.075 C 
BRANCH  19  20
HETATM   20  C3  UNL     1      20.616   2.522  51.817  1.00  0.00     0.096 C 
HETATM   21  C2  UNL     1      20.721   1.186  51.755  1.00  0.00     0.007 C 
HETATM   22  C1  UNL     1      21.203   0.371  50.613  1.00  0.00     0.038 C 
HETATM   23  F1  UNL     1      20.136   2.957  53.011  1.00  0.00    -0.211 F 
ENDBRANCH  19  20
ENDBRANCH  18  19
ENDBRANCH  17  18
ENDBRANCH  15  17
ENDBRANCH  14  15
ENDBRANCH   1  14
TORSDOF 6
ENDMDL
