MODEL 1
REMARK VINA RESULT:      -7.3      0.000      0.000
REMARK  4 active torsions:
REMARK  status: ('A' for Active; 'I' for Inactive)
REMARK    1  A    between atoms: N1_7  and  C6_8 
REMARK    2  A    between atoms: N4_16  and  C12_17 
REMARK    3  A    between atoms: C12_17  and  N5_18 
REMARK    4  A    between atoms: C13_19  and  O1_20 
ROOT
HETATM    1  C6  UNL     1      22.997   1.674  52.394  1.00  0.00     0.137 A 
HETATM    2  N2  UNL     1      22.063   1.095  53.106  1.00  0.00    -0.224 NA
HETATM    3  C7  UNL     1      22.378  -0.099  53.854  1.00  0.00     0.230 A 
HETATM    4  N3  UNL     1      23.494  -0.734  53.945  1.00  0.00    -0.268 NA
HETATM    5  C8  UNL     1      24.635  -0.260  53.238  1.00  0.00     0.205 A 
HETATM    6  C9  UNL     1      24.290   0.978  52.489  1.00  0.00     0.015 A 
HETATM    7  C10 UNL     1      25.382   1.429  51.858  1.00  0.00     0.016 C 
HETATM    8  C11 UNL     1      26.637   0.635  52.030  1.00  0.00     0.306 C 
HETATM    9  N4  UNL     1      26.963   0.400  53.422  1.00  0.00     0.150 N 
HETATM   10  C13 UNL     1      25.760   0.154  54.174  1.00  0.00     0.388 C 
ENDROOT
BRANCH   1  11
HETATM   11  N1  UNL     1      22.890   2.840  51.600  1.00  0.00    -0.330 N 
HETATM   12  C5  UNL     1      23.106   4.185  52.098  1.00  0.00     0.156 C 
HETATM   13  C4  UNL     1      24.052   4.908  51.203  1.00  0.00     0.013 C 
HETATM   14  C3  UNL     1      24.092   4.604  49.910  1.00  0.00     0.018 C 
HETATM   15  C2  UNL     1      23.252   3.580  49.274  1.00  0.00     0.080 C 
HETATM   16 CL1  UNL     1      25.212   5.452  48.824  1.00  0.00    -0.089 Cl
HETATM   17  C1  UNL     1      22.297   4.288  48.319  1.00  0.00     0.020 C 
HETATM   18  C14 UNL     1      22.544   2.656  50.204  1.00  0.00     0.282 C 
HETATM   19  F1  UNL     1      22.622   1.351  49.806  1.00  0.00    -0.226 F 
ENDBRANCH   1  11
BRANCH  10  20
HETATM   20  O1  UNL     1      25.910  -0.721  55.230  1.00  0.00    -0.366 OA
HETATM   21  H18 UNL     1      25.004  -1.085  55.490  1.00  0.00     0.212 HD
ENDBRANCH  10  20
BRANCH   9  22
HETATM   22  C12 UNL     1      27.818  -0.746  53.597  1.00  0.00     0.540 C 
BRANCH  22  23
HETATM   23  N5  UNL     1      28.803  -0.440  54.587  1.00  0.00     0.106 N 
HETATM   24  H15 UNL     1      29.198  -1.293  55.042  1.00  0.00     0.315 HD
HETATM   25  H16 UNL     1      28.371   0.205  55.314  1.00  0.00     0.315 HD
ENDBRANCH  22  23
ENDBRANCH   9  22
TORSDOF 4
ENDMDL
MODEL 2
REMARK VINA RESULT:      -7.1      1.663      2.141
REMARK  4 active torsions:
REMARK  status: ('A' for Active; 'I' for Inactive)
REMARK    1  A    between atoms: N1_7  and  C6_8 
REMARK    2  A    between atoms: N4_16  and  C12_17 
REMARK    3  A    between atoms: C12_17  and  N5_18 
REMARK    4  A    between atoms: C13_19  and  O1_20 
ROOT
HETATM    1  C6  UNL     1      24.134   1.758  51.947  1.00  0.00     0.137 A 
HETATM    2  N2  UNL     1      23.106   1.017  52.280  1.00  0.00    -0.224 NA
HETATM    3  C7  UNL     1      23.315  -0.174  53.068  1.00  0.00     0.230 A 
HETATM    4  N3  UNL     1      24.412  -0.666  53.528  1.00  0.00    -0.268 NA
HETATM    5  C8  UNL     1      25.646  -0.005  53.268  1.00  0.00     0.205 A 
HETATM    6  C9  UNL     1      25.403   1.227  52.470  1.00  0.00     0.015 A 
HETATM    7  C10 UNL     1      26.567   1.854  52.264  1.00  0.00     0.016 C 
HETATM    8  C11 UNL     1      27.789   1.218  52.845  1.00  0.00     0.306 C 
HETATM    9  N4  UNL     1      27.652   0.933  54.259  1.00  0.00     0.150 N 
HETATM   10  C13 UNL     1      26.314   0.487  54.544  1.00  0.00     0.388 C 
ENDROOT
BRANCH   1  11
HETATM   11  N1  UNL     1      24.138   2.951  51.187  1.00  0.00    -0.330 N 
HETATM   12  C5  UNL     1      24.231   2.991  49.740  1.00  0.00     0.156 C 
HETATM   13  C4  UNL     1      23.156   3.862  49.190  1.00  0.00     0.013 C 
HETATM   14  C3  UNL     1      22.708   4.885  49.911  1.00  0.00     0.018 C 
HETATM   15  C2  UNL     1      23.206   5.234  51.249  1.00  0.00     0.080 C 
HETATM   16 CL1  UNL     1      21.427   5.937  49.277  1.00  0.00    -0.089 Cl
HETATM   17  C1  UNL     1      23.918   6.578  51.146  1.00  0.00     0.020 C 
HETATM   18  C14 UNL     1      24.042   4.198  51.918  1.00  0.00     0.282 C 
HETATM   19  F1  UNL     1      23.704   4.019  53.230  1.00  0.00    -0.226 F 
ENDBRANCH   1  11
BRANCH  10  20
HETATM   20  O1  UNL     1      26.219  -0.431  55.569  1.00  0.00    -0.366 OA
HETATM   21  H18 UNL     1      27.082  -0.432  56.095  1.00  0.00     0.212 HD
ENDBRANCH  10  20
BRANCH   9  22
HETATM   22  C12 UNL     1      28.552  -0.104  54.697  1.00  0.00     0.540 C 
BRANCH  22  23
HETATM   23  N5  UNL     1      28.636  -1.102  53.676  1.00  0.00     0.106 N 
HETATM   24  H15 UNL     1      28.662  -2.072  54.061  1.00  0.00     0.315 HD
HETATM   25  H16 UNL     1      29.496  -0.914  53.081  1.00  0.00     0.315 HD
ENDBRANCH  22  23
ENDBRANCH   9  22
TORSDOF 4
ENDMDL
MODEL 3
REMARK VINA RESULT:      -6.6     10.288     12.291
REMARK  4 active torsions:
REMARK  status: ('A' for Active; 'I' for Inactive)
REMARK    1  A    between atoms: N1_7  and  C6_8 
REMARK    2  A    between atoms: N4_16  and  C12_17 
REMARK    3  A    between atoms: C12_17  and  N5_18 
REMARK    4  A    between atoms: C13_19  and  O1_20 
ROOT
HETATM    1  C6  UNL     1      33.345   8.636  47.232  1.00  0.00     0.137 A 
HETATM    2  N2  UNL     1      33.876   9.802  46.960  1.00  0.00    -0.224 NA
HETATM    3  C7  UNL     1      33.072  10.994  47.082  1.00  0.00     0.230 A 
HETATM    4  N3  UNL     1      31.840  11.115  47.433  1.00  0.00    -0.268 NA
HETATM    5  C8  UNL     1      31.084   9.955  47.767  1.00  0.00     0.205 A 
HETATM    6  C9  UNL     1      31.938   8.742  47.650  1.00  0.00     0.015 A 
HETATM    7  C10 UNL     1      31.223   7.666  48.000  1.00  0.00     0.016 C 
HETATM    8  C11 UNL     1      29.804   7.901  48.406  1.00  0.00     0.306 C 
HETATM    9  N4  UNL     1      29.678   8.905  49.443  1.00  0.00     0.150 N 
HETATM   10  C13 UNL     1      30.624   9.966  49.217  1.00  0.00     0.388 C 
ENDROOT
BRANCH   1  11
HETATM   11  N1  UNL     1      33.960   7.363  47.174  1.00  0.00    -0.330 N 
HETATM   12  C5  UNL     1      34.690   6.764  48.274  1.00  0.00     0.156 C 
HETATM   13  C4  UNL     1      34.202   5.376  48.506  1.00  0.00     0.013 C 
HETATM   14  C3  UNL     1      33.731   4.668  47.484  1.00  0.00     0.018 C 
HETATM   15  C2  UNL     1      33.651   5.162  46.103  1.00  0.00     0.080 C 
HETATM   16 CL1  UNL     1      33.143   3.012  47.736  1.00  0.00    -0.089 Cl
HETATM   17  C1  UNL     1      34.623   4.346  45.258  1.00  0.00     0.020 C 
HETATM   18  C14 UNL     1      33.841   6.630  45.929  1.00  0.00     0.282 C 
HETATM   19  F1  UNL     1      32.925   7.180  45.076  1.00  0.00    -0.226 F 
ENDBRANCH   1  11
BRANCH  10  20
HETATM   20  O1  UNL     1      30.196  11.214  49.619  1.00  0.00    -0.366 OA
HETATM   21  H18 UNL     1      30.842  11.912  49.278  1.00  0.00     0.212 HD
ENDBRANCH  10  20
BRANCH   9  22
HETATM   22  C12 UNL     1      28.366   9.500  49.471  1.00  0.00     0.540 C 
BRANCH  22  23
HETATM   23  N5  UNL     1      27.842   9.398  50.798  1.00  0.00     0.106 N 
HETATM   24  H15 UNL     1      28.168   8.540  51.296  1.00  0.00     0.315 HD
HETATM   25  H16 UNL     1      26.781   9.423  50.751  1.00  0.00     0.315 HD
ENDBRANCH  22  23
ENDBRANCH   9  22
TORSDOF 4
ENDMDL
MODEL 4
REMARK VINA RESULT:      -6.5      3.104      4.282
REMARK  4 active torsions:
REMARK  status: ('A' for Active; 'I' for Inactive)
REMARK    1  A    between atoms: N1_7  and  C6_8 
REMARK    2  A    between atoms: N4_16  and  C12_17 
REMARK    3  A    between atoms: C12_17  and  N5_18 
REMARK    4  A    between atoms: C13_19  and  O1_20 
ROOT
HETATM    1  C6  UNL     1      22.852   1.256  52.259  1.00  0.00     0.137 A 
HETATM    2  N2  UNL     1      23.448   0.489  53.138  1.00  0.00    -0.224 NA
HETATM    3  C7  UNL     1      24.879   0.312  53.071  1.00  0.00     0.230 A 
HETATM    4  N3  UNL     1      25.725   0.811  52.239  1.00  0.00    -0.268 NA
HETATM    5  C8  UNL     1      25.270   1.673  51.201  1.00  0.00     0.205 A 
HETATM    6  C9  UNL     1      23.797   1.853  51.301  1.00  0.00     0.015 A 
HETATM    7  C10 UNL     1      23.390   2.693  50.340  1.00  0.00     0.016 C 
HETATM    8  C11 UNL     1      24.443   3.234  49.427  1.00  0.00     0.306 C 
HETATM    9  N4  UNL     1      25.547   3.840  50.144  1.00  0.00     0.150 N 
HETATM   10  C13 UNL     1      25.841   3.077  51.329  1.00  0.00     0.388 C 
ENDROOT
BRANCH   1  11
HETATM   11  N1  UNL     1      21.473   1.555  52.156  1.00  0.00    -0.330 N 
HETATM   12  C5  UNL     1      20.846   2.714  52.762  1.00  0.00     0.156 C 
HETATM   13  C4  UNL     1      20.024   3.430  51.748  1.00  0.00     0.013 C 
HETATM   14  C3  UNL     1      19.464   2.745  50.757  1.00  0.00     0.018 C 
HETATM   15  C2  UNL     1      19.596   1.292  50.577  1.00  0.00     0.080 C 
HETATM   16 CL1  UNL     1      18.480   3.577  49.536  1.00  0.00    -0.089 Cl
HETATM   17  C1  UNL     1      18.222   0.668  50.794  1.00  0.00     0.020 C 
HETATM   18  C14 UNL     1      20.655   0.634  51.392  1.00  0.00     0.282 C 
HETATM   19  F1  UNL     1      21.396  -0.258  50.669  1.00  0.00    -0.226 F 
ENDBRANCH   1  11
BRANCH  10  20
HETATM   20  O1  UNL     1      27.172   3.069  51.692  1.00  0.00    -0.366 OA
HETATM   21  H18 UNL     1      27.259   3.410  52.639  1.00  0.00     0.212 HD
ENDBRANCH  10  20
BRANCH   9  22
HETATM   22  C12 UNL     1      26.751   3.885  49.354  1.00  0.00     0.540 C 
BRANCH  22  23
HETATM   23  N5  UNL     1      27.293   5.207  49.415  1.00  0.00     0.106 N 
HETATM   24  H15 UNL     1      27.978   5.399  48.651  1.00  0.00     0.315 HD
HETATM   25  H16 UNL     1      27.745   5.350  50.366  1.00  0.00     0.315 HD
ENDBRANCH  22  23
ENDBRANCH   9  22
TORSDOF 4
ENDMDL
MODEL 5
REMARK VINA RESULT:      -6.4      3.463      6.328
REMARK  4 active torsions:
REMARK  status: ('A' for Active; 'I' for Inactive)
REMARK    1  A    between atoms: N1_7  and  C6_8 
REMARK    2  A    between atoms: N4_16  and  C12_17 
REMARK    3  A    between atoms: C12_17  and  N5_18 
REMARK    4  A    between atoms: C13_19  and  O1_20 
ROOT
HETATM    1  C6  UNL     1      24.233   3.122  51.874  1.00  0.00     0.137 A 
HETATM    2  N2  UNL     1      23.833   3.915  52.836  1.00  0.00    -0.224 NA
HETATM    3  C7  UNL     1      22.713   4.798  52.608  1.00  0.00     0.230 A 
HETATM    4  N3  UNL     1      21.995   4.948  51.551  1.00  0.00    -0.268 NA
HETATM    5  C8  UNL     1      22.276   4.173  50.390  1.00  0.00     0.205 A 
HETATM    6  C9  UNL     1      23.421   3.261  50.655  1.00  0.00     0.015 A 
HETATM    7  C10 UNL     1      23.651   2.516  49.566  1.00  0.00     0.016 C 
HETATM    8  C11 UNL     1      22.760   2.749  48.388  1.00  0.00     0.306 C 
HETATM    9  N4  UNL     1      21.353   2.666  48.727  1.00  0.00     0.150 N 
HETATM   10  C13 UNL     1      21.124   3.250  50.022  1.00  0.00     0.388 C 
ENDROOT
BRANCH   1  11
HETATM   11  N1  UNL     1      25.300   2.193  51.899  1.00  0.00    -0.330 N 
HETATM   12  C5  UNL     1      26.667   2.518  51.542  1.00  0.00     0.156 C 
HETATM   13  C4  UNL     1      27.593   2.044  52.609  1.00  0.00     0.013 C 
HETATM   14  C3  UNL     1      27.271   0.972  53.326  1.00  0.00     0.018 C 
HETATM   15  C2  UNL     1      26.037   0.195  53.144  1.00  0.00     0.080 C 
HETATM   16 CL1  UNL     1      28.357   0.389  54.603  1.00  0.00    -0.089 Cl
HETATM   17  C1  UNL     1      26.427  -1.185  52.627  1.00  0.00     0.020 C 
HETATM   18  C14 UNL     1      24.985   0.839  52.309  1.00  0.00     0.282 C 
HETATM   19  F1  UNL     1      23.738   0.728  52.859  1.00  0.00    -0.226 F 
ENDBRANCH   1  11
BRANCH  10  20
HETATM   20  O1  UNL     1      19.897   3.863  50.168  1.00  0.00    -0.366 OA
HETATM   21  H18 UNL     1      19.186   3.157  50.293  1.00  0.00     0.212 HD
ENDBRANCH  10  20
BRANCH   9  22
HETATM   22  C12 UNL     1      20.523   3.373  47.786  1.00  0.00     0.540 C 
BRANCH  22  23
HETATM   23  N5  UNL     1      19.369   2.578  47.501  1.00  0.00     0.106 N 
HETATM   24  H15 UNL     1      19.593   1.564  47.397  1.00  0.00     0.315 HD
HETATM   25  H16 UNL     1      18.903   2.950  46.621  1.00  0.00     0.315 HD
ENDBRANCH  22  23
ENDBRANCH   9  22
TORSDOF 4
ENDMDL
MODEL 6
REMARK VINA RESULT:      -6.3      8.924     10.270
REMARK  4 active torsions:
REMARK  status: ('A' for Active; 'I' for Inactive)
REMARK    1  A    between atoms: N1_7  and  C6_8 
REMARK    2  A    between atoms: N4_16  and  C12_17 
REMARK    3  A    between atoms: C12_17  and  N5_18 
REMARK    4  A    between atoms: C13_19  and  O1_20 
ROOT
HETATM    1  C6  UNL     1      29.813   8.022  47.752  1.00  0.00     0.137 A 
HETATM    2  N2  UNL     1      28.781   7.299  48.113  1.00  0.00    -0.224 NA
HETATM    3  C7  UNL     1      28.913   5.864  48.192  1.00  0.00     0.230 A 
HETATM    4  N3  UNL     1      29.939   5.124  47.952  1.00  0.00    -0.268 NA
HETATM    5  C8  UNL     1      31.162   5.725  47.542  1.00  0.00     0.205 A 
HETATM    6  C9  UNL     1      31.006   7.204  47.483  1.00  0.00     0.015 A 
HETATM    7  C10 UNL     1      32.174   7.755  47.129  1.00  0.00     0.016 C 
HETATM    8  C11 UNL     1      33.314   6.821  46.882  1.00  0.00     0.306 C 
HETATM    9  N4  UNL     1      33.540   5.911  47.986  1.00  0.00     0.150 N 
HETATM   10  C13 UNL     1      32.282   5.494  48.546  1.00  0.00     0.388 C 
ENDROOT
BRANCH   1  11
HETATM   11  N1  UNL     1      29.886   9.428  47.614  1.00  0.00    -0.330 N 
HETATM   12  C5  UNL     1      29.506  10.147  46.413  1.00  0.00     0.156 C 
HETATM   13  C4  UNL     1      28.584  11.262  46.765  1.00  0.00     0.013 C 
HETATM   14  C3  UNL     1      28.690  11.850  47.953  1.00  0.00     0.018 C 
HETATM   15  C2  UNL     1      29.674  11.473  48.977  1.00  0.00     0.080 C 
HETATM   16 CL1  UNL     1      27.603  13.181  48.395  1.00  0.00    -0.089 Cl
HETATM   17  C1  UNL     1      30.645  12.637  49.142  1.00  0.00     0.020 C 
HETATM   18  C14 UNL     1      30.373  10.177  48.755  1.00  0.00     0.282 C 
HETATM   19  F1  UNL     1      30.450   9.421  49.892  1.00  0.00    -0.226 F 
ENDBRANCH   1  11
BRANCH  10  20
HETATM   20  O1  UNL     1      32.272   4.210  49.051  1.00  0.00    -0.366 OA
HETATM   21  H18 UNL     1      32.451   3.558  48.301  1.00  0.00     0.212 HD
ENDBRANCH  10  20
BRANCH   9  22
HETATM   22  C12 UNL     1      34.242   4.720  47.578  1.00  0.00     0.540 C 
BRANCH  22  23
HETATM   23  N5  UNL     1      35.073   4.282  48.656  1.00  0.00     0.106 N 
HETATM   24  H15 UNL     1      35.241   5.029  49.366  1.00  0.00     0.315 HD
HETATM   25  H16 UNL     1      35.994   3.929  48.260  1.00  0.00     0.315 HD
ENDBRANCH  22  23
ENDBRANCH   9  22
TORSDOF 4
ENDMDL
MODEL 7
REMARK VINA RESULT:      -6.3      1.700      2.149
REMARK  4 active torsions:
REMARK  status: ('A' for Active; 'I' for Inactive)
REMARK    1  A    between atoms: N1_7  and  C6_8 
REMARK    2  A    between atoms: N4_16  and  C12_17 
REMARK    3  A    between atoms: C12_17  and  N5_18 
REMARK    4  A    between atoms: C13_19  and  O1_20 
ROOT
HETATM    1  C6  UNL     1      22.114   2.804  51.000  1.00  0.00     0.137 A 
HETATM    2  N2  UNL     1      20.926   2.253  50.996  1.00  0.00    -0.224 NA
HETATM    3  C7  UNL     1      20.776   0.888  51.443  1.00  0.00     0.230 A 
HETATM    4  N3  UNL     1      21.670   0.067  51.872  1.00  0.00    -0.268 NA
HETATM    5  C8  UNL     1      23.030   0.480  51.948  1.00  0.00     0.205 A 
HETATM    6  C9  UNL     1      23.157   1.893  51.498  1.00  0.00     0.015 A 
HETATM    7  C10 UNL     1      24.435   2.276  51.608  1.00  0.00     0.016 C 
HETATM    8  C11 UNL     1      25.402   1.261  52.127  1.00  0.00     0.306 C 
HETATM    9  N4  UNL     1      24.977   0.675  53.382  1.00  0.00     0.150 N 
HETATM   10  C13 UNL     1      23.551   0.481  53.377  1.00  0.00     0.388 C 
ENDROOT
BRANCH   1  11
HETATM   11  N1  UNL     1      22.467   4.116  50.604  1.00  0.00    -0.330 N 
HETATM   12  C5  UNL     1      22.488   5.256  51.500  1.00  0.00     0.156 C 
HETATM   13  C4  UNL     1      23.786   5.976  51.370  1.00  0.00     0.013 C 
HETATM   14  C3  UNL     1      24.428   5.962  50.206  1.00  0.00     0.018 C 
HETATM   15  C2  UNL     1      23.944   5.273  49.002  1.00  0.00     0.080 C 
HETATM   16 CL1  UNL     1      25.976   6.812  50.027  1.00  0.00    -0.089 Cl
HETATM   17  C1  UNL     1      23.608   6.334  47.960  1.00  0.00     0.020 C 
HETATM   18  C14 UNL     1      22.828   4.310  49.214  1.00  0.00     0.282 C 
HETATM   19  F1  UNL     1      23.017   3.132  48.546  1.00  0.00    -0.226 F 
ENDBRANCH   1  11
BRANCH  10  20
HETATM   20  O1  UNL     1      23.117  -0.616  54.091  1.00  0.00    -0.366 OA
HETATM   21  H18 UNL     1      22.149  -0.482  54.349  1.00  0.00     0.212 HD
ENDBRANCH  10  20
BRANCH   9  22
HETATM   22  C12 UNL     1      25.583  -0.611  53.616  1.00  0.00     0.540 C 
BRANCH  22  23
HETATM   23  N5  UNL     1      26.070  -0.653  54.961  1.00  0.00     0.106 N 
HETATM   24  H15 UNL     1      26.888  -1.291  55.075  1.00  0.00     0.315 HD
HETATM   25  H16 UNL     1      25.276  -0.945  55.605  1.00  0.00     0.315 HD
ENDBRANCH  22  23
ENDBRANCH   9  22
TORSDOF 4
ENDMDL
MODEL 8
REMARK VINA RESULT:      -6.2      3.788      6.816
REMARK  4 active torsions:
REMARK  status: ('A' for Active; 'I' for Inactive)
REMARK    1  A    between atoms: N1_7  and  C6_8 
REMARK    2  A    between atoms: N4_16  and  C12_17 
REMARK    3  A    between atoms: C12_17  and  N5_18 
REMARK    4  A    between atoms: C13_19  and  O1_20 
ROOT
HETATM    1  C6  UNL     1      24.622   4.074  50.451  1.00  0.00     0.137 A 
HETATM    2  N2  UNL     1      25.018   5.277  50.115  1.00  0.00    -0.224 NA
HETATM    3  C7  UNL     1      24.414   5.931  48.978  1.00  0.00     0.230 A 
HETATM    4  N3  UNL     1      23.493   5.505  48.186  1.00  0.00    -0.268 NA
HETATM    5  C8  UNL     1      22.932   4.211  48.386  1.00  0.00     0.205 A 
HETATM    6  C9  UNL     1      23.559   3.565  49.570  1.00  0.00     0.015 A 
HETATM    7  C10 UNL     1      22.997   2.365  49.765  1.00  0.00     0.016 C 
HETATM    8  C11 UNL     1      21.926   1.957  48.804  1.00  0.00     0.306 C 
HETATM    9  N4  UNL     1      20.880   2.951  48.679  1.00  0.00     0.150 N 
HETATM   10  C13 UNL     1      21.449   4.272  48.717  1.00  0.00     0.388 C 
ENDROOT
BRANCH   1  11
HETATM   11  N1  UNL     1      25.084   3.272  51.521  1.00  0.00    -0.330 N 
HETATM   12  C5  UNL     1      24.418   3.170  52.805  1.00  0.00     0.156 C 
HETATM   13  C4  UNL     1      24.238   1.736  53.166  1.00  0.00     0.013 C 
HETATM   14  C3  UNL     1      25.119   0.837  52.738  1.00  0.00     0.018 C 
HETATM   15  C2  UNL     1      26.291   1.156  51.911  1.00  0.00     0.080 C 
HETATM   16 CL1  UNL     1      24.925  -0.877  53.155  1.00  0.00    -0.089 Cl
HETATM   17  C1  UNL     1      27.538   0.887  52.746  1.00  0.00     0.020 C 
HETATM   18  C14 UNL     1      26.299   2.513  51.298  1.00  0.00     0.282 C 
HETATM   19  F1  UNL     1      26.679   2.494  49.985  1.00  0.00    -0.226 F 
ENDBRANCH   1  11
BRANCH  10  20
HETATM   20  O1  UNL     1      20.782   5.209  47.954  1.00  0.00    -0.366 OA
HETATM   21  H18 UNL     1      19.941   5.491  48.437  1.00  0.00     0.212 HD
ENDBRANCH  10  20
BRANCH   9  22
HETATM   22  C12 UNL     1      20.159   2.831  47.436  1.00  0.00     0.540 C 
BRANCH  22  23
HETATM   23  N5  UNL     1      18.765   2.697  47.724  1.00  0.00     0.106 N 
HETATM   24  H15 UNL     1      18.584   2.324  48.682  1.00  0.00     0.315 HD
HETATM   25  H16 UNL     1      18.321   2.070  46.989  1.00  0.00     0.315 HD
ENDBRANCH  22  23
ENDBRANCH   9  22
TORSDOF 4
ENDMDL
MODEL 9
REMARK VINA RESULT:      -6.2      2.496      4.281
REMARK  4 active torsions:
REMARK  status: ('A' for Active; 'I' for Inactive)
REMARK    1  A    between atoms: N1_7  and  C6_8 
REMARK    2  A    between atoms: N4_16  and  C12_17 
REMARK    3  A    between atoms: C12_17  and  N5_18 
REMARK    4  A    between atoms: C13_19  and  O1_20 
ROOT
HETATM    1  C6  UNL     1      24.059   2.930  51.616  1.00  0.00     0.137 A 
HETATM    2  N2  UNL     1      25.237   2.412  51.860  1.00  0.00    -0.224 NA
HETATM    3  C7  UNL     1      25.340   1.253  52.715  1.00  0.00     0.230 A 
HETATM    4  N3  UNL     1      24.410   0.600  53.319  1.00  0.00    -0.268 NA
HETATM    5  C8  UNL     1      23.054   1.011  53.181  1.00  0.00     0.205 A 
HETATM    6  C9  UNL     1      22.972   2.195  52.284  1.00  0.00     0.015 A 
HETATM    7  C10 UNL     1      21.689   2.547  52.138  1.00  0.00     0.016 C 
HETATM    8  C11 UNL     1      20.675   1.725  52.866  1.00  0.00     0.306 C 
HETATM    9  N4  UNL     1      20.807   0.307  52.595  1.00  0.00     0.150 N 
HETATM   10  C13 UNL     1      22.199  -0.048  52.503  1.00  0.00     0.388 C 
ENDROOT
BRANCH   1  11
HETATM   11  N1  UNL     1      23.749   4.053  50.814  1.00  0.00    -0.330 N 
HETATM   12  C5  UNL     1      23.469   3.982  49.392  1.00  0.00     0.156 C 
HETATM   13  C4  UNL     1      22.206   4.713  49.091  1.00  0.00     0.013 C 
HETATM   14  C3  UNL     1      21.855   5.750  49.844  1.00  0.00     0.018 C 
HETATM   15  C2  UNL     1      22.637   6.248  50.984  1.00  0.00     0.080 C 
HETATM   16 CL1  UNL     1      20.355   6.636  49.505  1.00  0.00    -0.089 Cl
HETATM   17  C1  UNL     1      23.159   7.634  50.623  1.00  0.00     0.020 C 
HETATM   18  C14 UNL     1      23.715   5.344  51.472  1.00  0.00     0.282 C 
HETATM   19  F1  UNL     1      23.740   5.244  52.835  1.00  0.00    -0.226 F 
ENDBRANCH   1  11
BRANCH  10  20
HETATM   20  O1  UNL     1      22.498  -1.321  52.943  1.00  0.00    -0.366 OA
HETATM   21  H18 UNL     1      23.211  -1.718  52.347  1.00  0.00     0.212 HD
ENDBRANCH  10  20
BRANCH   9  22
HETATM   22  C12 UNL     1      20.226  -0.503  53.635  1.00  0.00     0.540 C 
BRANCH  22  23
HETATM   23  N5  UNL     1      20.499   0.106  54.901  1.00  0.00     0.106 N 
HETATM   24  H15 UNL     1      21.284   0.793  54.857  1.00  0.00     0.315 HD
HETATM   25  H16 UNL     1      20.709  -0.657  55.611  1.00  0.00     0.315 HD
ENDBRANCH  22  23
ENDBRANCH   9  22
TORSDOF 4
ENDMDL
