MODEL 1
REMARK VINA RESULT:      -8.9      0.000      0.000
REMARK  3 active torsions:
REMARK  status: ('A' for Active; 'I' for Inactive)
REMARK    1  A    between atoms: C5_7  and  C6_8 
REMARK    2  A    between atoms: C6_8  and  O1_9 
REMARK    3  A    between atoms: O1_9  and  C7_10 
ROOT
HETATM    1  O1  UNL     1      24.871  -0.510  54.016  1.00  0.00    -0.347 OA
ENDROOT
BRANCH   1   2
HETATM    2  C6  UNL     1      25.661  -0.329  52.864  1.00  0.00     0.218 C 
BRANCH   2   3
HETATM    3  C5  UNL     1      27.100  -0.175  53.148  1.00  0.00     0.012 A 
HETATM    4  C4  UNL     1      28.078  -1.139  53.102  1.00  0.00     0.044 A 
HETATM    5  C3  UNL     1      29.405  -0.864  53.398  1.00  0.00     0.027 A 
HETATM    6 CL1  UNL     1      27.552  -2.739  52.645  1.00  0.00    -0.084 Cl
HETATM    7  C2  UNL     1      29.752   0.423  53.751  1.00  0.00     0.046 A 
HETATM    8  C1  UNL     1      28.819   1.432  53.815  1.00  0.00     0.138 A 
HETATM    9  F1  UNL     1      29.161   2.687  54.162  1.00  0.00    -0.204 F 
HETATM   10  C16 UNL     1      27.501   1.118  53.511  1.00  0.00     0.082 A 
HETATM   11 CL2  UNL     1      26.331   2.445  53.604  1.00  0.00    -0.080 Cl
ENDBRANCH   2   3
ENDBRANCH   1   2
BRANCH   1  12
HETATM   12  C7  UNL     1      23.498  -0.541  53.817  1.00  0.00     0.070 A 
HETATM   13  C8  UNL     1      22.673  -1.130  54.748  1.00  0.00     0.039 A 
HETATM   14  C9  UNL     1      21.284  -1.227  54.660  1.00  0.00     0.035 A 
HETATM   15  C10 UNL     1      20.692  -0.679  53.531  1.00  0.00     0.067 A 
HETATM   16  N1  UNL     1      19.341  -0.760  53.412  1.00  0.00    -0.260 NA
HETATM   17  C14 UNL     1      21.492  -0.084  52.582  1.00  0.00    -0.005 A 
HETATM   18  C11 UNL     1      18.709  -0.246  52.328  1.00  0.00     0.117 A 
HETATM   19  C12 UNL     1      19.484   0.365  51.345  1.00  0.00     0.020 A 
HETATM   20  C13 UNL     1      20.857   0.450  51.460  1.00  0.00     0.015 A 
HETATM   21  C15 UNL     1      22.870  -0.004  52.700  1.00  0.00     0.050 A 
ENDBRANCH   1  12
TORSDOF 3
ENDMDL
MODEL 2
REMARK VINA RESULT:      -8.7      1.771      2.926
REMARK  3 active torsions:
REMARK  status: ('A' for Active; 'I' for Inactive)
REMARK    1  A    between atoms: C5_7  and  C6_8 
REMARK    2  A    between atoms: C6_8  and  O1_9 
REMARK    3  A    between atoms: O1_9  and  C7_10 
ROOT
HETATM    1  O1  UNL     1      25.365   0.743  53.513  1.00  0.00    -0.347 OA
ENDROOT
BRANCH   1   2
HETATM    2  C6  UNL     1      26.366   0.772  52.524  1.00  0.00     0.218 C 
BRANCH   2   3
HETATM    3  C5  UNL     1      27.664   0.237  52.977  1.00  0.00     0.012 A 
HETATM    4  C4  UNL     1      28.742   0.936  53.463  1.00  0.00     0.044 A 
HETATM    5  C3  UNL     1      29.917   0.309  53.855  1.00  0.00     0.027 A 
HETATM    6 CL1  UNL     1      28.549   2.667  53.562  1.00  0.00    -0.084 Cl
HETATM    7  C2  UNL     1      30.001  -1.063  53.752  1.00  0.00     0.046 A 
HETATM    8  C1  UNL     1      28.956  -1.818  53.273  1.00  0.00     0.138 A 
HETATM    9  F1  UNL     1      29.043  -3.159  53.172  1.00  0.00    -0.204 F 
HETATM   10  C16 UNL     1      27.797  -1.155  52.892  1.00  0.00     0.082 A 
HETATM   11 CL2  UNL     1      26.474  -2.164  52.282  1.00  0.00    -0.080 Cl
ENDBRANCH   2   3
ENDBRANCH   1   2
BRANCH   1  12
HETATM   12  C7  UNL     1      24.057   0.654  53.056  1.00  0.00     0.070 A 
HETATM   13  C8  UNL     1      23.697   1.231  51.859  1.00  0.00     0.039 A 
HETATM   14  C9  UNL     1      22.421   1.213  51.297  1.00  0.00     0.035 A 
HETATM   15  C10 UNL     1      21.434   0.554  52.015  1.00  0.00     0.067 A 
HETATM   16  N1  UNL     1      20.178   0.521  51.498  1.00  0.00    -0.260 NA
HETATM   17  C14 UNL     1      21.764  -0.032  53.216  1.00  0.00    -0.005 A 
HETATM   18  C11 UNL     1      19.172  -0.105  52.158  1.00  0.00     0.117 A 
HETATM   19  C12 UNL     1      19.466  -0.710  53.378  1.00  0.00     0.020 A 
HETATM   20  C13 UNL     1      20.740  -0.680  53.909  1.00  0.00     0.015 A 
HETATM   21  C15 UNL     1      23.043   0.004  53.747  1.00  0.00     0.050 A 
ENDBRANCH   1  12
TORSDOF 3
ENDMDL
MODEL 3
REMARK VINA RESULT:      -8.7      0.995      2.201
REMARK  3 active torsions:
REMARK  status: ('A' for Active; 'I' for Inactive)
REMARK    1  A    between atoms: C5_7  and  C6_8 
REMARK    2  A    between atoms: C6_8  and  O1_9 
REMARK    3  A    between atoms: O1_9  and  C7_10 
ROOT
HETATM    1  O1  UNL     1      24.651  -0.626  54.083  1.00  0.00    -0.347 OA
ENDROOT
BRANCH   1   2
HETATM    2  C6  UNL     1      25.486  -0.493  52.957  1.00  0.00     0.218 C 
BRANCH   2   3
HETATM    3  C5  UNL     1      26.824   0.043  53.269  1.00  0.00     0.012 A 
HETATM    4  C4  UNL     1      27.155   1.324  53.637  1.00  0.00     0.044 A 
HETATM    5  C3  UNL     1      28.464   1.705  53.901  1.00  0.00     0.027 A 
HETATM    6 CL1  UNL     1      25.830   2.453  53.754  1.00  0.00    -0.084 Cl
HETATM    7  C2  UNL     1      29.463   0.761  53.791  1.00  0.00     0.046 A 
HETATM    8  C1  UNL     1      29.194  -0.538  53.427  1.00  0.00     0.138 A 
HETATM    9  F1  UNL     1      30.173  -1.457  53.318  1.00  0.00    -0.204 F 
HETATM   10  C16 UNL     1      27.873  -0.881  53.171  1.00  0.00     0.082 A 
HETATM   11 CL2  UNL     1      27.570  -2.564  52.707  1.00  0.00    -0.080 Cl
ENDBRANCH   2   3
ENDBRANCH   1   2
BRANCH   1  12
HETATM   12  C7  UNL     1      23.285  -0.620  53.835  1.00  0.00     0.070 A 
HETATM   13  C8  UNL     1      22.412  -1.193  54.733  1.00  0.00     0.039 A 
HETATM   14  C9  UNL     1      21.025  -1.253  54.595  1.00  0.00     0.035 A 
HETATM   15  C10 UNL     1      20.488  -0.683  53.450  1.00  0.00     0.067 A 
HETATM   16  N1  UNL     1      19.140  -0.728  53.283  1.00  0.00    -0.260 NA
HETATM   17  C14 UNL     1      21.336  -0.104  52.534  1.00  0.00    -0.005 A 
HETATM   18  C11 UNL     1      18.561  -0.192  52.180  1.00  0.00     0.117 A 
HETATM   19  C12 UNL     1      19.386   0.405  51.229  1.00  0.00     0.020 A 
HETATM   20  C13 UNL     1      20.755   0.453  51.393  1.00  0.00     0.015 A 
HETATM   21  C15 UNL     1      22.711  -0.061  52.701  1.00  0.00     0.050 A 
ENDBRANCH   1  12
TORSDOF 3
ENDMDL
MODEL 4
REMARK VINA RESULT:      -8.2      3.655      7.540
REMARK  3 active torsions:
REMARK  status: ('A' for Active; 'I' for Inactive)
REMARK    1  A    between atoms: C5_7  and  C6_8 
REMARK    2  A    between atoms: C6_8  and  O1_9 
REMARK    3  A    between atoms: O1_9  and  C7_10 
ROOT
HETATM    1  O1  UNL     1      24.179   1.157  51.982  1.00  0.00    -0.347 OA
ENDROOT
BRANCH   1   2
HETATM    2  C6  UNL     1      23.302   1.637  52.974  1.00  0.00     0.218 C 
BRANCH   2   3
HETATM    3  C5  UNL     1      21.979   0.984  52.964  1.00  0.00     0.012 A 
HETATM    4  C4  UNL     1      20.845   1.384  52.300  1.00  0.00     0.044 A 
HETATM    5  C3  UNL     1      19.653   0.677  52.377  1.00  0.00     0.027 A 
HETATM    6 CL1  UNL     1      20.990   2.838  51.347  1.00  0.00    -0.084 Cl
HETATM    7  C2  UNL     1      19.609  -0.465  53.147  1.00  0.00     0.046 A 
HETATM    8  C1  UNL     1      20.712  -0.916  53.836  1.00  0.00     0.138 A 
HETATM    9  F1  UNL     1      20.664  -2.032  54.589  1.00  0.00    -0.204 F 
HETATM   10  C16 UNL     1      21.886  -0.183  53.733  1.00  0.00     0.082 A 
HETATM   11 CL2  UNL     1      23.282  -0.799  54.634  1.00  0.00    -0.080 Cl
ENDBRANCH   2   3
ENDBRANCH   1   2
BRANCH   1  12
HETATM   12  C7  UNL     1      25.495   0.956  52.375  1.00  0.00     0.070 A 
HETATM   13  C8  UNL     1      26.296   2.027  52.699  1.00  0.00     0.039 A 
HETATM   14  C9  UNL     1      27.630   1.955  53.103  1.00  0.00     0.035 A 
HETATM   15  C10 UNL     1      28.187   0.687  53.182  1.00  0.00     0.067 A 
HETATM   16  N1  UNL     1      29.486   0.581  53.569  1.00  0.00    -0.260 NA
HETATM   17  C14 UNL     1      27.410  -0.404  52.864  1.00  0.00    -0.005 A 
HETATM   18  C11 UNL     1      30.085  -0.632  53.659  1.00  0.00     0.117 A 
HETATM   19  C12 UNL     1      29.331  -1.761  53.345  1.00  0.00     0.020 A 
HETATM   20  C13 UNL     1      28.012  -1.660  52.951  1.00  0.00     0.015 A 
HETATM   21  C15 UNL     1      26.088  -0.297  52.465  1.00  0.00     0.050 A 
ENDBRANCH   1  12
TORSDOF 3
ENDMDL
MODEL 5
REMARK VINA RESULT:      -8.2      3.793      7.398
REMARK  3 active torsions:
REMARK  status: ('A' for Active; 'I' for Inactive)
REMARK    1  A    between atoms: C5_7  and  C6_8 
REMARK    2  A    between atoms: C6_8  and  O1_9 
REMARK    3  A    between atoms: O1_9  and  C7_10 
ROOT
HETATM    1  O1  UNL     1      24.175   0.989  52.016  1.00  0.00    -0.347 OA
ENDROOT
BRANCH   1   2
HETATM    2  C6  UNL     1      23.276   1.473  52.985  1.00  0.00     0.218 C 
BRANCH   2   3
HETATM    3  C5  UNL     1      22.143   0.566  53.250  1.00  0.00     0.012 A 
HETATM    4  C4  UNL     1      22.124  -0.550  54.051  1.00  0.00     0.044 A 
HETATM    5  C3  UNL     1      20.985  -1.326  54.214  1.00  0.00     0.027 A 
HETATM    6 CL1  UNL     1      23.622  -0.937  54.857  1.00  0.00    -0.084 Cl
HETATM    7  C2  UNL     1      19.834  -0.961  53.548  1.00  0.00     0.046 A 
HETATM    8  C1  UNL     1      19.790   0.146  52.732  1.00  0.00     0.138 A 
HETATM    9  F1  UNL     1      18.664   0.498  52.082  1.00  0.00    -0.204 F 
HETATM   10  C16 UNL     1      20.949   0.898  52.595  1.00  0.00     0.082 A 
HETATM   11 CL2  UNL     1      20.850   2.316  51.537  1.00  0.00    -0.080 Cl
ENDBRANCH   2   3
ENDBRANCH   1   2
BRANCH   1  12
HETATM   12  C7  UNL     1      25.493   0.838  52.427  1.00  0.00     0.070 A 
HETATM   13  C8  UNL     1      26.234   1.934  52.807  1.00  0.00     0.039 A 
HETATM   14  C9  UNL     1      27.562   1.912  53.233  1.00  0.00     0.035 A 
HETATM   15  C10 UNL     1      28.181   0.671  53.274  1.00  0.00     0.067 A 
HETATM   16  N1  UNL     1      29.476   0.614  53.682  1.00  0.00    -0.260 NA
HETATM   17  C14 UNL     1      27.465  -0.443  52.900  1.00  0.00    -0.005 A 
HETATM   18  C11 UNL     1      30.134  -0.571  53.737  1.00  0.00     0.117 A 
HETATM   19  C12 UNL     1      29.442  -1.722  53.366  1.00  0.00     0.020 A 
HETATM   20  C13 UNL     1      28.127  -1.671  52.951  1.00  0.00     0.015 A 
HETATM   21  C15 UNL     1      26.146  -0.386  52.481  1.00  0.00     0.050 A 
ENDBRANCH   1  12
TORSDOF 3
ENDMDL
MODEL 6
REMARK VINA RESULT:      -8.1      4.510      6.948
REMARK  3 active torsions:
REMARK  status: ('A' for Active; 'I' for Inactive)
REMARK    1  A    between atoms: C5_7  and  C6_8 
REMARK    2  A    between atoms: C6_8  and  O1_9 
REMARK    3  A    between atoms: O1_9  and  C7_10 
ROOT
HETATM    1  O1  UNL     1      24.854   2.645  52.901  1.00  0.00    -0.347 OA
ENDROOT
BRANCH   1   2
HETATM    2  C6  UNL     1      24.205   2.834  51.666  1.00  0.00     0.218 C 
BRANCH   2   3
HETATM    3  C5  UNL     1      24.573   4.092  50.988  1.00  0.00     0.012 A 
HETATM    4  C4  UNL     1      25.606   4.306  50.108  1.00  0.00     0.044 A 
HETATM    5  C3  UNL     1      25.849   5.547  49.538  1.00  0.00     0.027 A 
HETATM    6 CL1  UNL     1      26.599   2.919  49.745  1.00  0.00    -0.084 Cl
HETATM    7  C2  UNL     1      25.023   6.601  49.869  1.00  0.00     0.046 A 
HETATM    8  C1  UNL     1      23.972   6.449  50.744  1.00  0.00     0.138 A 
HETATM    9  F1  UNL     1      23.169   7.482  51.066  1.00  0.00    -0.204 F 
HETATM   10  C16 UNL     1      23.760   5.192  51.293  1.00  0.00     0.082 A 
HETATM   11 CL2  UNL     1      22.396   5.039  52.414  1.00  0.00    -0.080 Cl
ENDBRANCH   2   3
ENDBRANCH   1   2
BRANCH   1  12
HETATM   12  C7  UNL     1      25.717   1.560  52.978  1.00  0.00     0.070 A 
HETATM   13  C8  UNL     1      25.241   0.279  52.807  1.00  0.00     0.039 A 
HETATM   14  C9  UNL     1      26.004  -0.887  52.865  1.00  0.00     0.035 A 
HETATM   15  C10 UNL     1      27.359  -0.733  53.116  1.00  0.00     0.067 A 
HETATM   16  N1  UNL     1      28.131  -1.850  53.182  1.00  0.00    -0.260 NA
HETATM   17  C14 UNL     1      27.864   0.536  53.291  1.00  0.00    -0.005 A 
HETATM   18  C11 UNL     1      29.460  -1.760  53.430  1.00  0.00     0.117 A 
HETATM   19  C12 UNL     1      30.009  -0.492  53.613  1.00  0.00     0.020 A 
HETATM   20  C13 UNL     1      29.231   0.646  53.547  1.00  0.00     0.015 A 
HETATM   21  C15 UNL     1      27.078   1.675  53.228  1.00  0.00     0.050 A 
ENDBRANCH   1  12
TORSDOF 3
ENDMDL
MODEL 7
REMARK VINA RESULT:      -8.1      4.378      7.016
REMARK  3 active torsions:
REMARK  status: ('A' for Active; 'I' for Inactive)
REMARK    1  A    between atoms: C5_7  and  C6_8 
REMARK    2  A    between atoms: C6_8  and  O1_9 
REMARK    3  A    between atoms: O1_9  and  C7_10 
ROOT
HETATM    1  O1  UNL     1      24.538   2.467  52.715  1.00  0.00    -0.347 OA
ENDROOT
BRANCH   1   2
HETATM    2  C6  UNL     1      24.140   2.757  51.396  1.00  0.00     0.218 C 
BRANCH   2   3
HETATM    3  C5  UNL     1      24.404   4.150  50.989  1.00  0.00     0.012 A 
HETATM    4  C4  UNL     1      23.705   5.280  51.339  1.00  0.00     0.044 A 
HETATM    5  C3  UNL     1      24.057   6.541  50.881  1.00  0.00     0.027 A 
HETATM    6 CL1  UNL     1      22.342   5.036  52.400  1.00  0.00    -0.084 Cl
HETATM    7  C2  UNL     1      25.148   6.663  50.046  1.00  0.00     0.046 A 
HETATM    8  C1  UNL     1      25.887   5.569  49.659  1.00  0.00     0.138 A 
HETATM    9  F1  UNL     1      26.951   5.691  48.842  1.00  0.00    -0.204 F 
HETATM   10  C16 UNL     1      25.505   4.323  50.139  1.00  0.00     0.082 A 
HETATM   11 CL2  UNL     1      26.485   2.942  49.619  1.00  0.00    -0.080 Cl
ENDBRANCH   2   3
ENDBRANCH   1   2
BRANCH   1  12
HETATM   12  C7  UNL     1      25.499   1.476  52.859  1.00  0.00     0.070 A 
HETATM   13  C8  UNL     1      25.147   0.147  52.776  1.00  0.00     0.039 A 
HETATM   14  C9  UNL     1      26.017  -0.936  52.907  1.00  0.00     0.035 A 
HETATM   15  C10 UNL     1      27.351  -0.637  53.140  1.00  0.00     0.067 A 
HETATM   16  N1  UNL     1      28.225  -1.669  53.276  1.00  0.00    -0.260 NA
HETATM   17  C14 UNL     1      27.733   0.682  53.228  1.00  0.00    -0.005 A 
HETATM   18  C11 UNL     1      29.540  -1.438  53.510  1.00  0.00     0.117 A 
HETATM   19  C12 UNL     1      29.966  -0.115  53.606  1.00  0.00     0.020 A 
HETATM   20  C13 UNL     1      29.084   0.938  53.469  1.00  0.00     0.015 A 
HETATM   21  C15 UNL     1      26.843   1.735  53.094  1.00  0.00     0.050 A 
ENDBRANCH   1  12
TORSDOF 3
ENDMDL
MODEL 8
REMARK VINA RESULT:      -7.9      4.009      7.667
REMARK  3 active torsions:
REMARK  status: ('A' for Active; 'I' for Inactive)
REMARK    1  A    between atoms: C5_7  and  C6_8 
REMARK    2  A    between atoms: C6_8  and  O1_9 
REMARK    3  A    between atoms: O1_9  and  C7_10 
ROOT
HETATM    1  O1  UNL     1      23.271   0.758  51.965  1.00  0.00    -0.347 OA
ENDROOT
BRANCH   1   2
HETATM    2  C6  UNL     1      22.212   1.423  52.614  1.00  0.00     0.218 C 
BRANCH   2   3
HETATM    3  C5  UNL     1      20.948   0.662  52.619  1.00  0.00     0.012 A 
HETATM    4  C4  UNL     1      20.497  -0.219  53.572  1.00  0.00     0.044 A 
HETATM    5  C3  UNL     1      19.282  -0.879  53.456  1.00  0.00     0.027 A 
HETATM    6 CL1  UNL     1      21.545  -0.462  54.945  1.00  0.00    -0.084 Cl
HETATM    7  C2  UNL     1      18.501  -0.639  52.345  1.00  0.00     0.046 A 
HETATM    8  C1  UNL     1      18.899   0.232  51.357  1.00  0.00     0.138 A 
HETATM    9  F1  UNL     1      18.134   0.462  50.271  1.00  0.00    -0.204 F 
HETATM   10  C16 UNL     1      20.121   0.874  51.508  1.00  0.00     0.082 A 
HETATM   11 CL2  UNL     1      20.594   1.988  50.215  1.00  0.00    -0.080 Cl
ENDBRANCH   2   3
ENDBRANCH   1   2
BRANCH   1  12
HETATM   12  C7  UNL     1      24.524   0.891  52.549  1.00  0.00     0.070 A 
HETATM   13  C8  UNL     1      24.866   2.051  53.206  1.00  0.00     0.039 A 
HETATM   14  C9  UNL     1      26.089   2.305  53.826  1.00  0.00     0.035 A 
HETATM   15  C10 UNL     1      27.037   1.293  53.771  1.00  0.00     0.067 A 
HETATM   16  N1  UNL     1      28.241   1.509  54.362  1.00  0.00    -0.260 NA
HETATM   17  C14 UNL     1      26.723   0.122  53.120  1.00  0.00    -0.005 A 
HETATM   18  C11 UNL     1      29.207   0.558  54.335  1.00  0.00     0.117 A 
HETATM   19  C12 UNL     1      28.928  -0.642  53.685  1.00  0.00     0.020 A 
HETATM   20  C13 UNL     1      27.707  -0.868  53.083  1.00  0.00     0.015 A 
HETATM   21  C15 UNL     1      25.497  -0.099  52.513  1.00  0.00     0.050 A 
ENDBRANCH   1  12
TORSDOF 3
ENDMDL
MODEL 9
REMARK VINA RESULT:      -7.7      4.884      7.046
REMARK  3 active torsions:
REMARK  status: ('A' for Active; 'I' for Inactive)
REMARK    1  A    between atoms: C5_7  and  C6_8 
REMARK    2  A    between atoms: C6_8  and  O1_9 
REMARK    3  A    between atoms: O1_9  and  C7_10 
ROOT
HETATM    1  O1  UNL     1      23.175   2.801  52.254  1.00  0.00    -0.347 OA
ENDROOT
BRANCH   1   2
HETATM    2  C6  UNL     1      23.183   1.465  51.807  1.00  0.00     0.218 C 
BRANCH   2   3
HETATM    3  C5  UNL     1      22.818   0.488  52.850  1.00  0.00     0.012 A 
HETATM    4  C4  UNL     1      21.566   0.026  53.173  1.00  0.00     0.044 A 
HETATM    5  C3  UNL     1      21.355  -0.898  54.187  1.00  0.00     0.027 A 
HETATM    6 CL1  UNL     1      20.247   0.670  52.230  1.00  0.00    -0.084 Cl
HETATM    7  C2  UNL     1      22.443  -1.367  54.892  1.00  0.00     0.046 A 
HETATM    8  C1  UNL     1      23.722  -0.942  54.616  1.00  0.00     0.138 A 
HETATM    9  F1  UNL     1      24.782  -1.402  55.308  1.00  0.00    -0.204 F 
HETATM   10  C16 UNL     1      23.893  -0.018  53.594  1.00  0.00     0.082 A 
HETATM   11 CL2  UNL     1      25.555   0.502  53.269  1.00  0.00    -0.080 Cl
ENDBRANCH   2   3
ENDBRANCH   1   2
BRANCH   1  12
HETATM   12  C7  UNL     1      23.939   3.696  51.517  1.00  0.00     0.070 A 
HETATM   13  C8  UNL     1      23.607   5.032  51.485  1.00  0.00     0.039 A 
HETATM   14  C9  UNL     1      24.291   6.024  50.782  1.00  0.00     0.035 A 
HETATM   15  C10 UNL     1      25.401   5.619  50.056  1.00  0.00     0.067 A 
HETATM   16  N1  UNL     1      26.089   6.561  49.357  1.00  0.00    -0.260 NA
HETATM   17  C14 UNL     1      25.757   4.290  50.069  1.00  0.00    -0.005 A 
HETATM   18  C11 UNL     1      27.178   6.222  48.625  1.00  0.00     0.117 A 
HETATM   19  C12 UNL     1      27.571   4.885  48.613  1.00  0.00     0.020 A 
HETATM   20  C13 UNL     1      26.877   3.924  49.320  1.00  0.00     0.015 A 
HETATM   21  C15 UNL     1      25.056   3.328  50.778  1.00  0.00     0.050 A 
ENDBRANCH   1  12
TORSDOF 3
ENDMDL
