MODEL 1
REMARK VINA RESULT:      -8.7      0.000      0.000
REMARK  3 active torsions:
REMARK  status: ('A' for Active; 'I' for Inactive)
REMARK    1  A    between atoms: C7_7  and  C8_8 
REMARK    2  A    between atoms: C8_8  and  N1_9 
REMARK    3  A    between atoms: C14_15  and  N2_16 
ROOT
HETATM    1  N1  UNL     1      25.093   0.848  52.991  1.00  0.00    -0.376 N 
HETATM    2  C9  UNL     1      25.176   1.434  51.669  1.00  0.00     0.128 C 
HETATM    3  C10 UNL     1      23.803   2.033  51.486  1.00  0.00     0.060 C 
HETATM    4  C11 UNL     1      22.943   1.087  52.237  1.00  0.00    -0.030 A 
HETATM    5  C12 UNL     1      21.639   0.876  52.144  1.00  0.00     0.020 A 
HETATM    6  C13 UNL     1      21.084  -0.138  53.033  1.00  0.00    -0.017 A 
HETATM    7  C14 UNL     1      19.816  -0.489  53.109  1.00  0.00     0.114 C 
HETATM    8  C15 UNL     1      18.941   0.235  52.200  1.00  0.00     0.117 C 
HETATM    9  N3  UNL     1      18.247   0.822  51.450  1.00  0.00    -0.190 NA
HETATM   10  C16 UNL     1      21.855  -0.931  53.999  1.00  0.00     0.071 A 
HETATM   11  C17 UNL     1      23.296  -0.567  53.984  1.00  0.00     0.008 A 
HETATM   12  C18 UNL     1      23.776   0.348  53.175  1.00  0.00     0.033 A 
ENDROOT
BRANCH   7  13
HETATM   13  N2  UNL     1      19.131  -1.443  53.911  1.00  0.00    -0.390 N 
HETATM   14  H15 UNL     1      19.941  -2.007  54.304  1.00  0.00     0.157 HD
HETATM   15  H16 UNL     1      18.099  -1.527  54.046  1.00  0.00     0.157 HD
ENDBRANCH   7  13
BRANCH   1  16
HETATM   16  C8  UNL     1      26.220   0.829  53.902  1.00  0.00     0.162 C 
BRANCH  16  17
HETATM   17  C7  UNL     1      27.199  -0.215  53.603  1.00  0.00    -0.034 A 
HETATM   18  C2  UNL     1      28.558  -0.166  53.830  1.00  0.00    -0.054 A 
HETATM   19  C1  UNL     1      29.103   1.064  54.429  1.00  0.00     0.049 C 
HETATM   20  C3  UNL     1      29.446  -1.181  53.535  1.00  0.00     0.007 A 
HETATM   21  C4  UNL     1      28.964  -2.339  52.969  1.00  0.00     0.001 A 
HETATM   22  C5  UNL     1      27.619  -2.482  52.704  1.00  0.00     0.001 A 
HETATM   23  C6  UNL     1      26.794  -1.425  53.027  1.00  0.00     0.009 A 
ENDBRANCH  16  17
ENDBRANCH   1  16
TORSDOF 3
ENDMDL
MODEL 2
REMARK VINA RESULT:      -8.3      2.114      7.241
REMARK  3 active torsions:
REMARK  status: ('A' for Active; 'I' for Inactive)
REMARK    1  A    between atoms: C7_7  and  C8_8 
REMARK    2  A    between atoms: C8_8  and  N1_9 
REMARK    3  A    between atoms: C14_15  and  N2_16 
ROOT
HETATM    1  N1  UNL     1      23.296   1.376  52.191  1.00  0.00    -0.376 N 
HETATM    2  C9  UNL     1      23.060   2.648  52.843  1.00  0.00     0.128 C 
HETATM    3  C10 UNL     1      24.446   3.235  52.934  1.00  0.00     0.060 C 
HETATM    4  C11 UNL     1      25.290   2.028  53.111  1.00  0.00    -0.030 A 
HETATM    5  C12 UNL     1      26.516   1.920  53.600  1.00  0.00     0.020 A 
HETATM    6  C13 UNL     1      27.077   0.574  53.643  1.00  0.00    -0.017 A 
HETATM    7  C14 UNL     1      28.279   0.252  54.077  1.00  0.00     0.114 C 
HETATM    8  C15 UNL     1      29.068   1.381  54.542  1.00  0.00     0.117 C 
HETATM    9  N3  UNL     1      29.691   2.305  54.926  1.00  0.00    -0.190 NA
HETATM   10  C16 UNL     1      26.389  -0.644  53.198  1.00  0.00     0.071 A 
HETATM   11  C17 UNL     1      25.032  -0.348  52.670  1.00  0.00     0.008 A 
HETATM   12  C18 UNL     1      24.544   0.869  52.642  1.00  0.00     0.033 A 
ENDROOT
BRANCH   7  13
HETATM   13  N2  UNL     1      28.959  -0.993  54.180  1.00  0.00    -0.390 N 
HETATM   14  H15 UNL     1      28.943  -1.154  55.230  1.00  0.00     0.157 HD
HETATM   15  H16 UNL     1      29.355  -1.561  53.399  1.00  0.00     0.157 HD
ENDBRANCH   7  13
BRANCH   1  16
HETATM   16  C8  UNL     1      22.356   0.803  51.248  1.00  0.00     0.162 C 
BRANCH  16  17
HETATM   17  C7  UNL     1      21.153   0.262  51.874  1.00  0.00    -0.034 A 
HETATM   18  C2  UNL     1      19.860   0.346  51.399  1.00  0.00    -0.054 A 
HETATM   19  C1  UNL     1      19.649   1.064  50.130  1.00  0.00     0.049 C 
HETATM   20  C3  UNL     1      18.752  -0.186  52.024  1.00  0.00     0.007 A 
HETATM   21  C4  UNL     1      18.919  -0.857  53.214  1.00  0.00     0.001 A 
HETATM   22  C5  UNL     1      20.174  -0.995  53.770  1.00  0.00     0.001 A 
HETATM   23  C6  UNL     1      21.233  -0.435  53.086  1.00  0.00     0.009 A 
ENDBRANCH  16  17
ENDBRANCH   1  16
TORSDOF 3
ENDMDL
MODEL 3
REMARK VINA RESULT:      -8.3      0.968      2.151
REMARK  3 active torsions:
REMARK  status: ('A' for Active; 'I' for Inactive)
REMARK    1  A    between atoms: C7_7  and  C8_8 
REMARK    2  A    between atoms: C8_8  and  N1_9 
REMARK    3  A    between atoms: C14_15  and  N2_16 
ROOT
HETATM    1  N1  UNL     1      25.013   0.563  52.873  1.00  0.00    -0.376 N 
HETATM    2  C9  UNL     1      25.031   0.079  54.238  1.00  0.00     0.128 C 
HETATM    3  C10 UNL     1      23.861  -0.873  54.268  1.00  0.00     0.060 C 
HETATM    4  C11 UNL     1      22.913  -0.238  53.320  1.00  0.00    -0.030 A 
HETATM    5  C12 UNL     1      21.604  -0.398  53.202  1.00  0.00     0.020 A 
HETATM    6  C13 UNL     1      20.950   0.382  52.157  1.00  0.00    -0.017 A 
HETATM    7  C14 UNL     1      19.665   0.359  51.866  1.00  0.00     0.114 C 
HETATM    8  C15 UNL     1      18.881  -0.543  52.695  1.00  0.00     0.117 C 
HETATM    9  N3  UNL     1      18.258  -1.269  53.383  1.00  0.00    -0.190 NA
HETATM   10  C16 UNL     1      21.627   1.319  51.252  1.00  0.00     0.071 A 
HETATM   11  C17 UNL     1      23.089   1.374  51.509  1.00  0.00     0.008 A 
HETATM   12  C18 UNL     1      23.659   0.665  52.455  1.00  0.00     0.033 A 
ENDROOT
BRANCH   7  13
HETATM   13  N2  UNL     1      18.890   1.049  50.894  1.00  0.00    -0.390 N 
HETATM   14  H15 UNL     1      18.746   1.989  51.368  1.00  0.00     0.157 HD
HETATM   15  H16 UNL     1      18.570   0.684  49.969  1.00  0.00     0.157 HD
ENDBRANCH   7  13
BRANCH   1  16
HETATM   16  C8  UNL     1      26.227   0.860  52.139  1.00  0.00     0.162 C 
BRANCH  16  17
HETATM   17  C7  UNL     1      27.421   0.237  52.705  1.00  0.00    -0.034 A 
HETATM   18  C2  UNL     1      28.463   0.873  53.348  1.00  0.00    -0.054 A 
HETATM   19  C1  UNL     1      28.387   2.338  53.479  1.00  0.00     0.049 C 
HETATM   20  C3  UNL     1      29.572   0.241  53.873  1.00  0.00     0.007 A 
HETATM   21  C4  UNL     1      29.672  -1.126  53.759  1.00  0.00     0.001 A 
HETATM   22  C5  UNL     1      28.680  -1.851  53.133  1.00  0.00     0.001 A 
HETATM   23  C6  UNL     1      27.603  -1.150  52.634  1.00  0.00     0.009 A 
ENDBRANCH  16  17
ENDBRANCH   1  16
TORSDOF 3
ENDMDL
MODEL 4
REMARK VINA RESULT:      -8.2      3.228      5.721
REMARK  3 active torsions:
REMARK  status: ('A' for Active; 'I' for Inactive)
REMARK    1  A    between atoms: C7_7  and  C8_8 
REMARK    2  A    between atoms: C8_8  and  N1_9 
REMARK    3  A    between atoms: C14_15  and  N2_16 
ROOT
HETATM    1  N1  UNL     1      25.299   2.613  50.882  1.00  0.00    -0.376 N 
HETATM    2  C9  UNL     1      26.538   2.309  51.568  1.00  0.00     0.128 C 
HETATM    3  C10 UNL     1      26.263   0.949  52.160  1.00  0.00     0.060 C 
HETATM    4  C11 UNL     1      24.811   1.020  52.454  1.00  0.00    -0.030 A 
HETATM    5  C12 UNL     1      24.084   0.295  53.290  1.00  0.00     0.020 A 
HETATM    6  C13 UNL     1      22.662   0.616  53.353  1.00  0.00    -0.017 A 
HETATM    7  C14 UNL     1      21.766   0.010  54.105  1.00  0.00     0.114 C 
HETATM    8  C15 UNL     1      22.302  -1.066  54.923  1.00  0.00     0.117 C 
HETATM    9  N3  UNL     1      22.754  -1.928  55.588  1.00  0.00    -0.190 NA
HETATM   10  C16 UNL     1      21.997   1.670  52.576  1.00  0.00     0.071 A 
HETATM   11  C17 UNL     1      22.950   2.380  51.683  1.00  0.00     0.008 A 
HETATM   12  C18 UNL     1      24.226   2.077  51.643  1.00  0.00     0.033 A 
ENDROOT
BRANCH   7  13
HETATM   13  N2  UNL     1      20.367   0.203  54.273  1.00  0.00    -0.390 N 
HETATM   14  H15 UNL     1      20.004  -0.791  54.174  1.00  0.00     0.157 HD
HETATM   15  H16 UNL     1      19.872   1.106  54.447  1.00  0.00     0.157 HD
ENDBRANCH   7  13
BRANCH   1  16
HETATM   16  C8  UNL     1      25.266   3.343  49.630  1.00  0.00     0.162 C 
BRANCH  16  17
HETATM   17  C7  UNL     1      25.373   4.792  49.793  1.00  0.00    -0.034 A 
HETATM   18  C2  UNL     1      26.383   5.606  49.326  1.00  0.00    -0.054 A 
HETATM   19  C1  UNL     1      27.487   4.965  48.591  1.00  0.00     0.049 C 
HETATM   20  C3  UNL     1      26.439   6.974  49.500  1.00  0.00     0.007 A 
HETATM   21  C4  UNL     1      25.424   7.597  50.188  1.00  0.00     0.001 A 
HETATM   22  C5  UNL     1      24.370   6.868  50.694  1.00  0.00     0.001 A 
HETATM   23  C6  UNL     1      24.383   5.505  50.480  1.00  0.00     0.009 A 
ENDBRANCH  16  17
ENDBRANCH   1  16
TORSDOF 3
ENDMDL
MODEL 5
REMARK VINA RESULT:      -8.2      2.552      3.416
REMARK  3 active torsions:
REMARK  status: ('A' for Active; 'I' for Inactive)
REMARK    1  A    between atoms: C7_7  and  C8_8 
REMARK    2  A    between atoms: C8_8  and  N1_9 
REMARK    3  A    between atoms: C14_15  and  N2_16 
ROOT
HETATM    1  N1  UNL     1      25.555   2.387  51.505  1.00  0.00    -0.376 N 
HETATM    2  C9  UNL     1      26.423   2.866  50.450  1.00  0.00     0.128 C 
HETATM    3  C10 UNL     1      25.496   3.717  49.618  1.00  0.00     0.060 C 
HETATM    4  C11 UNL     1      24.201   3.009  49.765  1.00  0.00    -0.030 A 
HETATM    5  C12 UNL     1      23.121   3.060  49.001  1.00  0.00     0.020 A 
HETATM    6  C13 UNL     1      21.995   2.232  49.419  1.00  0.00    -0.017 A 
HETATM    7  C14 UNL     1      20.829   2.148  48.811  1.00  0.00     0.114 C 
HETATM    8  C15 UNL     1      20.715   2.979  47.623  1.00  0.00     0.117 C 
HETATM    9  N3  UNL     1      20.642   3.649  46.656  1.00  0.00    -0.190 NA
HETATM   10  C16 UNL     1      21.980   1.357  50.599  1.00  0.00     0.071 A 
HETATM   11  C17 UNL     1      23.261   1.423  51.349  1.00  0.00     0.008 A 
HETATM   12  C18 UNL     1      24.262   2.174  50.955  1.00  0.00     0.033 A 
ENDROOT
BRANCH   7  13
HETATM   13  N2  UNL     1      19.652   1.400  49.091  1.00  0.00    -0.390 N 
HETATM   14  H15 UNL     1      19.215   1.979  49.867  1.00  0.00     0.157 HD
HETATM   15  H16 UNL     1      19.343   0.517  48.627  1.00  0.00     0.157 HD
ENDBRANCH   7  13
BRANCH   1  16
HETATM   16  C8  UNL     1      26.021   2.194  52.864  1.00  0.00     0.162 C 
BRANCH  16  17
HETATM   17  C7  UNL     1      26.947   1.074  53.013  1.00  0.00    -0.034 A 
HETATM   18  C2  UNL     1      28.264   1.136  53.421  1.00  0.00    -0.054 A 
HETATM   19  C1  UNL     1      28.816   2.465  53.735  1.00  0.00     0.049 C 
HETATM   20  C3  UNL     1      29.102   0.048  53.553  1.00  0.00     0.007 A 
HETATM   21  C4  UNL     1      28.613  -1.205  53.261  1.00  0.00     0.001 A 
HETATM   22  C5  UNL     1      27.309  -1.369  52.846  1.00  0.00     0.001 A 
HETATM   23  C6  UNL     1      26.532  -0.234  52.738  1.00  0.00     0.009 A 
ENDBRANCH  16  17
ENDBRANCH   1  16
TORSDOF 3
ENDMDL
MODEL 6
REMARK VINA RESULT:      -8.0      1.890      3.403
REMARK  3 active torsions:
REMARK  status: ('A' for Active; 'I' for Inactive)
REMARK    1  A    between atoms: C7_7  and  C8_8 
REMARK    2  A    between atoms: C8_8  and  N1_9 
REMARK    3  A    between atoms: C14_15  and  N2_16 
ROOT
HETATM    1  N1  UNL     1      25.069  -0.084  52.789  1.00  0.00    -0.376 N 
HETATM    2  C9  UNL     1      24.441  -0.524  54.017  1.00  0.00     0.128 C 
HETATM    3  C10 UNL     1      22.973  -0.345  53.721  1.00  0.00     0.060 C 
HETATM    4  C11 UNL     1      22.972   0.839  52.828  1.00  0.00    -0.030 A 
HETATM    5  C12 UNL     1      21.989   1.676  52.537  1.00  0.00     0.020 A 
HETATM    6  C13 UNL     1      22.313   2.756  51.611  1.00  0.00    -0.017 A 
HETATM    7  C14 UNL     1      21.479   3.682  51.183  1.00  0.00     0.114 C 
HETATM    8  C15 UNL     1      20.131   3.565  51.716  1.00  0.00     0.117 C 
HETATM    9  N3  UNL     1      19.046   3.464  52.165  1.00  0.00    -0.190 NA
HETATM   10  C16 UNL     1      23.629   2.979  50.999  1.00  0.00     0.071 A 
HETATM   11  C17 UNL     1      24.614   1.950  51.421  1.00  0.00     0.008 A 
HETATM   12  C18 UNL     1      24.303   0.987  52.256  1.00  0.00     0.033 A 
ENDROOT
BRANCH   7  13
HETATM   13  N2  UNL     1      21.641   4.782  50.295  1.00  0.00    -0.390 N 
HETATM   14  H15 UNL     1      22.700   4.841  50.226  1.00  0.00     0.157 HD
HETATM   15  H16 UNL     1      20.886   5.351  49.853  1.00  0.00     0.157 HD
ENDBRANCH   7  13
BRANCH   1  16
HETATM   16  C8  UNL     1      26.274  -0.701  52.270  1.00  0.00     0.162 C 
BRANCH  16  17
HETATM   17  C7  UNL     1      27.498  -0.227  52.911  1.00  0.00    -0.034 A 
HETATM   18  C2  UNL     1      28.587  -0.988  53.285  1.00  0.00    -0.054 A 
HETATM   19  C1  UNL     1      28.522  -2.437  53.029  1.00  0.00     0.049 C 
HETATM   20  C3  UNL     1      29.727  -0.494  53.884  1.00  0.00     0.007 A 
HETATM   21  C4  UNL     1      29.811   0.855  54.140  1.00  0.00     0.001 A 
HETATM   22  C5  UNL     1      28.774   1.698  53.802  1.00  0.00     0.001 A 
HETATM   23  C6  UNL     1      27.666   1.131  53.206  1.00  0.00     0.009 A 
ENDBRANCH  16  17
ENDBRANCH   1  16
TORSDOF 3
ENDMDL
MODEL 7
REMARK VINA RESULT:      -8.0      1.748      2.794
REMARK  3 active torsions:
REMARK  status: ('A' for Active; 'I' for Inactive)
REMARK    1  A    between atoms: C7_7  and  C8_8 
REMARK    2  A    between atoms: C8_8  and  N1_9 
REMARK    3  A    between atoms: C14_15  and  N2_16 
ROOT
HETATM    1  N1  UNL     1      22.597   1.451  51.741  1.00  0.00    -0.376 N 
HETATM    2  C9  UNL     1      22.523   1.561  50.299  1.00  0.00     0.128 C 
HETATM    3  C10 UNL     1      21.044   1.726  50.054  1.00  0.00     0.060 C 
HETATM    4  C11 UNL     1      20.451   0.915  51.146  1.00  0.00    -0.030 A 
HETATM    5  C12 UNL     1      19.240   0.388  51.242  1.00  0.00     0.020 A 
HETATM    6  C13 UNL     1      18.961  -0.368  52.458  1.00  0.00    -0.017 A 
HETATM    7  C14 UNL     1      17.821  -0.957  52.756  1.00  0.00     0.114 C 
HETATM    8  C15 UNL     1      16.788  -0.806  51.744  1.00  0.00     0.117 C 
HETATM    9  N3  UNL     1      15.965  -0.684  50.909  1.00  0.00    -0.190 NA
HETATM   10  C16 UNL     1      19.912  -0.587  53.556  1.00  0.00     0.071 A 
HETATM   11  C17 UNL     1      21.216   0.076  53.295  1.00  0.00     0.008 A 
HETATM   12  C18 UNL     1      21.448   0.750  52.194  1.00  0.00     0.033 A 
ENDROOT
BRANCH   7  13
HETATM   13  N2  UNL     1      17.400  -1.718  53.882  1.00  0.00    -0.390 N 
HETATM   14  H15 UNL     1      18.327  -2.094  54.240  1.00  0.00     0.157 HD
HETATM   15  H16 UNL     1      16.423  -1.844  54.227  1.00  0.00     0.157 HD
ENDBRANCH   7  13
BRANCH   1  16
HETATM   16  C8  UNL     1      23.700   2.002  52.504  1.00  0.00     0.162 C 
BRANCH  16  17
HETATM   17  C7  UNL     1      24.869   1.127  52.561  1.00  0.00    -0.034 A 
HETATM   18  C2  UNL     1      26.062   1.292  51.889  1.00  0.00    -0.054 A 
HETATM   19  C1  UNL     1      26.187   2.465  51.006  1.00  0.00     0.049 C 
HETATM   20  C3  UNL     1      27.144   0.441  51.978  1.00  0.00     0.007 A 
HETATM   21  C4  UNL     1      27.052  -0.665  52.791  1.00  0.00     0.001 A 
HETATM   22  C5  UNL     1      25.900  -0.916  53.505  1.00  0.00     0.001 A 
HETATM   23  C6  UNL     1      24.861  -0.020  53.364  1.00  0.00     0.009 A 
ENDBRANCH  16  17
ENDBRANCH   1  16
TORSDOF 3
ENDMDL
MODEL 8
REMARK VINA RESULT:      -7.8      2.443      6.997
REMARK  3 active torsions:
REMARK  status: ('A' for Active; 'I' for Inactive)
REMARK    1  A    between atoms: C7_7  and  C8_8 
REMARK    2  A    between atoms: C8_8  and  N1_9 
REMARK    3  A    between atoms: C14_15  and  N2_16 
ROOT
HETATM    1  N1  UNL     1      23.999   1.705  52.940  1.00  0.00    -0.376 N 
HETATM    2  C9  UNL     1      24.563   2.887  53.558  1.00  0.00     0.128 C 
HETATM    3  C10 UNL     1      26.017   2.805  53.165  1.00  0.00     0.060 C 
HETATM    4  C11 UNL     1      26.253   1.341  53.131  1.00  0.00    -0.030 A 
HETATM    5  C12 UNL     1      27.391   0.669  53.206  1.00  0.00     0.020 A 
HETATM    6  C13 UNL     1      27.286  -0.785  53.144  1.00  0.00    -0.017 A 
HETATM    7  C14 UNL     1      28.293  -1.635  53.188  1.00  0.00     0.114 C 
HETATM    8  C15 UNL     1      29.599  -1.007  53.309  1.00  0.00     0.117 C 
HETATM    9  N3  UNL     1      30.650  -0.484  53.418  1.00  0.00    -0.190 NA
HETATM   10  C16 UNL     1      26.033  -1.539  53.016  1.00  0.00     0.071 A 
HETATM   11  C17 UNL     1      24.854  -0.637  52.935  1.00  0.00     0.008 A 
HETATM   12  C18 UNL     1      24.969   0.669  52.994  1.00  0.00     0.033 A 
ENDROOT
BRANCH   7  13
HETATM   13  N2  UNL     1      28.352  -3.055  53.139  1.00  0.00    -0.390 N 
HETATM   14  H15 UNL     1      28.776  -3.214  52.178  1.00  0.00     0.157 HD
HETATM   15  H16 UNL     1      28.045  -3.724  53.880  1.00  0.00     0.157 HD
ENDBRANCH   7  13
BRANCH   1  16
HETATM   16  C8  UNL     1      22.661   1.685  52.383  1.00  0.00     0.162 C 
BRANCH  16  17
HETATM   17  C7  UNL     1      22.625   1.872  50.934  1.00  0.00    -0.034 A 
HETATM   18  C2  UNL     1      21.760   1.274  50.042  1.00  0.00    -0.054 A 
HETATM   19  C1  UNL     1      20.765   0.335  50.588  1.00  0.00     0.049 C 
HETATM   20  C3  UNL     1      21.760   1.485  48.679  1.00  0.00     0.007 A 
HETATM   21  C4  UNL     1      22.683   2.353  48.142  1.00  0.00     0.001 A 
HETATM   22  C5  UNL     1      23.590   3.000  48.954  1.00  0.00     0.001 A 
HETATM   23  C6  UNL     1      23.529   2.738  50.306  1.00  0.00     0.009 A 
ENDBRANCH  16  17
ENDBRANCH   1  16
TORSDOF 3
ENDMDL
MODEL 9
REMARK VINA RESULT:      -7.8      4.399      7.279
REMARK  3 active torsions:
REMARK  status: ('A' for Active; 'I' for Inactive)
REMARK    1  A    between atoms: C7_7  and  C8_8 
REMARK    2  A    between atoms: C8_8  and  N1_9 
REMARK    3  A    between atoms: C14_15  and  N2_16 
ROOT
HETATM    1  N1  UNL     1      24.233   3.303  51.175  1.00  0.00    -0.376 N 
HETATM    2  C9  UNL     1      23.678   4.209  52.159  1.00  0.00     0.128 C 
HETATM    3  C10 UNL     1      23.652   5.524  51.421  1.00  0.00     0.060 C 
HETATM    4  C11 UNL     1      24.845   5.419  50.546  1.00  0.00    -0.030 A 
HETATM    5  C12 UNL     1      25.539   6.375  49.948  1.00  0.00     0.020 A 
HETATM    6  C13 UNL     1      26.676   5.940  49.144  1.00  0.00    -0.017 A 
HETATM    7  C14 UNL     1      27.484   6.725  48.460  1.00  0.00     0.114 C 
HETATM    8  C15 UNL     1      27.163   8.140  48.554  1.00  0.00     0.117 C 
HETATM    9  N3  UNL     1      26.896   9.284  48.649  1.00  0.00    -0.190 NA
HETATM   10  C16 UNL     1      27.101   4.546  48.963  1.00  0.00     0.071 A 
HETATM   11  C17 UNL     1      26.213   3.601  49.690  1.00  0.00     0.008 A 
HETATM   12  C18 UNL     1      25.196   4.013  50.409  1.00  0.00     0.033 A 
ENDROOT
BRANCH   7  13
HETATM   13  N2  UNL     1      28.617   6.457  47.642  1.00  0.00    -0.390 N 
HETATM   14  H15 UNL     1      29.411   6.578  48.338  1.00  0.00     0.157 HD
HETATM   15  H16 UNL     1      28.617   6.210  46.628  1.00  0.00     0.157 HD
ENDBRANCH   7  13
BRANCH   1  16
HETATM   16  C8  UNL     1      23.807   1.922  51.066  1.00  0.00     0.162 C 
BRANCH  16  17
HETATM   17  C7  UNL     1      24.444   1.034  52.036  1.00  0.00    -0.034 A 
HETATM   18  C2  UNL     1      23.834   0.379  53.086  1.00  0.00    -0.054 A 
HETATM   19  C1  UNL     1      22.389   0.594  53.273  1.00  0.00     0.049 C 
HETATM   20  C3  UNL     1      24.477  -0.457  53.977  1.00  0.00     0.007 A 
HETATM   21  C4  UNL     1      25.828  -0.670  53.829  1.00  0.00     0.001 A 
HETATM   22  C5  UNL     1      26.526  -0.060  52.808  1.00  0.00     0.001 A 
HETATM   23  C6  UNL     1      25.815   0.761  51.958  1.00  0.00     0.009 A 
ENDBRANCH  16  17
ENDBRANCH   1  16
TORSDOF 3
ENDMDL
