MODEL 1
REMARK VINA RESULT:      -9.7      0.000      0.000
REMARK  2 active torsions:
REMARK  status: ('A' for Active; 'I' for Inactive)
REMARK    1  A    between atoms: O1_2  and  C2_3 
REMARK    2  A    between atoms: C17_21  and  C18_22 
ROOT
HETATM    1  C2  UNL     1      20.626   0.479  53.380  1.00  0.00     0.195 C 
HETATM    2  C3  UNL     1      19.735   1.352  52.530  1.00  0.00     0.125 C 
HETATM    3  N1  UNL     1      20.234   2.483  52.616  1.00  0.00    -0.274 NA
HETATM    4  C4  UNL     1      19.860   3.668  52.062  1.00  0.00     0.117 C 
HETATM    5  C5  UNL     1      20.903   4.097  51.433  1.00  0.00     0.033 C 
HETATM    6  C6  UNL     1      22.271   3.813  51.092  1.00  0.00    -0.003 C 
HETATM    7  C7  UNL     1      22.832   2.692  51.489  1.00  0.00    -0.002 C 
HETATM    8  C8  UNL     1      22.173   1.678  52.256  1.00  0.00     0.057 C 
HETATM    9  C9  UNL     1      22.020   0.543  52.926  1.00  0.00     0.012 C 
HETATM   10  C10 UNL     1      22.923  -0.532  53.482  1.00  0.00     0.177 C 
HETATM   11  O2  UNL     1      22.268  -1.476  53.984  1.00  0.00    -0.288 OA
HETATM   12  C11 UNL     1      24.377  -0.625  53.510  1.00  0.00     0.051 C 
HETATM   13  C12 UNL     1      25.633  -0.150  53.336  1.00  0.00    -0.018 C 
HETATM   14  C13 UNL     1      25.878   1.210  52.875  1.00  0.00     0.005 C 
HETATM   15  C14 UNL     1      26.911   1.800  53.914  1.00  0.00     0.014 C 
HETATM   16  C15 UNL     1      26.493   1.352  51.527  1.00  0.00     0.028 C 
HETATM   17  C16 UNL     1      26.543   2.860  51.246  1.00  0.00     0.120 C 
HETATM   18  N2  UNL     1      26.683   3.093  49.836  1.00  0.00    -0.390 N 
HETATM   19  C17 UNL     1      26.467   4.388  49.267  1.00  0.00     0.025 C 
HETATM   20  C20 UNL     1      25.326   5.127  49.312  1.00  0.00     0.015 C 
HETATM   21  C21 UNL     1      24.251   4.412  50.066  1.00  0.00     0.088 C 
HETATM   22  C22 UNL     1      22.974   4.854  50.295  1.00  0.00     0.112 C 
HETATM   23  F1  UNL     1      22.126   5.950  50.029  1.00  0.00    -0.209 F 
HETATM   24  H20 UNL     1      26.951   2.308  49.197  1.00  0.00     0.159 HD
ENDROOT
BRANCH  19  25
HETATM   25  C18 UNL     1      27.688   4.808  48.609  1.00  0.00     0.040 C 
HETATM   26  C19 UNL     1      28.425   5.840  48.251  1.00  0.00     0.086 C 
HETATM   27 CL1  UNL     1      29.818   6.572  47.511  1.00  0.00    -0.097 Cl
ENDBRANCH  19  25
BRANCH   1  28
HETATM   28  O1  UNL     1      20.163  -0.827  53.370  1.00  0.00    -0.381 OA
HETATM   29  C1  UNL     1      18.788  -0.829  53.108  1.00  0.00     0.202 C 
ENDBRANCH   1  28
TORSDOF 2
ENDMDL
MODEL 2
REMARK VINA RESULT:      -9.4      4.505      7.596
REMARK  2 active torsions:
REMARK  status: ('A' for Active; 'I' for Inactive)
REMARK    1  A    between atoms: O1_2  and  C2_3 
REMARK    2  A    between atoms: C17_21  and  C18_22 
ROOT
HETATM    1  C2  UNL     1      26.967   0.725  53.741  1.00  0.00     0.195 C 
HETATM    2  C3  UNL     1      26.618  -0.611  54.350  1.00  0.00     0.125 C 
HETATM    3  N1  UNL     1      25.529  -0.424  54.910  1.00  0.00    -0.274 NA
HETATM    4  C4  UNL     1      24.735  -1.267  55.622  1.00  0.00     0.117 C 
HETATM    5  C5  UNL     1      23.577  -1.210  55.052  1.00  0.00     0.033 C 
HETATM    6  C6  UNL     1      22.821  -0.622  53.980  1.00  0.00    -0.003 C 
HETATM    7  C7  UNL     1      23.404   0.200  53.134  1.00  0.00    -0.002 C 
HETATM    8  C8  UNL     1      24.786   0.571  53.180  1.00  0.00     0.057 C 
HETATM    9  C9  UNL     1      25.910   1.186  52.833  1.00  0.00     0.012 C 
HETATM   10  C10 UNL     1      26.299   2.329  51.927  1.00  0.00     0.177 C 
HETATM   11  O2  UNL     1      27.543   2.482  51.880  1.00  0.00    -0.288 OA
HETATM   12  C11 UNL     1      25.473   3.230  51.133  1.00  0.00     0.051 C 
HETATM   13  C12 UNL     1      24.299   3.765  50.722  1.00  0.00    -0.018 C 
HETATM   14  C13 UNL     1      23.027   3.335  51.284  1.00  0.00     0.005 C 
HETATM   15  C14 UNL     1      22.304   4.677  51.699  1.00  0.00     0.014 C 
HETATM   16  C15 UNL     1      22.105   2.615  50.363  1.00  0.00     0.028 C 
HETATM   17  C16 UNL     1      20.905   2.189  51.219  1.00  0.00     0.120 C 
HETATM   18  N2  UNL     1      20.193   1.123  50.571  1.00  0.00    -0.390 N 
HETATM   19  C17 UNL     1      19.217   0.343  51.269  1.00  0.00     0.025 C 
HETATM   20  C20 UNL     1      19.410  -0.415  52.382  1.00  0.00     0.015 C 
HETATM   21  C21 UNL     1      20.833  -0.347  52.838  1.00  0.00     0.088 C 
HETATM   22  C22 UNL     1      21.383  -0.995  53.914  1.00  0.00     0.112 C 
HETATM   23  F1  UNL     1      21.038  -1.881  54.958  1.00  0.00    -0.209 F 
HETATM   24  H20 UNL     1      20.380   0.900  49.565  1.00  0.00     0.159 HD
ENDROOT
BRANCH  19  25
HETATM   25  C18 UNL     1      17.947   0.485  50.586  1.00  0.00     0.040 C 
HETATM   26  C19 UNL     1      17.004  -0.142  49.913  1.00  0.00     0.086 C 
HETATM   27 CL1  UNL     1      15.497  -0.211  49.048  1.00  0.00    -0.097 Cl
ENDBRANCH  19  25
BRANCH   1  28
HETATM   28  O1  UNL     1      28.183   0.645  53.082  1.00  0.00    -0.381 OA
HETATM   29  C1  UNL     1      29.122   0.026  53.916  1.00  0.00     0.202 C 
ENDBRANCH   1  28
TORSDOF 2
ENDMDL
MODEL 3
REMARK VINA RESULT:      -9.1      3.650      6.694
REMARK  2 active torsions:
REMARK  status: ('A' for Active; 'I' for Inactive)
REMARK    1  A    between atoms: O1_2  and  C2_3 
REMARK    2  A    between atoms: C17_21  and  C18_22 
ROOT
HETATM    1  C2  UNL     1      27.341   0.907  53.546  1.00  0.00     0.195 C 
HETATM    2  C3  UNL     1      27.617   2.151  52.737  1.00  0.00     0.125 C 
HETATM    3  N1  UNL     1      26.928   2.018  51.715  1.00  0.00    -0.274 NA
HETATM    4  C4  UNL     1      26.775   2.825  50.631  1.00  0.00     0.117 C 
HETATM    5  C5  UNL     1      25.503   3.025  50.531  1.00  0.00     0.033 C 
HETATM    6  C6  UNL     1      24.218   2.741  51.108  1.00  0.00    -0.003 C 
HETATM    7  C7  UNL     1      24.130   2.009  52.197  1.00  0.00    -0.002 C 
HETATM    8  C8  UNL     1      25.249   1.451  52.896  1.00  0.00     0.057 C 
HETATM    9  C9  UNL     1      25.906   0.760  53.819  1.00  0.00     0.012 C 
HETATM   10  C10 UNL     1      25.559  -0.249  54.887  1.00  0.00     0.177 C 
HETATM   11  O2  UNL     1      26.560  -0.559  55.576  1.00  0.00    -0.288 OA
HETATM   12  C11 UNL     1      24.286  -0.878  55.217  1.00  0.00     0.051 C 
HETATM   13  C12 UNL     1      22.980  -1.169  55.011  1.00  0.00    -0.018 C 
HETATM   14  C13 UNL     1      22.263  -0.675  53.843  1.00  0.00     0.005 C 
HETATM   15  C14 UNL     1      21.577  -1.958  53.228  1.00  0.00     0.014 C 
HETATM   16  C15 UNL     1      21.180   0.313  54.100  1.00  0.00     0.028 C 
HETATM   17  C16 UNL     1      20.668   0.742  52.718  1.00  0.00     0.120 C 
HETATM   18  N2  UNL     1      19.966   1.991  52.820  1.00  0.00    -0.390 N 
HETATM   19  C17 UNL     1      19.639   2.762  51.660  1.00  0.00     0.025 C 
HETATM   20  C20 UNL     1      20.501   3.280  50.745  1.00  0.00     0.015 C 
HETATM   21  C21 UNL     1      21.917   2.942  51.089  1.00  0.00     0.088 C 
HETATM   22  C22 UNL     1      23.042   3.311  50.398  1.00  0.00     0.112 C 
HETATM   23  F1  UNL     1      23.441   4.040  49.256  1.00  0.00    -0.209 F 
HETATM   24  H20 UNL     1      19.679   2.358  53.758  1.00  0.00     0.159 HD
ENDROOT
BRANCH  19  25
HETATM   25  C18 UNL     1      18.199   2.915  51.605  1.00  0.00     0.040 C 
HETATM   26  C19 UNL     1      17.204   3.775  51.521  1.00  0.00     0.086 C 
HETATM   27 CL1  UNL     1      15.519   4.199  51.444  1.00  0.00    -0.097 Cl
ENDBRANCH  19  25
BRANCH   1  28
HETATM   28  O1  UNL     1      28.067   0.935  54.725  1.00  0.00    -0.381 OA
HETATM   29  C1  UNL     1      29.359   1.407  54.463  1.00  0.00     0.202 C 
ENDBRANCH   1  28
TORSDOF 2
ENDMDL
MODEL 4
REMARK VINA RESULT:      -8.8      3.034      5.601
REMARK  2 active torsions:
REMARK  status: ('A' for Active; 'I' for Inactive)
REMARK    1  A    between atoms: O1_2  and  C2_3 
REMARK    2  A    between atoms: C17_21  and  C18_22 
ROOT
HETATM    1  C2  UNL     1      24.888  -1.052  54.271  1.00  0.00     0.195 C 
HETATM    2  C3  UNL     1      26.137  -0.276  53.934  1.00  0.00     0.125 C 
HETATM    3  N1  UNL     1      26.016   0.004  52.733  1.00  0.00    -0.274 NA
HETATM    4  C4  UNL     1      26.833   0.690  51.890  1.00  0.00     0.117 C 
HETATM    5  C5  UNL     1      26.100   1.629  51.390  1.00  0.00     0.033 C 
HETATM    6  C6  UNL     1      24.790   2.221  51.383  1.00  0.00    -0.003 C 
HETATM    7  C7  UNL     1      23.845   1.742  52.162  1.00  0.00    -0.002 C 
HETATM    8  C8  UNL     1      24.011   0.641  53.062  1.00  0.00     0.057 C 
HETATM    9  C9  UNL     1      23.682  -0.272  53.968  1.00  0.00     0.012 C 
HETATM   10  C10 UNL     1      22.405  -0.809  54.569  1.00  0.00     0.177 C 
HETATM   11  O2  UNL     1      22.634  -1.643  55.477  1.00  0.00    -0.288 OA
HETATM   12  C11 UNL     1      21.013  -0.505  54.262  1.00  0.00     0.051 C 
HETATM   13  C12 UNL     1      20.020   0.064  53.538  1.00  0.00    -0.018 C 
HETATM   14  C13 UNL     1      20.300   0.849  52.344  1.00  0.00     0.005 C 
HETATM   15  C14 UNL     1      19.350   0.240  51.238  1.00  0.00     0.014 C 
HETATM   16  C15 UNL     1      19.995   2.304  52.420  1.00  0.00     0.028 C 
HETATM   17  C16 UNL     1      20.473   2.903  51.090  1.00  0.00     0.120 C 
HETATM   18  N2  UNL     1      20.651   4.322  51.226  1.00  0.00    -0.390 N 
HETATM   19  C17 UNL     1      21.359   5.084  50.243  1.00  0.00     0.025 C 
HETATM   20  C20 UNL     1      22.651   4.923  49.850  1.00  0.00     0.015 C 
HETATM   21  C21 UNL     1      23.302   3.797  50.588  1.00  0.00     0.088 C 
HETATM   22  C22 UNL     1      24.596   3.367  50.455  1.00  0.00     0.112 C 
HETATM   23  F1  UNL     1      25.781   3.648  49.739  1.00  0.00    -0.209 F 
HETATM   24  H20 UNL     1      20.259   4.824  52.057  1.00  0.00     0.159 HD
ENDROOT
BRANCH  19  25
HETATM   25  C18 UNL     1      20.461   6.090  49.713  1.00  0.00     0.040 C 
HETATM   26  C19 UNL     1      20.165   7.374  49.693  1.00  0.00     0.086 C 
HETATM   27 CL1  UNL     1      19.219   8.742  49.186  1.00  0.00    -0.097 Cl
ENDBRANCH  19  25
BRANCH   1  28
HETATM   28  O1  UNL     1      24.908  -1.431  55.603  1.00  0.00    -0.381 OA
HETATM   29  C1  UNL     1      25.714  -0.544  56.326  1.00  0.00     0.202 C 
ENDBRANCH   1  28
TORSDOF 2
ENDMDL
MODEL 5
REMARK VINA RESULT:      -8.7      3.867      5.994
REMARK  2 active torsions:
REMARK  status: ('A' for Active; 'I' for Inactive)
REMARK    1  A    between atoms: O1_2  and  C2_3 
REMARK    2  A    between atoms: C17_21  and  C18_22 
ROOT
HETATM    1  C2  UNL     1      16.556  -0.113  51.484  1.00  0.00     0.195 C 
HETATM    2  C3  UNL     1      16.656  -0.753  52.847  1.00  0.00     0.125 C 
HETATM    3  N1  UNL     1      17.694  -1.430  52.798  1.00  0.00    -0.274 NA
HETATM    4  C4  UNL     1      18.287  -2.222  53.730  1.00  0.00     0.117 C 
HETATM    5  C5  UNL     1      19.497  -1.781  53.834  1.00  0.00     0.033 C 
HETATM    6  C6  UNL     1      20.436  -0.799  53.364  1.00  0.00    -0.003 C 
HETATM    7  C7  UNL     1      20.062   0.103  52.483  1.00  0.00    -0.002 C 
HETATM    8  C8  UNL     1      18.745   0.208  51.932  1.00  0.00     0.057 C 
HETATM    9  C9  UNL     1      17.757   0.673  51.178  1.00  0.00     0.012 C 
HETATM   10  C10 UNL     1      17.623   1.615  50.005  1.00  0.00     0.177 C 
HETATM   11  O2  UNL     1      16.423   1.796  49.689  1.00  0.00    -0.288 OA
HETATM   12  C11 UNL     1      18.642   2.312  49.230  1.00  0.00     0.051 C 
HETATM   13  C12 UNL     1      19.914   2.591  48.860  1.00  0.00    -0.018 C 
HETATM   14  C13 UNL     1      21.050   1.895  49.448  1.00  0.00     0.005 C 
HETATM   15  C14 UNL     1      21.895   1.400  48.209  1.00  0.00     0.014 C 
HETATM   16  C15 UNL     1      21.962   2.712  50.295  1.00  0.00     0.028 C 
HETATM   17  C16 UNL     1      22.995   1.731  50.865  1.00  0.00     0.120 C 
HETATM   18  N2  UNL     1      23.625   2.300  52.024  1.00  0.00    -0.390 N 
HETATM   19  C17 UNL     1      24.408   1.501  52.917  1.00  0.00     0.025 C 
HETATM   20  C20 UNL     1      23.997   0.418  53.629  1.00  0.00     0.015 C 
HETATM   21  C21 UNL     1      22.555   0.119  53.368  1.00  0.00     0.088 C 
HETATM   22  C22 UNL     1      21.811  -0.889  53.924  1.00  0.00     0.112 C 
HETATM   23  F1  UNL     1      21.920  -1.962  54.835  1.00  0.00    -0.209 F 
HETATM   24  H20 UNL     1      23.520   3.320  52.232  1.00  0.00     0.159 HD
ENDROOT
BRANCH  19  25
HETATM   25  C18 UNL     1      25.752   2.041  52.952  1.00  0.00     0.040 C 
HETATM   26  C19 UNL     1      26.962   1.900  53.455  1.00  0.00     0.086 C 
HETATM   27 CL1  UNL     1      28.626   2.366  53.653  1.00  0.00    -0.097 Cl
ENDBRANCH  19  25
BRANCH   1  28
HETATM   28  O1  UNL     1      15.418   0.674  51.410  1.00  0.00    -0.381 OA
HETATM   29  C1  UNL     1      14.822   0.746  52.675  1.00  0.00     0.202 C 
ENDBRANCH   1  28
TORSDOF 2
ENDMDL
MODEL 6
REMARK VINA RESULT:      -8.7      3.937      6.472
REMARK  2 active torsions:
REMARK  status: ('A' for Active; 'I' for Inactive)
REMARK    1  A    between atoms: O1_2  and  C2_3 
REMARK    2  A    between atoms: C17_21  and  C18_22 
ROOT
HETATM    1  C2  UNL     1      26.157   0.635  53.141  1.00  0.00     0.195 C 
HETATM    2  C3  UNL     1      25.342  -0.593  53.465  1.00  0.00     0.125 C 
HETATM    3  N1  UNL     1      24.216  -0.156  53.745  1.00  0.00    -0.274 NA
HETATM    4  C4  UNL     1      23.076  -0.797  54.115  1.00  0.00     0.117 C 
HETATM    5  C5  UNL     1      22.174  -0.404  53.277  1.00  0.00     0.033 C 
HETATM    6  C6  UNL     1      21.915   0.422  52.129  1.00  0.00    -0.003 C 
HETATM    7  C7  UNL     1      22.891   1.106  51.574  1.00  0.00    -0.002 C 
HETATM    8  C8  UNL     1      24.251   1.095  52.021  1.00  0.00     0.057 C 
HETATM    9  C9  UNL     1      25.540   1.409  52.056  1.00  0.00     0.012 C 
HETATM   10  C10 UNL     1      26.431   2.456  51.433  1.00  0.00     0.177 C 
HETATM   11  O2  UNL     1      27.636   2.277  51.729  1.00  0.00    -0.288 OA
HETATM   12  C11 UNL     1      26.103   3.587  50.573  1.00  0.00     0.051 C 
HETATM   13  C12 UNL     1      25.256   4.436  49.944  1.00  0.00    -0.018 C 
HETATM   14  C13 UNL     1      23.812   4.327  50.100  1.00  0.00     0.005 C 
HETATM   15  C14 UNL     1      23.344   5.787  50.481  1.00  0.00     0.014 C 
HETATM   16  C15 UNL     1      23.043   3.929  48.889  1.00  0.00     0.028 C 
HETATM   17  C16 UNL     1      21.585   3.788  49.346  1.00  0.00     0.120 C 
HETATM   18  N2  UNL     1      20.851   2.987  48.407  1.00  0.00    -0.390 N 
HETATM   19  C17 UNL     1      19.561   2.456  48.725  1.00  0.00     0.025 C 
HETATM   20  C20 UNL     1      19.246   1.614  49.745  1.00  0.00     0.015 C 
HETATM   21  C21 UNL     1      20.455   1.277  50.557  1.00  0.00     0.088 C 
HETATM   22  C22 UNL     1      20.508   0.448  51.648  1.00  0.00     0.112 C 
HETATM   23  F1  UNL     1      19.682  -0.372  52.447  1.00  0.00    -0.209 F 
HETATM   24  H20 UNL     1      21.255   2.780  47.463  1.00  0.00     0.159 HD
ENDROOT
BRANCH  19  25
HETATM   25  C18 UNL     1      18.607   2.967  47.761  1.00  0.00     0.040 C 
HETATM   26  C19 UNL     1      18.456   3.665  46.654  1.00  0.00     0.086 C 
HETATM   27 CL1  UNL     1      17.504   4.376  45.384  1.00  0.00    -0.097 Cl
ENDBRANCH  19  25
BRANCH   1  28
HETATM   28  O1  UNL     1      27.453   0.272  52.813  1.00  0.00    -0.381 OA
HETATM   29  C1  UNL     1      28.044  -0.372  53.906  1.00  0.00     0.202 C 
ENDBRANCH   1  28
TORSDOF 2
ENDMDL
MODEL 7
REMARK VINA RESULT:      -8.6      4.654      8.434
REMARK  2 active torsions:
REMARK  status: ('A' for Active; 'I' for Inactive)
REMARK    1  A    between atoms: O1_2  and  C2_3 
REMARK    2  A    between atoms: C17_21  and  C18_22 
ROOT
HETATM    1  C2  UNL     1      25.223   3.434  50.411  1.00  0.00     0.195 C 
HETATM    2  C3  UNL     1      26.108   2.440  51.123  1.00  0.00     0.125 C 
HETATM    3  N1  UNL     1      25.589   2.303  52.240  1.00  0.00    -0.274 NA
HETATM    4  C4  UNL     1      25.948   1.537  53.304  1.00  0.00     0.117 C 
HETATM    5  C5  UNL     1      24.905   0.829  53.584  1.00  0.00     0.033 C 
HETATM    6  C6  UNL     1      23.547   0.537  53.215  1.00  0.00    -0.003 C 
HETATM    7  C7  UNL     1      23.001   1.136  52.179  1.00  0.00    -0.002 C 
HETATM    8  C8  UNL     1      23.669   2.088  51.343  1.00  0.00     0.057 C 
HETATM    9  C9  UNL     1      23.833   2.964  50.360  1.00  0.00     0.012 C 
HETATM   10  C10 UNL     1      22.943   3.708  49.393  1.00  0.00     0.177 C 
HETATM   11  O2  UNL     1      23.608   4.386  48.576  1.00  0.00    -0.288 OA
HETATM   12  C11 UNL     1      21.490   3.741  49.280  1.00  0.00     0.051 C 
HETATM   13  C12 UNL     1      20.228   3.468  49.688  1.00  0.00    -0.018 C 
HETATM   14  C13 UNL     1      19.965   2.754  50.930  1.00  0.00     0.005 C 
HETATM   15  C14 UNL     1      18.910   3.653  51.688  1.00  0.00     0.014 C 
HETATM   16  C15 UNL     1      19.364   1.399  50.800  1.00  0.00     0.028 C 
HETATM   17  C16 UNL     1      19.290   0.835  52.225  1.00  0.00     0.120 C 
HETATM   18  N2  UNL     1      19.163  -0.595  52.181  1.00  0.00    -0.390 N 
HETATM   19  C17 UNL     1      19.364  -1.400  53.348  1.00  0.00     0.025 C 
HETATM   20  C20 UNL     1      20.490  -1.487  54.105  1.00  0.00     0.015 C 
HETATM   21  C21 UNL     1      21.569  -0.601  53.567  1.00  0.00     0.088 C 
HETATM   22  C22 UNL     1      22.835  -0.450  54.070  1.00  0.00     0.112 C 
HETATM   23  F1  UNL     1      23.667  -0.914  55.112  1.00  0.00    -0.209 F 
HETATM   24  H20 UNL     1      18.917  -1.075  51.284  1.00  0.00     0.159 HD
ENDROOT
BRANCH  19  25
HETATM   25  C18 UNL     1      18.143  -2.135  53.611  1.00  0.00     0.040 C 
HETATM   26  C19 UNL     1      17.531  -3.296  53.487  1.00  0.00     0.086 C 
HETATM   27 CL1  UNL     1      16.177  -4.368  53.694  1.00  0.00    -0.097 Cl
ENDBRANCH  19  25
BRANCH   1  28
HETATM   28  O1  UNL     1      25.709   3.677  49.137  1.00  0.00    -0.381 OA
HETATM   29  C1  UNL     1      26.983   4.250  49.228  1.00  0.00     0.202 C 
ENDBRANCH   1  28
TORSDOF 2
ENDMDL
MODEL 8
REMARK VINA RESULT:      -8.4      3.598      5.691
REMARK  2 active torsions:
REMARK  status: ('A' for Active; 'I' for Inactive)
REMARK    1  A    between atoms: O1_2  and  C2_3 
REMARK    2  A    between atoms: C17_21  and  C18_22 
ROOT
HETATM    1  C2  UNL     1      18.396   3.185  50.923  1.00  0.00     0.195 C 
HETATM    2  C3  UNL     1      17.860   2.112  51.839  1.00  0.00     0.125 C 
HETATM    3  N1  UNL     1      18.560   1.118  51.599  1.00  0.00    -0.274 NA
HETATM    4  C4  UNL     1      18.536  -0.138  52.120  1.00  0.00     0.117 C 
HETATM    5  C5  UNL     1      19.736  -0.355  52.546  1.00  0.00     0.033 C 
HETATM    6  C6  UNL     1      21.052   0.204  52.689  1.00  0.00    -0.003 C 
HETATM    7  C7  UNL     1      21.295   1.432  52.288  1.00  0.00    -0.002 C 
HETATM    8  C8  UNL     1      20.323   2.307  51.706  1.00  0.00     0.057 C 
HETATM    9  C9  UNL     1      19.829   3.406  51.148  1.00  0.00     0.012 C 
HETATM   10  C10 UNL     1      20.385   4.669  50.535  1.00  0.00     0.177 C 
HETATM   11  O2  UNL     1      19.475   5.466  50.208  1.00  0.00    -0.288 OA
HETATM   12  C11 UNL     1      21.764   5.072  50.286  1.00  0.00     0.051 C 
HETATM   13  C12 UNL     1      23.102   4.872  50.228  1.00  0.00    -0.018 C 
HETATM   14  C13 UNL     1      23.695   3.582  50.550  1.00  0.00     0.005 C 
HETATM   15  C14 UNL     1      24.638   3.263  49.323  1.00  0.00     0.014 C 
HETATM   16  C15 UNL     1      24.543   3.528  51.772  1.00  0.00     0.028 C 
HETATM   17  C16 UNL     1      24.949   2.057  51.935  1.00  0.00     0.120 C 
HETATM   18  N2  UNL     1      25.369   1.811  53.287  1.00  0.00    -0.390 N 
HETATM   19  C17 UNL     1      25.522   0.480  53.791  1.00  0.00     0.025 C 
HETATM   20  C20 UNL     1      24.567  -0.485  53.873  1.00  0.00     0.015 C 
HETATM   21  C21 UNL     1      23.257   0.009  53.348  1.00  0.00     0.088 C 
HETATM   22  C22 UNL     1      22.079  -0.689  53.291  1.00  0.00     0.112 C 
HETATM   23  F1  UNL     1      21.531  -1.951  53.610  1.00  0.00    -0.209 F 
HETATM   24  H20 UNL     1      25.572   2.612  53.929  1.00  0.00     0.159 HD
ENDROOT
BRANCH  19  25
HETATM   25  C18 UNL     1      26.896   0.310  54.219  1.00  0.00     0.040 C 
HETATM   26  C19 UNL     1      28.073  -0.193  53.904  1.00  0.00     0.086 C 
HETATM   27 CL1  UNL     1      29.754  -0.518  54.208  1.00  0.00    -0.097 Cl
ENDBRANCH  19  25
BRANCH   1  28
HETATM   28  O1  UNL     1      17.682   4.359  51.097  1.00  0.00    -0.381 OA
HETATM   29  C1  UNL     1      16.428   4.063  51.644  1.00  0.00     0.202 C 
ENDBRANCH   1  28
TORSDOF 2
ENDMDL
MODEL 9
REMARK VINA RESULT:      -8.4      3.224      4.978
REMARK  2 active torsions:
REMARK  status: ('A' for Active; 'I' for Inactive)
REMARK    1  A    between atoms: O1_2  and  C2_3 
REMARK    2  A    between atoms: C17_21  and  C18_22 
ROOT
HETATM    1  C2  UNL     1      18.924   3.123  50.175  1.00  0.00     0.195 C 
HETATM    2  C3  UNL     1      19.797   3.985  49.296  1.00  0.00     0.125 C 
HETATM    3  N1  UNL     1      20.684   4.405  50.053  1.00  0.00    -0.274 NA
HETATM    4  C4  UNL     1      21.745   5.223  49.818  1.00  0.00     0.117 C 
HETATM    5  C5  UNL     1      22.780   4.567  50.226  1.00  0.00     0.033 C 
HETATM    6  C6  UNL     1      23.238   3.337  50.810  1.00  0.00    -0.003 C 
HETATM    7  C7  UNL     1      22.382   2.377  51.084  1.00  0.00    -0.002 C 
HETATM    8  C8  UNL     1      20.974   2.445  50.834  1.00  0.00     0.057 C 
HETATM    9  C9  UNL     1      19.705   2.057  50.814  1.00  0.00     0.012 C 
HETATM   10  C10 UNL     1      18.886   0.952  51.437  1.00  0.00     0.177 C 
HETATM   11  O2  UNL     1      17.700   0.968  51.033  1.00  0.00    -0.288 OA
HETATM   12  C11 UNL     1      19.265  -0.084  52.390  1.00  0.00     0.051 C 
HETATM   13  C12 UNL     1      20.106  -0.692  53.260  1.00  0.00    -0.018 C 
HETATM   14  C13 UNL     1      21.424  -0.148  53.555  1.00  0.00     0.005 C 
HETATM   15  C14 UNL     1      21.488  -0.098  55.132  1.00  0.00     0.014 C 
HETATM   16  C15 UNL     1      22.590  -0.953  53.101  1.00  0.00     0.028 C 
HETATM   17  C16 UNL     1      23.833  -0.118  53.437  1.00  0.00     0.120 C 
HETATM   18  N2  UNL     1      24.952  -0.566  52.655  1.00  0.00    -0.390 N 
HETATM   19  C17 UNL     1      26.149   0.211  52.550  1.00  0.00     0.025 C 
HETATM   20  C20 UNL     1      26.270   1.476  52.065  1.00  0.00     0.015 C 
HETATM   21  C21 UNL     1      24.945   2.013  51.627  1.00  0.00     0.088 C 
HETATM   22  C22 UNL     1      24.699   3.245  51.079  1.00  0.00     0.112 C 
HETATM   23  F1  UNL     1      25.362   4.430  50.694  1.00  0.00    -0.209 F 
HETATM   24  H20 UNL     1      24.906  -1.480  52.146  1.00  0.00     0.159 HD
ENDROOT
BRANCH  19  25
HETATM   25  C18 UNL     1      27.253  -0.581  53.054  1.00  0.00     0.040 C 
HETATM   26  C19 UNL     1      28.549  -0.604  53.291  1.00  0.00     0.086 C 
HETATM   27 CL1  UNL     1      30.014  -1.362  53.843  1.00  0.00    -0.097 Cl
ENDBRANCH  19  25
BRANCH   1  28
HETATM   28  O1  UNL     1      17.879   2.594  49.435  1.00  0.00    -0.381 OA
HETATM   29  C1  UNL     1      17.998   3.008  48.103  1.00  0.00     0.202 C 
ENDBRANCH   1  28
TORSDOF 2
ENDMDL
