MODEL 1
REMARK VINA RESULT:      -7.6      0.000      0.000
REMARK  6 active torsions:
REMARK  status: ('A' for Active; 'I' for Inactive)
REMARK    1  A    between atoms: C5_6  and  C6_7 
REMARK    2  A    between atoms: C6_7  and  N1_8 
REMARK    3  A    between atoms: N3_10  and  C7_11 
REMARK    4  A    between atoms: C10_14  and  S2_15 
REMARK    5  A    between atoms: S2_15  and  N4_16 
REMARK    6  A    between atoms: C14_23  and  O3_24 
ROOT
HETATM    1  N1  UNL     1      25.418   6.418  50.370  1.00  0.00    -0.254 N 
HETATM    2  N2  UNL     1      25.904   5.116  50.073  1.00  0.00    -0.139 NA
HETATM    3  N3  UNL     1      24.995   4.173  50.571  1.00  0.00    -0.275 N 
HETATM    4  C13 UNL     1      23.635   4.461  50.173  1.00  0.00     0.298 C 
HETATM    5  N5  UNL     1      23.214   5.665  50.881  1.00  0.00    -0.229 NA
HETATM    6  C14 UNL     1      24.110   6.591  50.954  1.00  0.00     0.255 C 
HETATM    7  H8  UNL     1      26.799   5.003  50.630  1.00  0.00     0.173 HD
ENDROOT
BRANCH   3   8
HETATM    8  C7  UNL     1      25.359   3.059  51.365  1.00  0.00     0.049 A 
HETATM    9  C8  UNL     1      26.415   2.231  51.076  1.00  0.00     0.032 A 
HETATM   10  C9  UNL     1      26.777   1.153  51.847  1.00  0.00     0.027 A 
HETATM   11  C10 UNL     1      26.086   0.835  52.982  1.00  0.00     0.074 A 
HETATM   12  C11 UNL     1      25.010   1.652  53.306  1.00  0.00     0.027 A 
HETATM   13  C12 UNL     1      24.674   2.727  52.509  1.00  0.00     0.032 A 
BRANCH  11  14
HETATM   14  S2  UNL     1      26.529  -0.524  53.967  1.00  0.00     0.239 S 
HETATM   15  O1  UNL     1      25.391  -0.990  54.855  1.00  0.00    -0.206 OA
HETATM   16  O2  UNL     1      27.661  -0.145  54.913  1.00  0.00    -0.206 OA
BRANCH  14  17
HETATM   17  N4  UNL     1      27.074  -1.868  53.041  1.00  0.00    -0.225 NA
HETATM   18  H11 UNL     1      27.814  -1.606  52.333  1.00  0.00     0.136 HD
HETATM   19  H12 UNL     1      27.534  -2.596  53.627  1.00  0.00     0.136 HD
ENDBRANCH  14  17
ENDBRANCH  11  14
ENDBRANCH   3   8
BRANCH   1  20
HETATM   20  C6  UNL     1      26.219   7.595  50.100  1.00  0.00     0.195 C 
BRANCH  20  21
HETATM   21  C5  UNL     1      26.346   7.962  48.724  1.00  0.00     0.008 A 
HETATM   22  C2  UNL     1      27.218   7.635  47.677  1.00  0.00    -0.047 A 
HETATM   23  C1  UNL     1      28.348   6.681  47.917  1.00  0.00     0.049 C 
HETATM   24  C3  UNL     1      27.033   8.198  46.444  1.00  0.00     0.015 A 
HETATM   25  C4  UNL     1      25.950   9.092  46.304  1.00  0.00     0.051 A 
HETATM   26  S1  UNL     1      25.163   9.161  47.917  1.00  0.00    -0.104 SA
ENDBRANCH  20  21
ENDBRANCH   1  20
BRANCH   6  27
HETATM   27  O3  UNL     1      23.829   7.771  51.596  1.00  0.00    -0.330 OA
HETATM   28  H17 UNL     1      24.429   8.561  51.473  1.00  0.00     0.221 HD
ENDBRANCH   6  27
TORSDOF 6
ENDMDL
MODEL 2
REMARK VINA RESULT:      -7.6      5.510      6.704
REMARK  6 active torsions:
REMARK  status: ('A' for Active; 'I' for Inactive)
REMARK    1  A    between atoms: C5_6  and  C6_7 
REMARK    2  A    between atoms: C6_7  and  N1_8 
REMARK    3  A    between atoms: N3_10  and  C7_11 
REMARK    4  A    between atoms: C10_14  and  S2_15 
REMARK    5  A    between atoms: S2_15  and  N4_16 
REMARK    6  A    between atoms: C14_23  and  O3_24 
ROOT
HETATM    1  N1  UNL     1      21.114  -0.098  52.760  1.00  0.00    -0.254 N 
HETATM    2  N2  UNL     1      22.371  -0.511  52.240  1.00  0.00    -0.139 NA
HETATM    3  N3  UNL     1      23.230  -0.788  53.312  1.00  0.00    -0.275 N 
HETATM    4  C13 UNL     1      22.620  -1.658  54.293  1.00  0.00     0.298 C 
HETATM    5  N5  UNL     1      21.566  -0.898  54.960  1.00  0.00    -0.229 NA
HETATM    6  C14 UNL     1      20.859  -0.154  54.179  1.00  0.00     0.255 C 
HETATM    7  H8  UNL     1      22.771   0.331  51.736  1.00  0.00     0.173 HD
ENDROOT
BRANCH   3   8
HETATM    8  C7  UNL     1      24.549  -0.286  53.425  1.00  0.00     0.049 A 
HETATM    9  C8  UNL     1      25.170   0.449  52.444  1.00  0.00     0.032 A 
HETATM   10  C9  UNL     1      26.446   0.945  52.552  1.00  0.00     0.027 A 
HETATM   11  C10 UNL     1      27.193   0.731  53.675  1.00  0.00     0.074 A 
HETATM   12  C11 UNL     1      26.597  -0.009  54.688  1.00  0.00     0.027 A 
HETATM   13  C12 UNL     1      25.313  -0.493  54.548  1.00  0.00     0.032 A 
BRANCH  11  14
HETATM   14  S2  UNL     1      28.808   1.349  53.826  1.00  0.00     0.239 S 
HETATM   15  O1  UNL     1      29.851   0.371  53.320  1.00  0.00    -0.206 OA
HETATM   16  O2  UNL     1      29.147   1.590  55.292  1.00  0.00    -0.206 OA
BRANCH  14  17
HETATM   17  N4  UNL     1      29.028   2.845  53.006  1.00  0.00    -0.225 NA
HETATM   18  H11 UNL     1      29.888   2.855  52.392  1.00  0.00     0.136 HD
HETATM   19  H12 UNL     1      28.248   3.059  52.349  1.00  0.00     0.136 HD
ENDBRANCH  14  17
ENDBRANCH  11  14
ENDBRANCH   3   8
BRANCH   1  20
HETATM   20  C6  UNL     1      20.067   0.389  51.885  1.00  0.00     0.195 C 
BRANCH  20  21
HETATM   21  C5  UNL     1      20.330   1.629  51.224  1.00  0.00     0.008 A 
HETATM   22  C2  UNL     1      20.928   2.012  50.016  1.00  0.00    -0.047 A 
HETATM   23  C1  UNL     1      21.479   0.970  49.092  1.00  0.00     0.049 C 
HETATM   24  C3  UNL     1      21.011   3.340  49.696  1.00  0.00     0.015 A 
HETATM   25  C4  UNL     1      20.476   4.258  50.624  1.00  0.00     0.051 A 
HETATM   26  S1  UNL     1      19.840   3.265  51.980  1.00  0.00    -0.104 SA
ENDBRANCH  20  21
ENDBRANCH   1  20
BRANCH   6  27
HETATM   27  O3  UNL     1      19.838   0.607  54.692  1.00  0.00    -0.330 OA
HETATM   28  H17 UNL     1      20.026   1.270  55.417  1.00  0.00     0.221 HD
ENDBRANCH   6  27
TORSDOF 6
ENDMDL
MODEL 3
REMARK VINA RESULT:      -7.6      1.588      2.092
REMARK  6 active torsions:
REMARK  status: ('A' for Active; 'I' for Inactive)
REMARK    1  A    between atoms: C5_6  and  C6_7 
REMARK    2  A    between atoms: C6_7  and  N1_8 
REMARK    3  A    between atoms: N3_10  and  C7_11 
REMARK    4  A    between atoms: C10_14  and  S2_15 
REMARK    5  A    between atoms: S2_15  and  N4_16 
REMARK    6  A    between atoms: C14_23  and  O3_24 
ROOT
HETATM    1  N1  UNL     1      24.094   5.269  50.218  1.00  0.00    -0.254 N 
HETATM    2  N2  UNL     1      24.277   3.860  50.218  1.00  0.00    -0.139 NA
HETATM    3  N3  UNL     1      24.271   3.406  51.544  1.00  0.00    -0.275 N 
HETATM    4  C13 UNL     1      23.137   3.909  52.289  1.00  0.00     0.298 C 
HETATM    5  N5  UNL     1      23.337   5.343  52.478  1.00  0.00    -0.229 NA
HETATM    6  C14 UNL     1      23.803   5.965  51.449  1.00  0.00     0.255 C 
HETATM    7  H8  UNL     1      25.254   3.691  49.842  1.00  0.00     0.173 HD
ENDROOT
BRANCH   3   8
HETATM    8  C7  UNL     1      25.250   2.547  52.096  1.00  0.00     0.049 A 
HETATM    9  C8  UNL     1      25.424   2.359  53.446  1.00  0.00     0.032 A 
HETATM   10  C9  UNL     1      26.368   1.520  53.987  1.00  0.00     0.027 A 
HETATM   11  C10 UNL     1      27.212   0.802  53.189  1.00  0.00     0.074 A 
HETATM   12  C11 UNL     1      27.065   0.967  51.818  1.00  0.00     0.027 A 
HETATM   13  C12 UNL     1      26.107   1.818  51.307  1.00  0.00     0.032 A 
BRANCH  11  14
HETATM   14  S2  UNL     1      28.412  -0.261  53.857  1.00  0.00     0.239 S 
HETATM   15  O1  UNL     1      28.246  -1.691  53.380  1.00  0.00    -0.206 OA
HETATM   16  O2  UNL     1      28.285  -0.314  55.374  1.00  0.00    -0.206 OA
BRANCH  14  17
HETATM   17  N4  UNL     1      30.019   0.243  53.503  1.00  0.00    -0.225 NA
HETATM   18  H11 UNL     1      30.692  -0.566  53.408  1.00  0.00     0.136 HD
HETATM   19  H12 UNL     1      30.090   0.737  52.588  1.00  0.00     0.136 HD
ENDBRANCH  14  17
ENDBRANCH  11  14
ENDBRANCH   3   8
BRANCH   1  20
HETATM   20  C6  UNL     1      24.198   6.037  48.994  1.00  0.00     0.195 C 
BRANCH  20  21
HETATM   21  C5  UNL     1      25.485   6.587  48.708  1.00  0.00     0.008 A 
HETATM   22  C2  UNL     1      26.793   6.088  48.633  1.00  0.00    -0.047 A 
HETATM   23  C1  UNL     1      27.055   4.638  48.904  1.00  0.00     0.049 C 
HETATM   24  C3  UNL     1      27.821   6.935  48.321  1.00  0.00     0.015 A 
HETATM   25  C4  UNL     1      27.491   8.286  48.088  1.00  0.00     0.051 A 
HETATM   26  S1  UNL     1      25.711   8.397  48.306  1.00  0.00    -0.104 SA
ENDBRANCH  20  21
ENDBRANCH   1  20
BRANCH   6  27
HETATM   27  O3  UNL     1      24.031   7.317  51.507  1.00  0.00    -0.330 OA
HETATM   28  H17 UNL     1      23.530   7.934  50.900  1.00  0.00     0.221 HD
ENDBRANCH   6  27
TORSDOF 6
ENDMDL
MODEL 4
REMARK VINA RESULT:      -7.4      4.161      5.081
REMARK  6 active torsions:
REMARK  status: ('A' for Active; 'I' for Inactive)
REMARK    1  A    between atoms: C5_6  and  C6_7 
REMARK    2  A    between atoms: C6_7  and  N1_8 
REMARK    3  A    between atoms: N3_10  and  C7_11 
REMARK    4  A    between atoms: C10_14  and  S2_15 
REMARK    5  A    between atoms: S2_15  and  N4_16 
REMARK    6  A    between atoms: C14_23  and  O3_24 
ROOT
HETATM    1  N1  UNL     1      21.064   1.824  51.168  1.00  0.00    -0.254 N 
HETATM    2  N2  UNL     1      22.194   0.983  50.979  1.00  0.00    -0.139 NA
HETATM    3  N3  UNL     1      22.686   0.604  52.235  1.00  0.00    -0.275 N 
HETATM    4  C13 UNL     1      21.644   0.098  53.102  1.00  0.00     0.298 C 
HETATM    5  N5  UNL     1      20.785   1.223  53.459  1.00  0.00    -0.229 NA
HETATM    6  C14 UNL     1      20.528   2.036  52.491  1.00  0.00     0.255 C 
HETATM    7  H8  UNL     1      22.938   1.590  50.529  1.00  0.00     0.173 HD
ENDROOT
BRANCH   3   8
HETATM    8  C7  UNL     1      24.046   0.692  52.617  1.00  0.00     0.049 A 
HETATM    9  C8  UNL     1      24.652  -0.185  53.482  1.00  0.00     0.032 A 
HETATM   10  C9  UNL     1      25.974  -0.109  53.850  1.00  0.00     0.027 A 
HETATM   11  C10 UNL     1      26.785   0.875  53.360  1.00  0.00     0.074 A 
HETATM   12  C11 UNL     1      26.205   1.781  52.482  1.00  0.00     0.027 A 
HETATM   13  C12 UNL     1      24.875   1.675  52.133  1.00  0.00     0.032 A 
BRANCH  11  14
HETATM   14  S2  UNL     1      28.456   0.987  53.816  1.00  0.00     0.239 S 
HETATM   15  O1  UNL     1      29.279  -0.175  53.293  1.00  0.00    -0.206 OA
HETATM   16  O2  UNL     1      28.595   0.939  55.333  1.00  0.00    -0.206 OA
BRANCH  14  17
HETATM   17  N4  UNL     1      29.194   2.450  53.289  1.00  0.00    -0.225 NA
HETATM   18  H11 UNL     1      30.134   2.622  53.739  1.00  0.00     0.136 HD
HETATM   19  H12 UNL     1      29.400   2.447  52.268  1.00  0.00     0.136 HD
ENDBRANCH  14  17
ENDBRANCH  11  14
ENDBRANCH   3   8
BRANCH   1  20
HETATM   20  C6  UNL     1      20.427   2.485  50.047  1.00  0.00     0.195 C 
BRANCH  20  21
HETATM   21  C5  UNL     1      21.203   3.490  49.391  1.00  0.00     0.008 A 
HETATM   22  C2  UNL     1      22.083   3.523  48.301  1.00  0.00    -0.047 A 
HETATM   23  C1  UNL     1      22.383   2.266  47.545  1.00  0.00     0.049 C 
HETATM   24  C3  UNL     1      22.668   4.707  47.942  1.00  0.00     0.015 A 
HETATM   25  C4  UNL     1      22.339   5.844  48.710  1.00  0.00     0.051 A 
HETATM   26  S1  UNL     1      21.191   5.268  49.966  1.00  0.00    -0.104 SA
ENDBRANCH  20  21
ENDBRANCH   1  20
BRANCH   6  27
HETATM   27  O3  UNL     1      19.729   3.132  52.707  1.00  0.00    -0.330 OA
HETATM   28  H17 UNL     1      20.131   3.983  53.046  1.00  0.00     0.221 HD
ENDBRANCH   6  27
TORSDOF 6
ENDMDL
MODEL 5
REMARK VINA RESULT:      -7.3      4.593      7.023
REMARK  6 active torsions:
REMARK  status: ('A' for Active; 'I' for Inactive)
REMARK    1  A    between atoms: C5_6  and  C6_7 
REMARK    2  A    between atoms: C6_7  and  N1_8 
REMARK    3  A    between atoms: N3_10  and  C7_11 
REMARK    4  A    between atoms: C10_14  and  S2_15 
REMARK    5  A    between atoms: S2_15  and  N4_16 
REMARK    6  A    between atoms: C14_23  and  O3_24 
ROOT
HETATM    1  N1  UNL     1      21.378   2.402  50.622  1.00  0.00    -0.254 N 
HETATM    2  N2  UNL     1      22.399   2.832  51.512  1.00  0.00    -0.139 NA
HETATM    3  N3  UNL     1      23.644   2.585  50.919  1.00  0.00    -0.275 N 
HETATM    4  C13 UNL     1      23.715   3.088  49.564  1.00  0.00     0.298 C 
HETATM    5  N5  UNL     1      22.838   2.261  48.742  1.00  0.00    -0.229 NA
HETATM    6  C14 UNL     1      21.714   1.951  49.293  1.00  0.00     0.255 C 
HETATM    7  H8  UNL     1      22.333   2.200  52.360  1.00  0.00     0.173 HD
ENDROOT
BRANCH   3   8
HETATM    8  C7  UNL     1      24.718   1.929  51.566  1.00  0.00     0.049 A 
HETATM    9  C8  UNL     1      26.035   2.285  51.405  1.00  0.00     0.032 A 
HETATM   10  C9  UNL     1      27.081   1.656  52.037  1.00  0.00     0.027 A 
HETATM   11  C10 UNL     1      26.863   0.611  52.889  1.00  0.00     0.074 A 
HETATM   12  C11 UNL     1      25.543   0.224  53.076  1.00  0.00     0.027 A 
HETATM   13  C12 UNL     1      24.516   0.877  52.426  1.00  0.00     0.032 A 
BRANCH  11  14
HETATM   14  S2  UNL     1      28.173  -0.195  53.694  1.00  0.00     0.239 S 
HETATM   15  O1  UNL     1      28.329  -1.635  53.245  1.00  0.00    -0.206 OA
HETATM   16  O2  UNL     1      27.914  -0.257  55.194  1.00  0.00    -0.206 OA
BRANCH  14  17
HETATM   17  N4  UNL     1      29.682   0.604  53.476  1.00  0.00    -0.225 NA
HETATM   18  H11 UNL     1      30.446  -0.044  53.142  1.00  0.00     0.136 HD
HETATM   19  H12 UNL     1      29.640   1.343  52.742  1.00  0.00     0.136 HD
ENDBRANCH  14  17
ENDBRANCH  11  14
ENDBRANCH   3   8
BRANCH   1  20
HETATM   20  C6  UNL     1      19.986   2.402  51.024  1.00  0.00     0.195 C 
BRANCH  20  21
HETATM   21  C5  UNL     1      19.524   1.219  51.679  1.00  0.00     0.008 A 
HETATM   22  C2  UNL     1      18.531   0.261  51.434  1.00  0.00    -0.047 A 
HETATM   23  C1  UNL     1      17.657   0.386  50.224  1.00  0.00     0.049 C 
HETATM   24  C3  UNL     1      18.365  -0.777  52.309  1.00  0.00     0.015 A 
HETATM   25  C4  UNL     1      19.224  -0.817  53.427  1.00  0.00     0.051 A 
HETATM   26  S1  UNL     1      20.293   0.618  53.272  1.00  0.00    -0.104 SA
ENDBRANCH  20  21
ENDBRANCH   1  20
BRANCH   6  27
HETATM   27  O3  UNL     1      20.806   1.176  48.614  1.00  0.00    -0.330 OA
HETATM   28  H17 UNL     1      21.081   0.703  47.777  1.00  0.00     0.221 HD
ENDBRANCH   6  27
TORSDOF 6
ENDMDL
MODEL 6
REMARK VINA RESULT:      -7.2      4.944      8.224
REMARK  6 active torsions:
REMARK  status: ('A' for Active; 'I' for Inactive)
REMARK    1  A    between atoms: C5_6  and  C6_7 
REMARK    2  A    between atoms: C6_7  and  N1_8 
REMARK    3  A    between atoms: N3_10  and  C7_11 
REMARK    4  A    between atoms: C10_14  and  S2_15 
REMARK    5  A    between atoms: S2_15  and  N4_16 
REMARK    6  A    between atoms: C14_23  and  O3_24 
ROOT
HETATM    1  N1  UNL     1      25.170   0.844  53.303  1.00  0.00    -0.254 N 
HETATM    2  N2  UNL     1      24.143   0.287  52.493  1.00  0.00    -0.139 NA
HETATM    3  N3  UNL     1      23.575   1.309  51.721  1.00  0.00    -0.275 N 
HETATM    4  C13 UNL     1      24.577   2.101  51.040  1.00  0.00     0.298 C 
HETATM    5  N5  UNL     1      25.293   2.871  52.052  1.00  0.00    -0.229 NA
HETATM    6  C14 UNL     1      25.561   2.223  53.135  1.00  0.00     0.255 C 
HETATM    7  H8  UNL     1      23.391  -0.046  53.161  1.00  0.00     0.173 HD
ENDROOT
BRANCH   3   8
HETATM    8  C7  UNL     1      22.184   1.542  51.608  1.00  0.00     0.049 A 
HETATM    9  C8  UNL     1      21.301   0.633  51.078  1.00  0.00     0.032 A 
HETATM   10  C9  UNL     1      19.949   0.850  50.973  1.00  0.00     0.027 A 
HETATM   11  C10 UNL     1      19.388   2.019  51.403  1.00  0.00     0.074 A 
HETATM   12  C11 UNL     1      20.252   2.963  51.944  1.00  0.00     0.027 A 
HETATM   13  C12 UNL     1      21.605   2.712  52.035  1.00  0.00     0.032 A 
BRANCH  11  14
HETATM   14  S2  UNL     1      17.681   2.311  51.275  1.00  0.00     0.239 S 
HETATM   15  O1  UNL     1      16.856   1.168  51.835  1.00  0.00    -0.206 OA
HETATM   16  O2  UNL     1      17.275   2.436  49.813  1.00  0.00    -0.206 OA
BRANCH  14  17
HETATM   17  N4  UNL     1      17.194   3.763  52.060  1.00  0.00    -0.225 NA
HETATM   18  H11 UNL     1      16.200   4.040  51.830  1.00  0.00     0.136 HD
HETATM   19  H12 UNL     1      17.196   3.676  53.098  1.00  0.00     0.136 HD
ENDBRANCH  14  17
ENDBRANCH  11  14
ENDBRANCH   3   8
BRANCH   1  20
HETATM   20  C6  UNL     1      25.842   0.049  54.310  1.00  0.00     0.195 C 
BRANCH  20  21
HETATM   21  C5  UNL     1      27.158  -0.398  53.978  1.00  0.00     0.008 A 
HETATM   22  C2  UNL     1      27.700  -1.370  53.126  1.00  0.00    -0.047 A 
HETATM   23  C1  UNL     1      26.792  -2.232  52.305  1.00  0.00     0.049 C 
HETATM   24  C3  UNL     1      29.058  -1.528  53.060  1.00  0.00     0.015 A 
HETATM   25  C4  UNL     1      29.842  -0.681  53.872  1.00  0.00     0.051 A 
HETATM   26  S1  UNL     1      28.677   0.363  54.755  1.00  0.00    -0.104 SA
ENDBRANCH  20  21
ENDBRANCH   1  20
BRANCH   6  27
HETATM   27  O3  UNL     1      26.232   2.843  54.159  1.00  0.00    -0.330 OA
HETATM   28  H17 UNL     1      25.729   3.398  54.822  1.00  0.00     0.221 HD
ENDBRANCH   6  27
TORSDOF 6
ENDMDL
MODEL 7
REMARK VINA RESULT:      -7.1      3.511      4.470
REMARK  6 active torsions:
REMARK  status: ('A' for Active; 'I' for Inactive)
REMARK    1  A    between atoms: C5_6  and  C6_7 
REMARK    2  A    between atoms: C6_7  and  N1_8 
REMARK    3  A    between atoms: N3_10  and  C7_11 
REMARK    4  A    between atoms: C10_14  and  S2_15 
REMARK    5  A    between atoms: S2_15  and  N4_16 
REMARK    6  A    between atoms: C14_23  and  O3_24 
ROOT
HETATM    1  N1  UNL     1      21.745   2.901  50.957  1.00  0.00    -0.254 N 
HETATM    2  N2  UNL     1      22.813   2.055  50.555  1.00  0.00    -0.139 NA
HETATM    3  N3  UNL     1      23.031   1.101  51.558  1.00  0.00    -0.275 N 
HETATM    4  C13 UNL     1      21.807   0.446  51.965  1.00  0.00     0.298 C 
HETATM    5  N5  UNL     1      20.997   1.430  52.677  1.00  0.00    -0.229 NA
HETATM    6  C14 UNL     1      20.995   2.609  52.154  1.00  0.00     0.255 C 
HETATM    7  H8  UNL     1      23.677   2.668  50.524  1.00  0.00     0.173 HD
ENDROOT
BRANCH   3   8
HETATM    8  C7  UNL     1      24.300   0.799  52.108  1.00  0.00     0.049 A 
HETATM    9  C8  UNL     1      25.470   1.381  51.687  1.00  0.00     0.032 A 
HETATM   10  C9  UNL     1      26.703   1.098  52.223  1.00  0.00     0.027 A 
HETATM   11  C10 UNL     1      26.839   0.193  53.237  1.00  0.00     0.074 A 
HETATM   12  C11 UNL     1      25.675  -0.417  53.688  1.00  0.00     0.027 A 
HETATM   13  C12 UNL     1      24.453  -0.109  53.128  1.00  0.00     0.032 A 
BRANCH  11  14
HETATM   14  S2  UNL     1      28.389  -0.178  53.923  1.00  0.00     0.239 S 
HETATM   15  O1  UNL     1      28.872  -1.566  53.545  1.00  0.00    -0.206 OA
HETATM   16  O2  UNL     1      28.309  -0.171  55.444  1.00  0.00    -0.206 OA
BRANCH  14  17
HETATM   17  N4  UNL     1      29.604   0.955  53.477  1.00  0.00    -0.225 NA
HETATM   18  H11 UNL     1      30.200   1.262  54.294  1.00  0.00     0.136 HD
HETATM   19  H12 UNL     1      30.290   0.559  52.799  1.00  0.00     0.136 HD
ENDBRANCH  14  17
ENDBRANCH  11  14
ENDBRANCH   3   8
BRANCH   1  20
HETATM   20  C6  UNL     1      21.386   4.072  50.181  1.00  0.00     0.195 C 
BRANCH  20  21
HETATM   21  C5  UNL     1      22.156   5.249  50.434  1.00  0.00     0.008 A 
HETATM   22  C2  UNL     1      21.943   6.629  50.317  1.00  0.00    -0.047 A 
HETATM   23  C1  UNL     1      20.631   7.141  49.807  1.00  0.00     0.049 C 
HETATM   24  C3  UNL     1      22.942   7.498  50.662  1.00  0.00     0.015 A 
HETATM   25  C4  UNL     1      24.150   6.934  51.125  1.00  0.00     0.051 A 
HETATM   26  S1  UNL     1      23.905   5.155  51.084  1.00  0.00    -0.104 SA
ENDBRANCH  20  21
ENDBRANCH   1  20
BRANCH   6  27
HETATM   27  O3  UNL     1      20.268   3.618  52.736  1.00  0.00    -0.330 OA
HETATM   28  H17 UNL     1      20.309   3.755  53.726  1.00  0.00     0.221 HD
ENDBRANCH   6  27
TORSDOF 6
ENDMDL
MODEL 8
REMARK VINA RESULT:      -7.0      4.899      7.039
REMARK  6 active torsions:
REMARK  status: ('A' for Active; 'I' for Inactive)
REMARK    1  A    between atoms: C5_6  and  C6_7 
REMARK    2  A    between atoms: C6_7  and  N1_8 
REMARK    3  A    between atoms: N3_10  and  C7_11 
REMARK    4  A    between atoms: C10_14  and  S2_15 
REMARK    5  A    between atoms: S2_15  and  N4_16 
REMARK    6  A    between atoms: C14_23  and  O3_24 
ROOT
HETATM    1  N1  UNL     1      31.186   5.865  48.375  1.00  0.00    -0.254 N 
HETATM    2  N2  UNL     1      30.028   5.116  48.033  1.00  0.00    -0.139 NA
HETATM    3  N3  UNL     1      28.934   5.990  47.960  1.00  0.00    -0.275 N 
HETATM    4  C13 UNL     1      29.215   7.152  47.146  1.00  0.00     0.298 C 
HETATM    5  N5  UNL     1      30.187   7.969  47.865  1.00  0.00    -0.229 NA
HETATM    6  C14 UNL     1      31.127   7.305  48.447  1.00  0.00     0.255 C 
HETATM    7  H8  UNL     1      29.847   4.467  48.851  1.00  0.00     0.173 HD
ENDROOT
BRANCH   3   8
HETATM    8  C7  UNL     1      27.691   5.765  48.599  1.00  0.00     0.049 A 
HETATM    9  C8  UNL     1      27.235   4.520  48.958  1.00  0.00     0.032 A 
HETATM   10  C9  UNL     1      26.033   4.297  49.585  1.00  0.00     0.027 A 
HETATM   11  C10 UNL     1      25.199   5.332  49.898  1.00  0.00     0.074 A 
HETATM   12  C11 UNL     1      25.629   6.606  49.550  1.00  0.00     0.027 A 
HETATM   13  C12 UNL     1      26.842   6.795  48.921  1.00  0.00     0.032 A 
BRANCH  11  14
HETATM   14  S2  UNL     1      23.676   5.067  50.688  1.00  0.00     0.239 S 
HETATM   15  O1  UNL     1      23.203   3.631  50.566  1.00  0.00    -0.206 OA
HETATM   16  O2  UNL     1      22.590   5.915  50.040  1.00  0.00    -0.206 OA
BRANCH  14  17
HETATM   17  N4  UNL     1      23.711   5.482  52.358  1.00  0.00    -0.225 NA
HETATM   18  H11 UNL     1      23.314   4.725  52.978  1.00  0.00     0.136 HD
HETATM   19  H12 UNL     1      24.680   5.618  52.715  1.00  0.00     0.136 HD
ENDBRANCH  14  17
ENDBRANCH  11  14
ENDBRANCH   3   8
BRANCH   1  20
HETATM   20  C6  UNL     1      32.446   5.206  48.659  1.00  0.00     0.195 C 
BRANCH  20  21
HETATM   21  C5  UNL     1      33.160   4.708  47.526  1.00  0.00     0.008 A 
HETATM   22  C2  UNL     1      33.533   3.442  47.055  1.00  0.00    -0.047 A 
HETATM   23  C1  UNL     1      33.164   2.218  47.834  1.00  0.00     0.049 C 
HETATM   24  C3  UNL     1      34.240   3.338  45.888  1.00  0.00     0.015 A 
HETATM   25  C4  UNL     1      34.555   4.540  45.220  1.00  0.00     0.051 A 
HETATM   26  S1  UNL     1      33.858   5.854  46.226  1.00  0.00    -0.104 SA
ENDBRANCH  20  21
ENDBRANCH   1  20
BRANCH   6  27
HETATM   27  O3  UNL     1      32.100   7.967  49.155  1.00  0.00    -0.330 OA
HETATM   28  H17 UNL     1      33.061   7.866  48.895  1.00  0.00     0.221 HD
ENDBRANCH   6  27
TORSDOF 6
ENDMDL
MODEL 9
REMARK VINA RESULT:      -7.0      2.917      8.354
REMARK  6 active torsions:
REMARK  status: ('A' for Active; 'I' for Inactive)
REMARK    1  A    between atoms: C5_6  and  C6_7 
REMARK    2  A    between atoms: C6_7  and  N1_8 
REMARK    3  A    between atoms: N3_10  and  C7_11 
REMARK    4  A    between atoms: C10_14  and  S2_15 
REMARK    5  A    between atoms: S2_15  and  N4_16 
REMARK    6  A    between atoms: C14_23  and  O3_24 
ROOT
HETATM    1  N1  UNL     1      25.093   3.198  51.901  1.00  0.00    -0.254 N 
HETATM    2  N2  UNL     1      24.574   4.213  51.053  1.00  0.00    -0.139 NA
HETATM    3  N3  UNL     1      25.533   4.514  50.076  1.00  0.00    -0.275 N 
HETATM    4  C13 UNL     1      26.043   3.327  49.425  1.00  0.00     0.298 C 
HETATM    5  N5  UNL     1      26.848   2.601  50.402  1.00  0.00    -0.229 NA
HETATM    6  C14 UNL     1      26.351   2.563  51.592  1.00  0.00     0.255 C 
HETATM    7  H8  UNL     1      24.472   5.077  51.658  1.00  0.00     0.173 HD
ENDROOT
BRANCH   3   8
HETATM    8  C7  UNL     1      25.953   5.826  49.750  1.00  0.00     0.049 A 
HETATM    9  C8  UNL     1      25.486   6.953  50.381  1.00  0.00     0.032 A 
HETATM   10  C9  UNL     1      25.897   8.228  50.075  1.00  0.00     0.027 A 
HETATM   11  C10 UNL     1      26.821   8.454  49.095  1.00  0.00     0.074 A 
HETATM   12  C11 UNL     1      27.315   7.336  48.435  1.00  0.00     0.027 A 
HETATM   13  C12 UNL     1      26.882   6.070  48.768  1.00  0.00     0.032 A 
BRANCH  11  14
HETATM   14  S2  UNL     1      27.348  10.058  48.694  1.00  0.00     0.239 S 
HETATM   15  O1  UNL     1      26.271  11.099  48.935  1.00  0.00    -0.206 OA
HETATM   16  O2  UNL     1      27.683  10.149  47.210  1.00  0.00    -0.206 OA
BRANCH  14  17
HETATM   17  N4  UNL     1      28.759  10.532  49.558  1.00  0.00    -0.225 NA
HETATM   18  H11 UNL     1      29.176  11.434  49.201  1.00  0.00     0.136 HD
HETATM   19  H12 UNL     1      28.564  10.725  50.564  1.00  0.00     0.136 HD
ENDBRANCH  14  17
ENDBRANCH  11  14
ENDBRANCH   3   8
BRANCH   1  20
HETATM   20  C6  UNL     1      24.378   2.781  53.091  1.00  0.00     0.195 C 
BRANCH  20  21
HETATM   21  C5  UNL     1      23.453   1.705  52.919  1.00  0.00     0.008 A 
HETATM   22  C2  UNL     1      23.452   0.331  53.196  1.00  0.00    -0.047 A 
HETATM   23  C1  UNL     1      24.656  -0.305  53.819  1.00  0.00     0.049 C 
HETATM   24  C3  UNL     1      22.351  -0.419  52.884  1.00  0.00     0.015 A 
HETATM   25  C4  UNL     1      21.262   0.256  52.292  1.00  0.00     0.051 A 
HETATM   26  S1  UNL     1      21.768   1.974  52.158  1.00  0.00    -0.104 SA
ENDBRANCH  20  21
ENDBRANCH   1  20
BRANCH   6  27
HETATM   27  O3  UNL     1      27.019   1.907  52.596  1.00  0.00    -0.330 OA
HETATM   28  H17 UNL     1      27.879   2.278  52.948  1.00  0.00     0.221 HD
ENDBRANCH   6  27
TORSDOF 6
ENDMDL
