MODEL 1
REMARK VINA RESULT:      -8.5      0.000      0.000
REMARK  2 active torsions:
REMARK  status: ('A' for Active; 'I' for Inactive)
REMARK    1  A    between atoms: C2_2  and  O1_3 
REMARK    2  A    between atoms: O1_3  and  C3_4 
ROOT
HETATM    1  C3  UNL     1      26.349   3.680  49.617  1.00  0.00     0.191 C 
HETATM    2  C4  UNL     1      26.561   2.448  50.466  1.00  0.00     0.125 C 
HETATM    3  N1  UNL     1      26.454   1.434  51.253  1.00  0.00    -0.256 NA
HETATM    4  C5  UNL     1      25.270   1.035  51.916  1.00  0.00     0.232 C 
HETATM    5  N2  UNL     1      24.224   1.413  52.568  1.00  0.00    -0.238 NA
HETATM    6  C6  UNL     1      23.226   0.580  53.081  1.00  0.00     0.104 A 
HETATM    7  C7  UNL     1      21.908   0.488  52.709  1.00  0.00     0.049 A 
HETATM    8  C8  UNL     1      21.036  -0.388  53.313  1.00  0.00     0.030 A 
HETATM    9  C9  UNL     1      21.426  -1.248  54.347  1.00  0.00     0.046 A 
HETATM   10  C10 UNL     1      22.764  -1.133  54.703  1.00  0.00     0.140 A 
HETATM   11  F1  UNL     1      23.150  -1.959  55.702  1.00  0.00    -0.204 F 
HETATM   12  C11 UNL     1      23.621  -0.250  54.087  1.00  0.00     0.103 A 
HETATM   13 CL1  UNL     1      25.280  -0.277  54.706  1.00  0.00    -0.078 Cl
HETATM   14  N3  UNL     1      21.561   1.377  51.657  1.00  0.00    -0.229 NA
HETATM   15  S1  UNL     1      20.720   2.864  51.230  1.00  0.00    -0.106 SA
HETATM   16  C12 UNL     1      21.812   3.891  50.219  1.00  0.00     0.061 C 
HETATM   17  C13 UNL     1      22.696   3.424  49.319  1.00  0.00     0.154 C 
HETATM   18  O2  UNL     1      24.050   3.745  49.096  1.00  0.00    -0.354 OA
HETATM   19  C14 UNL     1      25.037   4.254  50.007  1.00  0.00     0.163 C 
HETATM   20  C15 UNL     1      24.962   5.755  50.037  1.00  0.00     0.066 C 
HETATM   21  C16 UNL     1      23.753   6.138  50.890  1.00  0.00     0.279 C 
HETATM   22  N4  UNL     1      22.533   6.209  50.153  1.00  0.00     0.124 N 
HETATM   23  C17 UNL     1      21.873   7.473  50.462  1.00  0.00     0.302 C 
HETATM   24  C18 UNL     1      20.427   7.164  50.126  1.00  0.00     0.201 C 
HETATM   25  O3  UNL     1      20.328   5.754  50.108  1.00  0.00    -0.351 OA
HETATM   26  C19 UNL     1      21.505   5.283  50.624  1.00  0.00     0.402 C 
HETATM   27  H11 UNL     1      21.022   2.010  52.323  1.00  0.00     0.227 HD
ENDROOT
BRANCH   1  28
HETATM   28  O1  UNL     1      27.447   4.480  49.780  1.00  0.00    -0.378 OA
BRANCH  28  29
HETATM   29  C2  UNL     1      27.972   4.789  48.532  1.00  0.00     0.164 C 
HETATM   30  C1  UNL     1      28.117   6.255  48.260  1.00  0.00     0.033 C 
ENDBRANCH  28  29
ENDBRANCH   1  28
TORSDOF 2
ENDMDL
MODEL 2
REMARK VINA RESULT:      -8.4      3.059      5.885
REMARK  2 active torsions:
REMARK  status: ('A' for Active; 'I' for Inactive)
REMARK    1  A    between atoms: C2_2  and  O1_3 
REMARK    2  A    between atoms: O1_3  and  C3_4 
ROOT
HETATM    1  C3  UNL     1      20.643   0.409  52.308  1.00  0.00     0.191 C 
HETATM    2  C4  UNL     1      21.711  -0.299  53.108  1.00  0.00     0.125 C 
HETATM    3  N1  UNL     1      22.802  -0.712  53.653  1.00  0.00    -0.256 NA
HETATM    4  C5  UNL     1      24.091  -0.183  53.405  1.00  0.00     0.232 C 
HETATM    5  N2  UNL     1      24.920   0.257  52.522  1.00  0.00    -0.238 NA
HETATM    6  C6  UNL     1      26.216   0.722  52.765  1.00  0.00     0.104 A 
HETATM    7  C7  UNL     1      26.715   1.992  52.621  1.00  0.00     0.049 A 
HETATM    8  C8  UNL     1      28.026   2.301  52.902  1.00  0.00     0.030 A 
HETATM    9  C9  UNL     1      28.944   1.347  53.354  1.00  0.00     0.046 A 
HETATM   10  C10 UNL     1      28.412   0.070  53.491  1.00  0.00     0.140 A 
HETATM   11  F1  UNL     1      29.293  -0.859  53.927  1.00  0.00    -0.204 F 
HETATM   12  C11 UNL     1      27.098  -0.219  53.205  1.00  0.00     0.103 A 
HETATM   13 CL1  UNL     1      26.644  -1.912  53.452  1.00  0.00    -0.078 Cl
HETATM   14  N3  UNL     1      25.746   2.925  52.162  1.00  0.00    -0.229 NA
HETATM   15  S1  UNL     1      25.183   3.879  50.794  1.00  0.00    -0.106 SA
HETATM   16  C12 UNL     1      23.401   3.647  50.604  1.00  0.00     0.061 C 
HETATM   17  C13 UNL     1      22.531   3.484  51.617  1.00  0.00     0.154 C 
HETATM   18  O2  UNL     1      21.492   2.551  51.808  1.00  0.00    -0.354 OA
HETATM   19  C14 UNL     1      21.340   1.223  51.281  1.00  0.00     0.163 C 
HETATM   20  C15 UNL     1      20.672   1.292  49.936  1.00  0.00     0.066 C 
HETATM   21  C16 UNL     1      21.725   1.741  48.922  1.00  0.00     0.279 C 
HETATM   22  N4  UNL     1      21.841   3.158  48.807  1.00  0.00     0.124 N 
HETATM   23  C17 UNL     1      21.796   3.518  47.394  1.00  0.00     0.302 C 
HETATM   24  C18 UNL     1      22.494   4.864  47.389  1.00  0.00     0.201 C 
HETATM   25  O3  UNL     1      23.219   4.928  48.601  1.00  0.00    -0.351 OA
HETATM   26  C19 UNL     1      23.169   3.670  49.141  1.00  0.00     0.402 C 
HETATM   27  H11 UNL     1      26.187   2.959  51.193  1.00  0.00     0.227 HD
ENDROOT
BRANCH   1  28
HETATM   28  O1  UNL     1      19.775  -0.547  51.854  1.00  0.00    -0.378 OA
BRANCH  28  29
HETATM   29  C2  UNL     1      18.554  -0.393  52.498  1.00  0.00     0.164 C 
HETATM   30  C1  UNL     1      18.092  -1.599  53.257  1.00  0.00     0.033 C 
ENDBRANCH  28  29
ENDBRANCH   1  28
TORSDOF 2
ENDMDL
MODEL 3
REMARK VINA RESULT:      -8.0      5.761      8.911
REMARK  2 active torsions:
REMARK  status: ('A' for Active; 'I' for Inactive)
REMARK    1  A    between atoms: C2_2  and  O1_3 
REMARK    2  A    between atoms: O1_3  and  C3_4 
ROOT
HETATM    1  C3  UNL     1      25.111   5.704  49.185  1.00  0.00     0.191 C 
HETATM    2  C4  UNL     1      26.341   4.837  49.056  1.00  0.00     0.125 C 
HETATM    3  N1  UNL     1      27.529   4.359  48.922  1.00  0.00    -0.256 NA
HETATM    4  C5  UNL     1      28.706   5.127  48.759  1.00  0.00     0.232 C 
HETATM    5  N2  UNL     1      29.254   6.144  48.188  1.00  0.00    -0.238 NA
HETATM    6  C6  UNL     1      30.580   6.561  48.341  1.00  0.00     0.104 A 
HETATM    7  C7  UNL     1      31.059   7.709  48.920  1.00  0.00     0.049 A 
HETATM    8  C8  UNL     1      32.404   7.985  48.997  1.00  0.00     0.030 A 
HETATM    9  C9  UNL     1      33.381   7.119  48.494  1.00  0.00     0.046 A 
HETATM   10  C10 UNL     1      32.869   5.964  47.914  1.00  0.00     0.140 A 
HETATM   11  F1  UNL     1      33.806   5.121  47.424  1.00  0.00    -0.204 F 
HETATM   12  C11 UNL     1      31.520   5.707  47.846  1.00  0.00     0.103 A 
HETATM   13 CL1  UNL     1      31.099   4.175  47.062  1.00  0.00    -0.078 Cl
HETATM   14  N3  UNL     1      30.030   8.555  49.417  1.00  0.00    -0.229 NA
HETATM   15  S1  UNL     1      29.125  10.043  49.163  1.00  0.00    -0.106 SA
HETATM   16  C12 UNL     1      27.358   9.694  49.317  1.00  0.00     0.061 C 
HETATM   17  C13 UNL     1      26.819   8.804  50.168  1.00  0.00     0.154 C 
HETATM   18  O2  UNL     1      25.849   7.800  49.972  1.00  0.00    -0.354 OA
HETATM   19  C14 UNL     1      25.504   7.076  48.780  1.00  0.00     0.163 C 
HETATM   20  C15 UNL     1      24.474   7.851  48.005  1.00  0.00     0.066 C 
HETATM   21  C16 UNL     1      25.199   8.991  47.289  1.00  0.00     0.279 C 
HETATM   22  N4  UNL     1      25.325  10.173  48.078  1.00  0.00     0.124 N 
HETATM   23  C17 UNL     1      24.880  11.314  47.284  1.00  0.00     0.302 C 
HETATM   24  C18 UNL     1      25.592  12.467  47.964  1.00  0.00     0.201 C 
HETATM   25  O3  UNL     1      26.642  11.887  48.711  1.00  0.00    -0.351 OA
HETATM   26  C19 UNL     1      26.709  10.577  48.319  1.00  0.00     0.402 C 
HETATM   27  H11 UNL     1      30.170   9.250  48.621  1.00  0.00     0.227 HD
ENDROOT
BRANCH   1  28
HETATM   28  O1  UNL     1      24.115   5.107  48.459  1.00  0.00    -0.378 OA
BRANCH  28  29
HETATM   29  C2  UNL     1      23.533   4.106  49.227  1.00  0.00     0.164 C 
HETATM   30  C1  UNL     1      22.894   3.005  48.439  1.00  0.00     0.033 C 
ENDBRANCH  28  29
ENDBRANCH   1  28
TORSDOF 2
ENDMDL
MODEL 4
REMARK VINA RESULT:      -8.0      3.600      6.724
REMARK  2 active torsions:
REMARK  status: ('A' for Active; 'I' for Inactive)
REMARK    1  A    between atoms: C2_2  and  O1_3 
REMARK    2  A    between atoms: O1_3  and  C3_4 
ROOT
HETATM    1  C3  UNL     1      21.925   0.566  53.209  1.00  0.00     0.191 C 
HETATM    2  C4  UNL     1      23.332   1.033  52.919  1.00  0.00     0.125 C 
HETATM    3  N1  UNL     1      24.394   1.622  52.491  1.00  0.00    -0.256 NA
HETATM    4  C5  UNL     1      24.419   2.685  51.558  1.00  0.00     0.232 C 
HETATM    5  N2  UNL     1      23.939   3.165  50.462  1.00  0.00    -0.238 NA
HETATM    6  C6  UNL     1      24.302   4.374  49.861  1.00  0.00     0.104 A 
HETATM    7  C7  UNL     1      23.547   5.506  49.683  1.00  0.00     0.049 A 
HETATM    8  C8  UNL     1      24.047   6.630  49.067  1.00  0.00     0.030 A 
HETATM    9  C9  UNL     1      25.356   6.703  48.578  1.00  0.00     0.046 A 
HETATM   10  C10 UNL     1      26.097   5.543  48.772  1.00  0.00     0.140 A 
HETATM   11  F1  UNL     1      27.364   5.604  48.302  1.00  0.00    -0.204 F 
HETATM   12  C11 UNL     1      25.580   4.429  49.390  1.00  0.00     0.103 A 
HETATM   13 CL1  UNL     1      26.707   3.070  49.526  1.00  0.00    -0.078 Cl
HETATM   14  N3  UNL     1      22.228   5.384  50.196  1.00  0.00    -0.229 NA
HETATM   15  S1  UNL     1      20.526   5.183  49.793  1.00  0.00    -0.106 SA
HETATM   16  C12 UNL     1      19.831   3.857  50.806  1.00  0.00     0.061 C 
HETATM   17  C13 UNL     1      20.179   3.594  52.078  1.00  0.00     0.154 C 
HETATM   18  O2  UNL     1      20.503   2.382  52.721  1.00  0.00    -0.354 OA
HETATM   19  C14 UNL     1      21.046   1.170  52.176  1.00  0.00     0.163 C 
HETATM   20  C15 UNL     1      19.926   0.298  51.679  1.00  0.00     0.066 C 
HETATM   21  C16 UNL     1      19.457   0.871  50.342  1.00  0.00     0.279 C 
HETATM   22  N4  UNL     1      18.458   1.882  50.472  1.00  0.00     0.124 N 
HETATM   23  C17 UNL     1      17.356   1.569  49.567  1.00  0.00     0.302 C 
HETATM   24  C18 UNL     1      16.714   2.929  49.371  1.00  0.00     0.201 C 
HETATM   25  O3  UNL     1      17.688   3.876  49.761  1.00  0.00    -0.351 OA
HETATM   26  C19 UNL     1      18.854   3.177  49.923  1.00  0.00     0.402 C 
HETATM   27  H11 UNL     1      21.816   5.312  49.216  1.00  0.00     0.227 HD
ENDROOT
BRANCH   1  28
HETATM   28  O1  UNL     1      21.955  -0.801  53.272  1.00  0.00    -0.378 OA
BRANCH  28  29
HETATM   29  C2  UNL     1      21.672  -1.201  54.573  1.00  0.00     0.164 C 
HETATM   30  C1  UNL     1      22.876  -1.516  55.406  1.00  0.00     0.033 C 
ENDBRANCH  28  29
ENDBRANCH   1  28
TORSDOF 2
ENDMDL
MODEL 5
REMARK VINA RESULT:      -8.0      3.346      4.666
REMARK  2 active torsions:
REMARK  status: ('A' for Active; 'I' for Inactive)
REMARK    1  A    between atoms: C2_2  and  O1_3 
REMARK    2  A    between atoms: O1_3  and  C3_4 
ROOT
HETATM    1  C3  UNL     1      24.628   0.537  52.911  1.00  0.00     0.191 C 
HETATM    2  C4  UNL     1      23.518  -0.461  53.146  1.00  0.00     0.125 C 
HETATM    3  N1  UNL     1      22.411  -1.117  53.190  1.00  0.00    -0.256 NA
HETATM    4  C5  UNL     1      21.194  -0.708  52.595  1.00  0.00     0.232 C 
HETATM    5  N2  UNL     1      20.387   0.270  52.363  1.00  0.00    -0.238 NA
HETATM    6  C6  UNL     1      19.180   0.196  51.662  1.00  0.00     0.104 A 
HETATM    7  C7  UNL     1      18.850   0.762  50.457  1.00  0.00     0.049 A 
HETATM    8  C8  UNL     1      17.609   0.599  49.886  1.00  0.00     0.030 A 
HETATM    9  C9  UNL     1      16.595  -0.154  50.489  1.00  0.00     0.046 A 
HETATM   10  C10 UNL     1      16.957  -0.716  51.708  1.00  0.00     0.140 A 
HETATM   11  F1  UNL     1      15.983  -1.445  52.298  1.00  0.00    -0.204 F 
HETATM   12  C11 UNL     1      18.203  -0.541  52.262  1.00  0.00     0.103 A 
HETATM   13 CL1  UNL     1      18.438  -1.349  53.820  1.00  0.00    -0.078 Cl
HETATM   14  N3  UNL     1      19.910   1.515  49.883  1.00  0.00    -0.229 NA
HETATM   15  S1  UNL     1      20.524   3.128  49.537  1.00  0.00    -0.106 SA
HETATM   16  C12 UNL     1      22.247   3.233  50.074  1.00  0.00     0.061 C 
HETATM   17  C13 UNL     1      23.138   2.227  50.011  1.00  0.00     0.154 C 
HETATM   18  O2  UNL     1      24.051   1.734  50.964  1.00  0.00    -0.354 OA
HETATM   19  C14 UNL     1      23.995   1.777  52.398  1.00  0.00     0.163 C 
HETATM   20  C15 UNL     1      24.595   3.067  52.884  1.00  0.00     0.066 C 
HETATM   21  C16 UNL     1      23.561   4.169  52.656  1.00  0.00     0.279 C 
HETATM   22  N4  UNL     1      23.631   4.760  51.359  1.00  0.00     0.124 N 
HETATM   23  C17 UNL     1      23.650   6.212  51.507  1.00  0.00     0.302 C 
HETATM   24  C18 UNL     1      23.140   6.673  50.155  1.00  0.00     0.201 C 
HETATM   25  O3  UNL     1      22.494   5.553  49.583  1.00  0.00    -0.351 OA
HETATM   26  C19 UNL     1      22.403   4.617  50.579  1.00  0.00     0.402 C 
HETATM   27  H11 UNL     1      19.427   2.436  50.114  1.00  0.00     0.227 HD
ENDROOT
BRANCH   1  28
HETATM   28  O1  UNL     1      25.335   0.640  54.079  1.00  0.00    -0.378 OA
BRANCH  28  29
HETATM   29  C2  UNL     1      26.446  -0.192  54.012  1.00  0.00     0.164 C 
HETATM   30  C1  UNL     1      27.182  -0.148  52.709  1.00  0.00     0.033 C 
ENDBRANCH  28  29
ENDBRANCH   1  28
TORSDOF 2
ENDMDL
MODEL 6
REMARK VINA RESULT:      -7.8      4.419      8.193
REMARK  2 active torsions:
REMARK  status: ('A' for Active; 'I' for Inactive)
REMARK    1  A    between atoms: C2_2  and  O1_3 
REMARK    2  A    between atoms: O1_3  and  C3_4 
ROOT
HETATM    1  C3  UNL     1      21.877   7.287  49.700  1.00  0.00     0.191 C 
HETATM    2  C4  UNL     1      22.881   8.296  49.197  1.00  0.00     0.125 C 
HETATM    3  N1  UNL     1      23.930   8.935  48.810  1.00  0.00    -0.256 NA
HETATM    4  C5  UNL     1      25.242   8.405  48.768  1.00  0.00     0.232 C 
HETATM    5  N2  UNL     1      26.129   7.687  49.366  1.00  0.00    -0.238 NA
HETATM    6  C6  UNL     1      27.418   7.409  48.900  1.00  0.00     0.104 A 
HETATM    7  C7  UNL     1      27.949   6.207  48.506  1.00  0.00     0.049 A 
HETATM    8  C8  UNL     1      29.247   6.089  48.066  1.00  0.00     0.030 A 
HETATM    9  C9  UNL     1      30.119   7.181  47.986  1.00  0.00     0.046 A 
HETATM   10  C10 UNL     1      29.555   8.385  48.390  1.00  0.00     0.140 A 
HETATM   11  F1  UNL     1      30.389   9.446  48.317  1.00  0.00    -0.204 F 
HETATM   12  C11 UNL     1      28.254   8.483  48.828  1.00  0.00     0.103 A 
HETATM   13 CL1  UNL     1      27.753  10.117  49.292  1.00  0.00    -0.078 Cl
HETATM   14  N3  UNL     1      27.028   5.130  48.604  1.00  0.00    -0.229 NA
HETATM   15  S1  UNL     1      26.565   3.692  49.507  1.00  0.00    -0.106 SA
HETATM   16  C12 UNL     1      24.792   3.756  49.855  1.00  0.00     0.061 C 
HETATM   17  C13 UNL     1      23.862   4.269  49.031  1.00  0.00     0.154 C 
HETATM   18  O2  UNL     1      22.795   5.158  49.273  1.00  0.00    -0.354 OA
HETATM   19  C14 UNL     1      22.648   6.164  50.287  1.00  0.00     0.163 C 
HETATM   20  C15 UNL     1      22.062   5.543  51.525  1.00  0.00     0.066 C 
HETATM   21  C16 UNL     1      23.181   4.776  52.229  1.00  0.00     0.279 C 
HETATM   22  N4  UNL     1      23.332   3.433  51.769  1.00  0.00     0.124 N 
HETATM   23  C17 UNL     1      23.377   2.544  52.925  1.00  0.00     0.302 C 
HETATM   24  C18 UNL     1      24.100   1.335  52.365  1.00  0.00     0.201 C 
HETATM   25  O3  UNL     1      24.754   1.784  51.195  1.00  0.00    -0.351 OA
HETATM   26  C19 UNL     1      24.647   3.149  51.199  1.00  0.00     0.402 C 
HETATM   27  H11 UNL     1      27.526   4.735  49.458  1.00  0.00     0.227 HD
ENDROOT
BRANCH   1  28
HETATM   28  O1  UNL     1      21.018   7.950  50.535  1.00  0.00    -0.378 OA
BRANCH  28  29
HETATM   29  C2  UNL     1      19.876   8.300  49.825  1.00  0.00     0.164 C 
HETATM   30  C1  UNL     1      19.334   9.659  50.144  1.00  0.00     0.033 C 
ENDBRANCH  28  29
ENDBRANCH   1  28
TORSDOF 2
ENDMDL
MODEL 7
REMARK VINA RESULT:      -7.5      2.705      5.437
REMARK  2 active torsions:
REMARK  status: ('A' for Active; 'I' for Inactive)
REMARK    1  A    between atoms: C2_2  and  O1_3 
REMARK    2  A    between atoms: O1_3  and  C3_4 
ROOT
HETATM    1  C3  UNL     1      18.821   3.641  51.018  1.00  0.00     0.191 C 
HETATM    2  C4  UNL     1      19.271   2.544  51.954  1.00  0.00     0.125 C 
HETATM    3  N1  UNL     1      19.926   1.704  52.678  1.00  0.00    -0.256 NA
HETATM    4  C5  UNL     1      21.336   1.636  52.778  1.00  0.00     0.232 C 
HETATM    5  N2  UNL     1      22.461   1.683  52.150  1.00  0.00    -0.238 NA
HETATM    6  C6  UNL     1      23.730   1.552  52.721  1.00  0.00     0.104 A 
HETATM    7  C7  UNL     1      24.727   2.489  52.826  1.00  0.00     0.049 A 
HETATM    8  C8  UNL     1      25.936   2.210  53.419  1.00  0.00     0.030 A 
HETATM    9  C9  UNL     1      26.239   0.955  53.959  1.00  0.00     0.046 A 
HETATM   10  C10 UNL     1      25.212   0.025  53.839  1.00  0.00     0.140 A 
HETATM   11  F1  UNL     1      25.496  -1.191  54.356  1.00  0.00    -0.204 F 
HETATM   12  C11 UNL     1      24.010   0.324  53.241  1.00  0.00     0.103 A 
HETATM   13 CL1  UNL     1      22.853  -1.016  53.201  1.00  0.00    -0.078 Cl
HETATM   14  N3  UNL     1      24.373   3.747  52.266  1.00  0.00    -0.229 NA
HETATM   15  S1  UNL     1      24.606   4.854  50.918  1.00  0.00    -0.106 SA
HETATM   16  C12 UNL     1      22.992   5.402  50.316  1.00  0.00     0.061 C 
HETATM   17  C13 UNL     1      21.914   5.622  51.090  1.00  0.00     0.154 C 
HETATM   18  O2  UNL     1      20.571   5.219  50.947  1.00  0.00    -0.354 OA
HETATM   19  C14 UNL     1      20.019   4.084  50.263  1.00  0.00     0.163 C 
HETATM   20  C15 UNL     1      19.790   4.434  48.818  1.00  0.00     0.066 C 
HETATM   21  C16 UNL     1      21.146   4.394  48.115  1.00  0.00     0.279 C 
HETATM   22  N4  UNL     1      21.860   5.628  48.179  1.00  0.00     0.124 N 
HETATM   23  C17 UNL     1      22.314   5.977  46.837  1.00  0.00     0.302 C 
HETATM   24  C18 UNL     1      23.483   6.898  47.129  1.00  0.00     0.201 C 
HETATM   25  O3  UNL     1      23.850   6.644  48.470  1.00  0.00    -0.351 OA
HETATM   26  C19 UNL     1      23.156   5.526  48.849  1.00  0.00     0.402 C 
HETATM   27  H11 UNL     1      25.011   3.593  51.427  1.00  0.00     0.227 HD
ENDROOT
BRANCH   1  28
HETATM   28  O1  UNL     1      17.776   3.146  50.285  1.00  0.00    -0.378 OA
BRANCH  28  29
HETATM   29  C2  UNL     1      16.696   4.014  50.392  1.00  0.00     0.164 C 
HETATM   30  C1  UNL     1      16.246   4.280  51.795  1.00  0.00     0.033 C 
ENDBRANCH  28  29
ENDBRANCH   1  28
TORSDOF 2
ENDMDL
MODEL 8
REMARK VINA RESULT:      -7.5      3.284      5.557
REMARK  2 active torsions:
REMARK  status: ('A' for Active; 'I' for Inactive)
REMARK    1  A    between atoms: C2_2  and  O1_3 
REMARK    2  A    between atoms: O1_3  and  C3_4 
ROOT
HETATM    1  C3  UNL     1      24.689   4.331  50.681  1.00  0.00     0.191 C 
HETATM    2  C4  UNL     1      23.225   4.219  50.328  1.00  0.00     0.125 C 
HETATM    3  N1  UNL     1      21.990   3.879  50.194  1.00  0.00    -0.256 NA
HETATM    4  C5  UNL     1      21.386   2.744  50.784  1.00  0.00     0.232 C 
HETATM    5  N2  UNL     1      21.503   1.494  51.074  1.00  0.00    -0.238 NA
HETATM    6  C6  UNL     1      20.552   0.706  51.728  1.00  0.00     0.104 A 
HETATM    7  C7  UNL     1      20.626   0.120  52.967  1.00  0.00     0.049 A 
HETATM    8  C8  UNL     1      19.599  -0.636  53.483  1.00  0.00     0.030 A 
HETATM    9  C9  UNL     1      18.406  -0.862  52.787  1.00  0.00     0.046 A 
HETATM   10  C10 UNL     1      18.357  -0.257  51.537  1.00  0.00     0.140 A 
HETATM   11  F1  UNL     1      17.209  -0.471  50.856  1.00  0.00    -0.204 F 
HETATM   12  C11 UNL     1      19.396   0.494  51.038  1.00  0.00     0.103 A 
HETATM   13 CL1  UNL     1      19.111   1.167  49.424  1.00  0.00    -0.078 Cl
HETATM   14  N3  UNL     1      21.853   0.378  53.635  1.00  0.00    -0.229 NA
HETATM   15  S1  UNL     1      23.402  -0.290  54.137  1.00  0.00    -0.106 SA
HETATM   16  C12 UNL     1      24.721   0.853  53.664  1.00  0.00     0.061 C 
HETATM   17  C13 UNL     1      24.618   2.194  53.669  1.00  0.00     0.154 C 
HETATM   18  O2  UNL     1      24.980   3.157  52.705  1.00  0.00    -0.354 OA
HETATM   19  C14 UNL     1      25.091   3.033  51.278  1.00  0.00     0.163 C 
HETATM   20  C15 UNL     1      26.469   2.548  50.924  1.00  0.00     0.066 C 
HETATM   21  C16 UNL     1      26.517   1.047  51.213  1.00  0.00     0.279 C 
HETATM   22  N4  UNL     1      26.880   0.735  52.557  1.00  0.00     0.124 N 
HETATM   23  C17 UNL     1      27.941  -0.266  52.535  1.00  0.00     0.302 C 
HETATM   24  C18 UNL     1      27.803  -0.902  53.905  1.00  0.00     0.201 C 
HETATM   25  O3  UNL     1      26.508  -0.565  54.359  1.00  0.00    -0.351 OA
HETATM   26  C19 UNL     1      25.859  -0.017  53.284  1.00  0.00     0.402 C 
HETATM   27  H11 UNL     1      22.194  -0.617  53.469  1.00  0.00     0.227 HD
ENDROOT
BRANCH   1  28
HETATM   28  O1  UNL     1      25.352   4.722  49.549  1.00  0.00    -0.378 OA
BRANCH  28  29
HETATM   29  C2  UNL     1      25.701   6.061  49.668  1.00  0.00     0.164 C 
HETATM   30  C1  UNL     1      25.292   6.919  48.511  1.00  0.00     0.033 C 
ENDBRANCH  28  29
ENDBRANCH   1  28
TORSDOF 2
ENDMDL
MODEL 9
REMARK VINA RESULT:      -7.5      2.761      5.423
REMARK  2 active torsions:
REMARK  status: ('A' for Active; 'I' for Inactive)
REMARK    1  A    between atoms: C2_2  and  O1_3 
REMARK    2  A    between atoms: O1_3  and  C3_4 
ROOT
HETATM    1  C3  UNL     1      19.603   2.983  51.907  1.00  0.00     0.191 C 
HETATM    2  C4  UNL     1      20.397   2.012  52.749  1.00  0.00     0.125 C 
HETATM    3  N1  UNL     1      21.303   1.292  53.314  1.00  0.00    -0.256 NA
HETATM    4  C5  UNL     1      22.686   1.337  53.016  1.00  0.00     0.232 C 
HETATM    5  N2  UNL     1      23.584   1.410  52.095  1.00  0.00    -0.238 NA
HETATM    6  C6  UNL     1      24.968   1.425  52.292  1.00  0.00     0.104 A 
HETATM    7  C7  UNL     1      25.861   2.439  52.049  1.00  0.00     0.049 A 
HETATM    8  C8  UNL     1      27.207   2.305  52.295  1.00  0.00     0.030 A 
HETATM    9  C9  UNL     1      27.766   1.130  52.809  1.00  0.00     0.046 A 
HETATM   10  C10 UNL     1      26.841   0.120  53.046  1.00  0.00     0.140 A 
HETATM   11  F1  UNL     1      27.371  -1.020  53.543  1.00  0.00    -0.204 F 
HETATM   12  C11 UNL     1      25.497   0.274  52.793  1.00  0.00     0.103 A 
HETATM   13 CL1  UNL     1      24.508  -1.146  53.171  1.00  0.00    -0.078 Cl
HETATM   14  N3  UNL     1      25.247   3.611  51.529  1.00  0.00    -0.229 NA
HETATM   15  S1  UNL     1      24.992   4.605  50.099  1.00  0.00    -0.106 SA
HETATM   16  C12 UNL     1      23.230   4.976  49.942  1.00  0.00     0.061 C 
HETATM   17  C13 UNL     1      22.391   5.185  50.972  1.00  0.00     0.154 C 
HETATM   18  O2  UNL     1      21.106   4.673  51.241  1.00  0.00    -0.354 OA
HETATM   19  C14 UNL     1      20.499   3.443  50.817  1.00  0.00     0.163 C 
HETATM   20  C15 UNL     1      19.848   3.642  49.476  1.00  0.00     0.066 C 
HETATM   21  C16 UNL     1      20.956   3.639  48.423  1.00  0.00     0.279 C 
HETATM   22  N4  UNL     1      21.538   4.922  48.201  1.00  0.00     0.124 N 
HETATM   23  C17 UNL     1      21.570   5.180  46.765  1.00  0.00     0.302 C 
HETATM   24  C18 UNL     1      22.679   6.208  46.653  1.00  0.00     0.201 C 
HETATM   25  O3  UNL     1      23.423   6.104  47.850  1.00  0.00    -0.351 OA
HETATM   26  C19 UNL     1      22.971   4.977  48.483  1.00  0.00     0.402 C 
HETATM   27  H11 UNL     1      25.642   3.429  50.557  1.00  0.00     0.227 HD
ENDROOT
BRANCH   1  28
HETATM   28  O1  UNL     1      18.450   2.348  51.534  1.00  0.00    -0.378 OA
BRANCH  28  29
HETATM   29  C2  UNL     1      18.661   0.975  51.555  1.00  0.00     0.164 C 
HETATM   30  C1  UNL     1      17.941   0.215  50.484  1.00  0.00     0.033 C 
ENDBRANCH  28  29
ENDBRANCH   1  28
TORSDOF 2
ENDMDL
