MODEL 1
REMARK VINA RESULT:      -8.1      0.000      0.000
REMARK  1 active torsions:
REMARK  status: ('A' for Active; 'I' for Inactive)
REMARK       I    between atoms: N1_2  and  C2_3 
REMARK    1  A    between atoms: C5_7  and  O1_8 
ROOT
HETATM    1  C1  UNL     1      22.652   3.526  47.609  1.00  0.00     0.165 C 
HETATM    2  N1  UNL     1      22.245   2.276  48.254  1.00  0.00    -0.228 N 
HETATM    3  C2  UNL     1      22.389   2.208  49.665  1.00  0.00     0.711 C 
HETATM    4  N2  UNL     1      22.971   2.958  50.466  1.00  0.00    -0.064 NA
HETATM    5  C3  UNL     1      23.698   4.123  50.346  1.00  0.00     0.086 A 
HETATM    6  C4  UNL     1      24.914   4.009  49.694  1.00  0.00     0.069 A 
HETATM    7  C5  UNL     1      25.769   5.074  49.483  1.00  0.00     0.070 A 
HETATM    8  C7  UNL     1      25.360   6.319  49.964  1.00  0.00     0.037 A 
HETATM    9  C8  UNL     1      24.148   6.475  50.624  1.00  0.00     0.014 A 
HETATM   10  C9  UNL     1      23.343   5.368  50.799  1.00  0.00    -0.007 A 
HETATM   11  C10 UNL     1      22.034   5.540  51.515  1.00  0.00     0.215 C 
HETATM   12  N3  UNL     1      21.879   4.342  52.294  1.00  0.00    -0.181 NA
HETATM   13  N4  UNL     1      20.904   3.609  52.057  1.00  0.00    -0.119 NA
HETATM   14  S1  UNL     1      20.689   2.175  52.962  1.00  0.00     0.017 SA
HETATM   15  C11 UNL     1      21.759   0.823  52.404  1.00  0.00     0.183 A 
HETATM   16  C12 UNL     1      21.663  -0.387  53.534  1.00  0.00     0.039 A 
HETATM   17  C13 UNL     1      22.785  -1.015  54.233  1.00  0.00    -0.011 A 
HETATM   18  C14 UNL     1      23.012  -0.551  52.992  1.00  0.00    -0.001 A 
HETATM   19  C15 UNL     1      21.607  -0.061  52.694  1.00  0.00     0.077 A 
HETATM   20  C16 UNL     1      20.255   0.015  53.367  1.00  0.00     0.055 A 
HETATM   21  C17 UNL     1      20.598  -0.563  54.523  1.00  0.00    -0.027 A 
HETATM   22  N5  UNL     1      21.597   0.245  51.211  1.00  0.00    -0.184 NA
HETATM   23  N6  UNL     1      21.706   1.041  50.070  1.00  0.00    -0.148 N 
HETATM   24  H4  UNL     1      21.871   1.505  47.626  1.00  0.00     0.177 HD
HETATM   25  H18 UNL     1      21.053   0.318  49.745  1.00  0.00     0.199 HD
ENDROOT
BRANCH   7  26
HETATM   26  O1  UNL     1      26.993   4.972  48.831  1.00  0.00    -0.356 OA
HETATM   27  C6  UNL     1      27.692   6.103  48.346  1.00  0.00     0.210 C 
ENDBRANCH   7  26
TORSDOF 1
ENDMDL
MODEL 2
REMARK VINA RESULT:      -8.0      8.050     11.050
REMARK  1 active torsions:
REMARK  status: ('A' for Active; 'I' for Inactive)
REMARK       I    between atoms: N1_2  and  C2_3 
REMARK    1  A    between atoms: C5_7  and  O1_8 
ROOT
HETATM    1  C1  UNL     1      30.057   9.151  49.462  1.00  0.00     0.165 C 
HETATM    2  N1  UNL     1      31.097   8.135  49.631  1.00  0.00    -0.228 N 
HETATM    3  C2  UNL     1      31.251   7.197  48.577  1.00  0.00     0.711 C 
HETATM    4  N2  UNL     1      30.543   6.954  47.586  1.00  0.00    -0.064 NA
HETATM    5  C3  UNL     1      29.356   7.459  47.100  1.00  0.00     0.086 A 
HETATM    6  C4  UNL     1      28.232   7.197  47.866  1.00  0.00     0.069 A 
HETATM    7  C5  UNL     1      26.964   7.629  47.530  1.00  0.00     0.070 A 
HETATM    8  C7  UNL     1      26.837   8.364  46.350  1.00  0.00     0.037 A 
HETATM    9  C8  UNL     1      27.939   8.647  45.553  1.00  0.00     0.014 A 
HETATM   10  C9  UNL     1      29.177   8.185  45.949  1.00  0.00    -0.007 A 
HETATM   11  C10 UNL     1      30.366   8.490  45.085  1.00  0.00     0.215 C 
HETATM   12  N3  UNL     1      31.186   7.311  45.155  1.00  0.00    -0.181 NA
HETATM   13  N4  UNL     1      32.329   7.418  45.631  1.00  0.00    -0.119 NA
HETATM   14  S1  UNL     1      33.332   6.037  45.733  1.00  0.00     0.017 SA
HETATM   15  C11 UNL     1      32.917   4.968  47.136  1.00  0.00     0.183 A 
HETATM   16  C12 UNL     1      33.753   3.549  46.944  1.00  0.00     0.039 A 
HETATM   17  C13 UNL     1      33.185   2.200  46.932  1.00  0.00    -0.011 A 
HETATM   18  C14 UNL     1      32.556   3.128  47.672  1.00  0.00    -0.001 A 
HETATM   19  C15 UNL     1      33.504   4.283  47.407  1.00  0.00     0.077 A 
HETATM   20  C16 UNL     1      34.768   4.569  46.627  1.00  0.00     0.055 A 
HETATM   21  C17 UNL     1      34.937   3.349  46.106  1.00  0.00    -0.027 A 
HETATM   22  N5  UNL     1      33.111   5.359  48.398  1.00  0.00    -0.184 NA
HETATM   23  N6  UNL     1      32.452   6.504  48.845  1.00  0.00    -0.148 N 
HETATM   24  H4  UNL     1      31.664   8.165  50.530  1.00  0.00     0.177 HD
HETATM   25  H18 UNL     1      33.293   6.518  49.434  1.00  0.00     0.199 HD
ENDROOT
BRANCH   7  26
HETATM   26  O1  UNL     1      25.828   7.373  48.290  1.00  0.00    -0.356 OA
HETATM   27  C6  UNL     1      25.896   6.980  49.649  1.00  0.00     0.210 C 
ENDBRANCH   7  26
TORSDOF 1
ENDMDL
MODEL 3
REMARK VINA RESULT:      -7.8      3.224      7.605
REMARK  1 active torsions:
REMARK  status: ('A' for Active; 'I' for Inactive)
REMARK       I    between atoms: N1_2  and  C2_3 
REMARK    1  A    between atoms: C5_7  and  O1_8 
ROOT
HETATM    1  C1  UNL     1      23.167   5.261  52.911  1.00  0.00     0.165 C 
HETATM    2  N1  UNL     1      24.189   6.193  52.429  1.00  0.00    -0.228 N 
HETATM    3  C2  UNL     1      24.641   6.012  51.096  1.00  0.00     0.711 C 
HETATM    4  N2  UNL     1      24.463   5.084  50.289  1.00  0.00    -0.064 NA
HETATM    5  C3  UNL     1      23.785   3.885  50.330  1.00  0.00     0.086 A 
HETATM    6  C4  UNL     1      24.304   2.930  51.189  1.00  0.00     0.069 A 
HETATM    7  C5  UNL     1      23.750   1.675  51.356  1.00  0.00     0.070 A 
HETATM    8  C7  UNL     1      22.609   1.381  50.608  1.00  0.00     0.037 A 
HETATM    9  C8  UNL     1      22.058   2.311  49.736  1.00  0.00     0.014 A 
HETATM   10  C9  UNL     1      22.662   3.546  49.617  1.00  0.00    -0.007 A 
HETATM   11  C10 UNL     1      22.066   4.548  48.672  1.00  0.00     0.215 C 
HETATM   12  N3  UNL     1      23.193   5.226  48.093  1.00  0.00    -0.181 NA
HETATM   13  N4  UNL     1      23.304   6.449  48.284  1.00  0.00    -0.119 NA
HETATM   14  S1  UNL     1      24.633   7.289  47.613  1.00  0.00     0.017 SA
HETATM   15  C11 UNL     1      26.159   7.069  48.566  1.00  0.00     0.183 A 
HETATM   16  C12 UNL     1      27.405   7.680  47.659  1.00  0.00     0.039 A 
HETATM   17  C13 UNL     1      28.630   6.975  47.278  1.00  0.00    -0.011 A 
HETATM   18  C14 UNL     1      28.054   6.628  48.442  1.00  0.00    -0.001 A 
HETATM   19  C15 UNL     1      26.906   7.620  48.409  1.00  0.00     0.077 A 
HETATM   20  C16 UNL     1      26.362   8.711  47.514  1.00  0.00     0.055 A 
HETATM   21  C17 UNL     1      27.283   8.626  46.549  1.00  0.00    -0.027 A 
HETATM   22  N5  UNL     1      26.298   7.572  49.795  1.00  0.00    -0.184 NA
HETATM   23  N6  UNL     1      25.407   7.156  50.786  1.00  0.00    -0.148 N 
HETATM   24  H4  UNL     1      24.524   6.940  53.107  1.00  0.00     0.177 HD
HETATM   25  H18 UNL     1      25.640   8.101  51.114  1.00  0.00     0.199 HD
ENDROOT
BRANCH   7  26
HETATM   26  O1  UNL     1      24.262   0.708  52.215  1.00  0.00    -0.356 OA
HETATM   27  C6  UNL     1      23.480   0.100  53.226  1.00  0.00     0.210 C 
ENDBRANCH   7  26
TORSDOF 1
ENDMDL
MODEL 4
REMARK VINA RESULT:      -7.7      8.236     11.030
REMARK  1 active torsions:
REMARK  status: ('A' for Active; 'I' for Inactive)
REMARK       I    between atoms: N1_2  and  C2_3 
REMARK    1  A    between atoms: C5_7  and  O1_8 
ROOT
HETATM    1  C1  UNL     1      29.168   8.740  45.068  1.00  0.00     0.165 C 
HETATM    2  N1  UNL     1      30.535   8.221  44.988  1.00  0.00    -0.228 N 
HETATM    3  C2  UNL     1      31.043   7.580  46.148  1.00  0.00     0.711 C 
HETATM    4  N2  UNL     1      30.607   7.522  47.310  1.00  0.00    -0.064 NA
HETATM    5  C3  UNL     1      29.499   8.030  47.952  1.00  0.00     0.086 A 
HETATM    6  C4  UNL     1      29.464   9.407  48.094  1.00  0.00     0.069 A 
HETATM    7  C5  UNL     1      28.428  10.084  48.710  1.00  0.00     0.070 A 
HETATM    8  C7  UNL     1      27.375   9.314  49.207  1.00  0.00     0.037 A 
HETATM    9  C8  UNL     1      27.372   7.930  49.085  1.00  0.00     0.014 A 
HETATM   10  C9  UNL     1      28.439   7.319  48.458  1.00  0.00    -0.007 A 
HETATM   11  C10 UNL     1      28.435   5.823  48.330  1.00  0.00     0.215 C 
HETATM   12  N3  UNL     1      29.806   5.433  48.512  1.00  0.00    -0.181 NA
HETATM   13  N4  UNL     1      30.382   4.856  47.574  1.00  0.00    -0.119 NA
HETATM   14  S1  UNL     1      32.014   4.379  47.753  1.00  0.00     0.017 SA
HETATM   15  C11 UNL     1      33.176   5.753  47.537  1.00  0.00     0.183 A 
HETATM   16  C12 UNL     1      34.670   5.221  48.021  1.00  0.00     0.039 A 
HETATM   17  C13 UNL     1      35.537   5.853  49.017  1.00  0.00    -0.011 A 
HETATM   18  C14 UNL     1      34.723   6.654  48.310  1.00  0.00    -0.001 A 
HETATM   19  C15 UNL     1      34.098   5.589  47.429  1.00  0.00     0.077 A 
HETATM   20  C16 UNL     1      34.170   4.093  47.216  1.00  0.00     0.055 A 
HETATM   21  C17 UNL     1      35.093   3.825  48.145  1.00  0.00    -0.027 A 
HETATM   22  N5  UNL     1      33.348   6.348  46.354  1.00  0.00    -0.184 NA
HETATM   23  N6  UNL     1      32.244   6.953  45.751  1.00  0.00    -0.148 N 
HETATM   24  H4  UNL     1      31.055   8.360  44.072  1.00  0.00     0.177 HD
HETATM   25  H18 UNL     1      32.798   6.689  44.928  1.00  0.00     0.199 HD
ENDROOT
BRANCH   7  26
HETATM   26  O1  UNL     1      28.382  11.466  48.859  1.00  0.00    -0.356 OA
HETATM   27  C6  UNL     1      29.545  12.273  48.821  1.00  0.00     0.210 C 
ENDBRANCH   7  26
TORSDOF 1
ENDMDL
MODEL 5
REMARK VINA RESULT:      -7.5      2.200      3.659
REMARK  1 active torsions:
REMARK  status: ('A' for Active; 'I' for Inactive)
REMARK       I    between atoms: N1_2  and  C2_3 
REMARK    1  A    between atoms: C5_7  and  O1_8 
ROOT
HETATM    1  C1  UNL     1      23.782   5.274  52.960  1.00  0.00     0.165 C 
HETATM    2  N1  UNL     1      22.367   4.911  52.857  1.00  0.00    -0.228 N 
HETATM    3  C2  UNL     1      22.074   3.625  52.333  1.00  0.00     0.711 C 
HETATM    4  N2  UNL     1      22.794   2.788  51.765  1.00  0.00    -0.064 NA
HETATM    5  C3  UNL     1      24.126   2.740  51.411  1.00  0.00     0.086 A 
HETATM    6  C4  UNL     1      24.517   3.627  50.422  1.00  0.00     0.069 A 
HETATM    7  C5  UNL     1      25.811   3.717  49.948  1.00  0.00     0.070 A 
HETATM    8  C7  UNL     1      26.754   2.855  50.512  1.00  0.00     0.037 A 
HETATM    9  C8  UNL     1      26.402   1.951  51.506  1.00  0.00     0.014 A 
HETATM   10  C9  UNL     1      25.090   1.915  51.933  1.00  0.00    -0.007 A 
HETATM   11  C10 UNL     1      24.712   0.935  53.005  1.00  0.00     0.215 C 
HETATM   12  N3  UNL     1      23.396   0.482  52.644  1.00  0.00    -0.181 NA
HETATM   13  N4  UNL     1      22.462   0.705  53.432  1.00  0.00    -0.119 NA
HETATM   14  S1  UNL     1      20.883   0.182  53.035  1.00  0.00     0.017 SA
HETATM   15  C11 UNL     1      20.058   1.275  51.848  1.00  0.00     0.183 A 
HETATM   16  C12 UNL     1      18.681   0.505  51.337  1.00  0.00     0.039 A 
HETATM   17  C13 UNL     1      18.302   0.232  49.950  1.00  0.00    -0.011 A 
HETATM   18  C14 UNL     1      19.045   1.327  50.183  1.00  0.00    -0.001 A 
HETATM   19  C15 UNL     1      19.131   1.202  51.693  1.00  0.00     0.077 A 
HETATM   20  C16 UNL     1      18.658   0.279  52.793  1.00  0.00     0.055 A 
HETATM   21  C17 UNL     1      18.000  -0.594  52.023  1.00  0.00    -0.027 A 
HETATM   22  N5  UNL     1      19.702   2.521  52.171  1.00  0.00    -0.184 NA
HETATM   23  N6  UNL     1      20.698   3.412  52.571  1.00  0.00    -0.148 N 
HETATM   24  H4  UNL     1      21.656   5.632  53.179  1.00  0.00     0.177 HD
HETATM   25  H18 UNL     1      19.888   3.779  53.084  1.00  0.00     0.199 HD
ENDROOT
BRANCH   7  26
HETATM   26  O1  UNL     1      26.216   4.602  48.955  1.00  0.00    -0.356 OA
HETATM   27  C6  UNL     1      27.574   4.760  48.585  1.00  0.00     0.210 C 
ENDBRANCH   7  26
TORSDOF 1
ENDMDL
MODEL 6
REMARK VINA RESULT:      -7.4     10.423     11.846
REMARK  1 active torsions:
REMARK  status: ('A' for Active; 'I' for Inactive)
REMARK       I    between atoms: N1_2  and  C2_3 
REMARK    1  A    between atoms: C5_7  and  O1_8 
ROOT
HETATM    1  C1  UNL     1      30.603  10.064  49.672  1.00  0.00     0.165 C 
HETATM    2  N1  UNL     1      30.657   8.610  49.836  1.00  0.00    -0.228 N 
HETATM    3  C2  UNL     1      31.362   7.881  48.844  1.00  0.00     0.711 C 
HETATM    4  N2  UNL     1      31.810   8.225  47.737  1.00  0.00    -0.064 NA
HETATM    5  C3  UNL     1      31.817   9.403  47.022  1.00  0.00     0.086 A 
HETATM    6  C4  UNL     1      30.583   9.838  46.567  1.00  0.00     0.069 A 
HETATM    7  C5  UNL     1      30.405  10.997  45.837  1.00  0.00     0.070 A 
HETATM    8  C7  UNL     1      31.547  11.751  45.557  1.00  0.00     0.037 A 
HETATM    9  C8  UNL     1      32.802  11.349  45.994  1.00  0.00     0.014 A 
HETATM   10  C9  UNL     1      32.907  10.179  46.719  1.00  0.00    -0.007 A 
HETATM   11  C10 UNL     1      34.266   9.746  47.188  1.00  0.00     0.215 C 
HETATM   12  N3  UNL     1      34.259   8.314  47.069  1.00  0.00    -0.181 NA
HETATM   13  N4  UNL     1      34.408   7.637  48.100  1.00  0.00    -0.119 NA
HETATM   14  S1  UNL     1      34.403   5.931  47.997  1.00  0.00     0.017 SA
HETATM   15  C11 UNL     1      32.733   5.239  47.862  1.00  0.00     0.183 A 
HETATM   16  C12 UNL     1      32.889   3.634  47.478  1.00  0.00     0.039 A 
HETATM   17  C13 UNL     1      32.270   2.947  46.343  1.00  0.00    -0.011 A 
HETATM   18  C14 UNL     1      31.610   3.995  46.866  1.00  0.00    -0.001 A 
HETATM   19  C15 UNL     1      32.585   4.317  47.984  1.00  0.00     0.077 A 
HETATM   20  C16 UNL     1      33.901   3.815  48.534  1.00  0.00     0.055 A 
HETATM   21  C17 UNL     1      34.085   2.811  47.670  1.00  0.00    -0.027 A 
HETATM   22  N5  UNL     1      31.861   5.308  48.872  1.00  0.00    -0.184 NA
HETATM   23  N6  UNL     1      31.495   6.568  49.345  1.00  0.00    -0.148 N 
HETATM   24  H4  UNL     1      30.164   8.197  50.684  1.00  0.00     0.177 HD
HETATM   25  H18 UNL     1      31.386   5.999  50.193  1.00  0.00     0.199 HD
ENDROOT
BRANCH   7  26
HETATM   26  O1  UNL     1      29.172  11.444  45.375  1.00  0.00    -0.356 OA
HETATM   27  C6  UNL     1      29.051  12.431  44.367  1.00  0.00     0.210 C 
ENDBRANCH   7  26
TORSDOF 1
ENDMDL
MODEL 7
REMARK VINA RESULT:      -7.3      2.596      5.576
REMARK  1 active torsions:
REMARK  status: ('A' for Active; 'I' for Inactive)
REMARK       I    between atoms: N1_2  and  C2_3 
REMARK    1  A    between atoms: C5_7  and  O1_8 
ROOT
HETATM    1  C1  UNL     1      23.738   4.673  53.398  1.00  0.00     0.165 C 
HETATM    2  N1  UNL     1      23.036   5.236  52.242  1.00  0.00    -0.228 N 
HETATM    3  C2  UNL     1      22.821   4.368  51.140  1.00  0.00     0.711 C 
HETATM    4  N2  UNL     1      23.276   3.241  50.884  1.00  0.00    -0.064 NA
HETATM    5  C3  UNL     1      24.146   2.382  51.521  1.00  0.00     0.086 A 
HETATM    6  C4  UNL     1      25.462   2.807  51.599  1.00  0.00     0.069 A 
HETATM    7  C5  UNL     1      26.465   2.074  52.203  1.00  0.00     0.070 A 
HETATM    8  C7  UNL     1      26.105   0.844  52.757  1.00  0.00     0.037 A 
HETATM    9  C8  UNL     1      24.796   0.382  52.701  1.00  0.00     0.014 A 
HETATM   10  C9  UNL     1      23.845   1.166  52.081  1.00  0.00    -0.007 A 
HETATM   11  C10 UNL     1      22.431   0.663  52.019  1.00  0.00     0.215 C 
HETATM   12  N3  UNL     1      21.946   1.082  50.733  1.00  0.00    -0.181 NA
HETATM   13  N4  UNL     1      20.978   1.859  50.695  1.00  0.00    -0.119 NA
HETATM   14  S1  UNL     1      20.374   2.381  49.183  1.00  0.00     0.017 SA
HETATM   15  C11 UNL     1      21.376   3.697  48.442  1.00  0.00     0.183 A 
HETATM   16  C12 UNL     1      20.860   3.894  46.879  1.00  0.00     0.039 A 
HETATM   17  C13 UNL     1      21.692   3.845  45.675  1.00  0.00    -0.011 A 
HETATM   18  C14 UNL     1      22.270   4.277  46.809  1.00  0.00    -0.001 A 
HETATM   19  C15 UNL     1      21.052   4.192  47.709  1.00  0.00     0.077 A 
HETATM   20  C16 UNL     1      19.595   3.792  47.628  1.00  0.00     0.055 A 
HETATM   21  C17 UNL     1      19.572   3.463  46.332  1.00  0.00    -0.027 A 
HETATM   22  N5  UNL     1      21.442   4.917  48.980  1.00  0.00    -0.184 NA
HETATM   23  N6  UNL     1      21.923   5.040  50.284  1.00  0.00    -0.148 N 
HETATM   24  H4  UNL     1      22.736   6.254  52.304  1.00  0.00     0.177 HD
HETATM   25  H18 UNL     1      21.287   5.845  50.231  1.00  0.00     0.199 HD
ENDROOT
BRANCH   7  26
HETATM   26  O1  UNL     1      27.789   2.490  52.286  1.00  0.00    -0.356 OA
HETATM   27  C6  UNL     1      28.561   2.337  53.464  1.00  0.00     0.210 C 
ENDBRANCH   7  26
TORSDOF 1
ENDMDL
MODEL 8
REMARK VINA RESULT:      -7.3      7.176     10.573
REMARK  1 active torsions:
REMARK  status: ('A' for Active; 'I' for Inactive)
REMARK       I    between atoms: N1_2  and  C2_3 
REMARK    1  A    between atoms: C5_7  and  O1_8 
ROOT
HETATM    1  C1  UNL     1      27.347   9.954  49.702  1.00  0.00     0.165 C 
HETATM    2  N1  UNL     1      28.635   9.364  50.071  1.00  0.00    -0.228 N 
HETATM    3  C2  UNL     1      29.271   8.554  49.094  1.00  0.00     0.711 C 
HETATM    4  N2  UNL     1      28.856   8.091  48.018  1.00  0.00    -0.064 NA
HETATM    5  C3  UNL     1      27.660   8.153  47.336  1.00  0.00     0.086 A 
HETATM    6  C4  UNL     1      26.592   7.505  47.933  1.00  0.00     0.069 A 
HETATM    7  C5  UNL     1      25.323   7.468  47.390  1.00  0.00     0.070 A 
HETATM    8  C7  UNL     1      25.135   8.128  46.174  1.00  0.00     0.037 A 
HETATM    9  C8  UNL     1      26.180   8.789  45.542  1.00  0.00     0.014 A 
HETATM   10  C9  UNL     1      27.423   8.786  46.141  1.00  0.00    -0.007 A 
HETATM   11  C10 UNL     1      28.552   9.499  45.455  1.00  0.00     0.215 C 
HETATM   12  N3  UNL     1      29.709   8.683  45.700  1.00  0.00    -0.181 NA
HETATM   13  N4  UNL     1      30.652   9.177  46.339  1.00  0.00    -0.119 NA
HETATM   14  S1  UNL     1      32.044   8.234  46.651  1.00  0.00     0.017 SA
HETATM   15  C11 UNL     1      31.813   7.069  48.020  1.00  0.00     0.183 A 
HETATM   16  C12 UNL     1      33.110   6.037  48.018  1.00  0.00     0.039 A 
HETATM   17  C13 UNL     1      33.057   4.574  47.978  1.00  0.00    -0.011 A 
HETATM   18  C14 UNL     1      32.035   5.213  48.574  1.00  0.00    -0.001 A 
HETATM   19  C15 UNL     1      32.551   6.630  48.406  1.00  0.00     0.077 A 
HETATM   20  C16 UNL     1      33.742   7.352  47.815  1.00  0.00     0.055 A 
HETATM   21  C17 UNL     1      34.405   6.276  47.379  1.00  0.00    -0.027 A 
HETATM   22  N5  UNL     1      31.658   7.487  49.279  1.00  0.00    -0.184 NA
HETATM   23  N6  UNL     1      30.579   8.322  49.571  1.00  0.00    -0.148 N 
HETATM   24  H4  UNL     1      29.008   9.580  51.043  1.00  0.00     0.177 HD
HETATM   25  H18 UNL     1      31.259   8.623  50.279  1.00  0.00     0.199 HD
ENDROOT
BRANCH   7  26
HETATM   26  O1  UNL     1      24.243   6.820  47.979  1.00  0.00    -0.356 OA
HETATM   27  C6  UNL     1      24.396   5.662  48.779  1.00  0.00     0.210 C 
ENDBRANCH   7  26
TORSDOF 1
ENDMDL
MODEL 9
REMARK VINA RESULT:      -7.2      2.972      7.006
REMARK  1 active torsions:
REMARK  status: ('A' for Active; 'I' for Inactive)
REMARK       I    between atoms: N1_2  and  C2_3 
REMARK    1  A    between atoms: C5_7  and  O1_8 
ROOT
HETATM    1  C1  UNL     1      21.965   1.104  49.144  1.00  0.00     0.165 C 
HETATM    2  N1  UNL     1      22.166   2.441  48.584  1.00  0.00    -0.228 N 
HETATM    3  C2  UNL     1      23.079   3.289  49.264  1.00  0.00     0.711 C 
HETATM    4  N2  UNL     1      23.628   3.180  50.372  1.00  0.00    -0.064 NA
HETATM    5  C3  UNL     1      23.595   2.239  51.379  1.00  0.00     0.086 A 
HETATM    6  C4  UNL     1      22.391   2.124  52.055  1.00  0.00     0.069 A 
HETATM    7  C5  UNL     1      22.180   1.232  53.089  1.00  0.00     0.070 A 
HETATM    8  C7  UNL     1      23.253   0.416  53.451  1.00  0.00     0.037 A 
HETATM    9  C8  UNL     1      24.476   0.501  52.798  1.00  0.00     0.014 A 
HETATM   10  C9  UNL     1      24.618   1.414  51.774  1.00  0.00    -0.007 A 
HETATM   11  C10 UNL     1      25.942   1.505  51.072  1.00  0.00     0.215 C 
HETATM   12  N3  UNL     1      26.118   2.904  50.794  1.00  0.00    -0.181 NA
HETATM   13  N4  UNL     1      26.204   3.261  49.608  1.00  0.00    -0.119 NA
HETATM   14  S1  UNL     1      26.412   4.918  49.239  1.00  0.00     0.017 SA
HETATM   15  C11 UNL     1      24.868   5.861  49.343  1.00  0.00     0.183 A 
HETATM   16  C12 UNL     1      25.260   7.469  49.255  1.00  0.00     0.039 A 
HETATM   17  C13 UNL     1      24.884   8.510  50.214  1.00  0.00    -0.011 A 
HETATM   18  C14 UNL     1      24.042   7.473  50.066  1.00  0.00    -0.001 A 
HETATM   19  C15 UNL     1      24.813   6.732  48.989  1.00  0.00     0.077 A 
HETATM   20  C16 UNL     1      26.092   6.874  48.195  1.00  0.00     0.055 A 
HETATM   21  C17 UNL     1      26.506   8.028  48.728  1.00  0.00    -0.027 A 
HETATM   22  N5  UNL     1      23.865   5.664  48.482  1.00  0.00    -0.184 NA
HETATM   23  N6  UNL     1      23.294   4.393  48.411  1.00  0.00    -0.148 N 
HETATM   24  H4  UNL     1      21.615   2.689  47.709  1.00  0.00     0.177 HD
HETATM   25  H18 UNL     1      23.139   4.733  47.454  1.00  0.00     0.199 HD
ENDROOT
BRANCH   7  26
HETATM   26  O1  UNL     1      20.977   1.108  53.775  1.00  0.00    -0.356 OA
HETATM   27  C6  UNL     1      20.625  -0.064  54.487  1.00  0.00     0.210 C 
ENDBRANCH   7  26
TORSDOF 1
ENDMDL
