MODEL 1
REMARK VINA RESULT:      -9.1      0.000      0.000
REMARK  8 active torsions:
REMARK  status: ('A' for Active; 'I' for Inactive)
REMARK    1  A    between atoms: O1_2  and  C2_3 
REMARK    2  A    between atoms: C8_11  and  N3_12 
REMARK    3  A    between atoms: N3_12  and  C9_13 
REMARK    4  A    between atoms: C17_23  and  N4_24 
REMARK       I    between atoms: N4_24  and  C18_25 
REMARK    5  A    between atoms: C18_25  and  C19_27 
REMARK    6  A    between atoms: C19_27  and  C20_28 
REMARK    7  A    between atoms: C20_28  and  C21_29 
REMARK    8  A    between atoms: C21_29  and  N5_30 
ROOT
HETATM    1  C2  UNL     1      22.908   2.824  49.146  1.00  0.00     0.097 A 
HETATM    2  C3  UNL     1      21.891   1.977  49.599  1.00  0.00     0.071 A 
HETATM    3  C4  UNL     1      22.061   1.306  50.792  1.00  0.00     0.071 A 
HETATM    4  N1  UNL     1      21.059   0.484  51.220  1.00  0.00    -0.259 NA
HETATM    5  C5  UNL     1      21.135  -0.211  52.371  1.00  0.00     0.142 A 
HETATM    6  C6  UNL     1      22.280  -0.070  53.128  1.00  0.00     0.089 A 
HETATM    7  C7  UNL     1      22.374  -0.816  54.374  1.00  0.00     0.103 C 
HETATM    8  N2  UNL     1      22.450  -1.399  55.374  1.00  0.00    -0.191 NA
HETATM    9  C8  UNL     1      23.337   0.737  52.771  1.00  0.00     0.067 A 
HETATM   10  C15 UNL     1      23.194   1.429  51.567  1.00  0.00     0.023 A 
HETATM   11  C16 UNL     1      24.211   2.264  51.132  1.00  0.00     0.048 A 
HETATM   12  C17 UNL     1      24.052   2.944  49.934  1.00  0.00     0.069 A 
ENDROOT
BRANCH   9  13
HETATM   13  N3  UNL     1      24.500   0.880  53.540  1.00  0.00    -0.354 N 
HETATM   14  H6  UNL     1      24.158   1.506  54.282  1.00  0.00     0.166 HD
BRANCH  13  15
HETATM   15  C9  UNL     1      25.831   0.385  53.468  1.00  0.00     0.034 A 
HETATM   16  C10 UNL     1      26.025  -0.855  52.896  1.00  0.00     0.032 A 
HETATM   17  C11 UNL     1      27.330  -1.285  52.853  1.00  0.00     0.046 A 
HETATM   18  C12 UNL     1      28.406  -0.556  53.336  1.00  0.00     0.138 A 
HETATM   19  F1  UNL     1      29.655  -1.096  53.233  1.00  0.00    -0.204 F 
HETATM   20  C13 UNL     1      28.149   0.673  53.895  1.00  0.00     0.074 A 
HETATM   21 CL1  UNL     1      29.524   1.580  54.503  1.00  0.00    -0.081 Cl
HETATM   22  C14 UNL     1      26.846   1.173  53.974  1.00  0.00     0.056 A 
ENDBRANCH  13  15
ENDBRANCH   9  13
BRANCH  12  23
HETATM   23  N4  UNL     1      25.073   3.823  49.433  1.00  0.00    -0.325 N 
HETATM   24  C18 UNL     1      26.477   3.589  49.552  1.00  0.00     0.222 C 
HETATM   25  O2  UNL     1      26.889   2.551  50.129  1.00  0.00    -0.273 OA
HETATM   26  H11 UNL     1      24.571   4.625  48.989  1.00  0.00     0.169 HD
BRANCH  24  27
HETATM   27  C19 UNL     1      27.229   4.690  48.929  1.00  0.00     0.105 C 
BRANCH  27  28
HETATM   28  C20 UNL     1      26.342   5.898  48.716  1.00  0.00     0.039 C 
BRANCH  28  29
HETATM   29  C21 UNL     1      27.176   7.163  48.856  1.00  0.00     0.271 C 
BRANCH  29  30
HETATM   30  N5  UNL     1      26.337   8.190  49.432  1.00  0.00     0.080 N 
HETATM   31  C22 UNL     1      25.419   7.554  50.375  1.00  0.00     0.309 C 
HETATM   32  C23 UNL     1      27.184   9.084  50.189  1.00  0.00     0.309 C 
ENDBRANCH  29  30
ENDBRANCH  28  29
ENDBRANCH  27  28
ENDBRANCH  24  27
ENDBRANCH  12  23
BRANCH   1  33
HETATM   33  O1  UNL     1      22.792   3.514  47.968  1.00  0.00    -0.354 OA
HETATM   34  C1  UNL     1      21.850   3.097  47.013  1.00  0.00     0.210 C 
ENDBRANCH   1  33
TORSDOF 8
ENDMDL
MODEL 2
REMARK VINA RESULT:      -9.0      1.642      2.108
REMARK  8 active torsions:
REMARK  status: ('A' for Active; 'I' for Inactive)
REMARK    1  A    between atoms: O1_2  and  C2_3 
REMARK    2  A    between atoms: C8_11  and  N3_12 
REMARK    3  A    between atoms: N3_12  and  C9_13 
REMARK    4  A    between atoms: C17_23  and  N4_24 
REMARK       I    between atoms: N4_24  and  C18_25 
REMARK    5  A    between atoms: C18_25  and  C19_27 
REMARK    6  A    between atoms: C19_27  and  C20_28 
REMARK    7  A    between atoms: C20_28  and  C21_29 
REMARK    8  A    between atoms: C21_29  and  N5_30 
ROOT
HETATM    1  C2  UNL     1      23.005   2.859  49.336  1.00  0.00     0.097 A 
HETATM    2  C3  UNL     1      22.143   1.850  49.778  1.00  0.00     0.071 A 
HETATM    3  C4  UNL     1      22.425   1.200  50.961  1.00  0.00     0.071 A 
HETATM    4  N1  UNL     1      21.574   0.218  51.378  1.00  0.00    -0.259 NA
HETATM    5  C5  UNL     1      21.767  -0.472  52.520  1.00  0.00     0.142 A 
HETATM    6  C6  UNL     1      22.876  -0.153  53.277  1.00  0.00     0.089 A 
HETATM    7  C7  UNL     1      23.096  -0.891  54.512  1.00  0.00     0.103 C 
HETATM    8  N2  UNL     1      23.270  -1.468  55.504  1.00  0.00    -0.191 NA
HETATM    9  C8  UNL     1      23.784   0.822  52.931  1.00  0.00     0.067 A 
HETATM   10  C15 UNL     1      23.525   1.497  51.737  1.00  0.00     0.023 A 
HETATM   11  C16 UNL     1      24.388   2.494  51.313  1.00  0.00     0.048 A 
HETATM   12  C17 UNL     1      24.115   3.156  50.125  1.00  0.00     0.069 A 
ENDROOT
BRANCH   9  13
HETATM   13  N3  UNL     1      24.909   1.144  53.701  1.00  0.00    -0.354 N 
HETATM   14  H6  UNL     1      24.472   1.700  54.449  1.00  0.00     0.166 HD
BRANCH  13  15
HETATM   15  C9  UNL     1      26.303   0.872  53.624  1.00  0.00     0.034 A 
HETATM   16  C10 UNL     1      27.173   1.935  53.742  1.00  0.00     0.032 A 
HETATM   17  C11 UNL     1      28.507   1.615  53.659  1.00  0.00     0.046 A 
HETATM   18  C12 UNL     1      28.989   0.329  53.472  1.00  0.00     0.138 A 
HETATM   19  F1  UNL     1      30.339   0.144  53.407  1.00  0.00    -0.204 F 
HETATM   20  C13 UNL     1      28.072  -0.690  53.361  1.00  0.00     0.074 A 
HETATM   21 CL1  UNL     1      28.701  -2.312  53.123  1.00  0.00    -0.081 Cl
HETATM   22  C14 UNL     1      26.700  -0.438  53.435  1.00  0.00     0.056 A 
ENDBRANCH  13  15
ENDBRANCH   9  13
BRANCH  12  23
HETATM   23  N4  UNL     1      24.975   4.197  49.636  1.00  0.00    -0.325 N 
HETATM   24  C18 UNL     1      26.360   4.029  49.323  1.00  0.00     0.222 C 
HETATM   25  O2  UNL     1      26.899   2.904  49.472  1.00  0.00    -0.273 OA
HETATM   26  H11 UNL     1      24.381   5.055  49.569  1.00  0.00     0.169 HD
BRANCH  24  27
HETATM   27  C19 UNL     1      26.930   5.301  48.850  1.00  0.00     0.105 C 
BRANCH  27  28
HETATM   28  C20 UNL     1      28.378   5.127  48.445  1.00  0.00     0.039 C 
BRANCH  28  29
HETATM   29  C21 UNL     1      28.953   6.480  48.046  1.00  0.00     0.271 C 
BRANCH  29  30
HETATM   30  N5  UNL     1      30.311   6.548  48.534  1.00  0.00     0.080 N 
HETATM   31  C22 UNL     1      31.110   5.570  47.799  1.00  0.00     0.309 C 
HETATM   32  C23 UNL     1      30.833   7.859  48.213  1.00  0.00     0.309 C 
ENDBRANCH  29  30
ENDBRANCH  28  29
ENDBRANCH  27  28
ENDBRANCH  24  27
ENDBRANCH  12  23
BRANCH   1  33
HETATM   33  O1  UNL     1      22.772   3.537  48.168  1.00  0.00    -0.354 OA
HETATM   34  C1  UNL     1      21.612   3.260  47.428  1.00  0.00     0.210 C 
ENDBRANCH   1  33
TORSDOF 8
ENDMDL
MODEL 3
REMARK VINA RESULT:      -8.6      3.723      5.749
REMARK  8 active torsions:
REMARK  status: ('A' for Active; 'I' for Inactive)
REMARK    1  A    between atoms: O1_2  and  C2_3 
REMARK    2  A    between atoms: C8_11  and  N3_12 
REMARK    3  A    between atoms: N3_12  and  C9_13 
REMARK    4  A    between atoms: C17_23  and  N4_24 
REMARK       I    between atoms: N4_24  and  C18_25 
REMARK    5  A    between atoms: C18_25  and  C19_27 
REMARK    6  A    between atoms: C19_27  and  C20_28 
REMARK    7  A    between atoms: C20_28  and  C21_29 
REMARK    8  A    between atoms: C21_29  and  N5_30 
ROOT
HETATM    1  C2  UNL     1      27.253   1.104  52.968  1.00  0.00     0.097 A 
HETATM    2  C3  UNL     1      26.857   0.323  54.058  1.00  0.00     0.071 A 
HETATM    3  C4  UNL     1      25.551  -0.116  54.128  1.00  0.00     0.071 A 
HETATM    4  N1  UNL     1      25.181  -0.878  55.198  1.00  0.00    -0.259 NA
HETATM    5  C5  UNL     1      23.929  -1.351  55.351  1.00  0.00     0.142 A 
HETATM    6  C6  UNL     1      23.005  -1.039  54.376  1.00  0.00     0.089 A 
HETATM    7  C7  UNL     1      21.649  -1.545  54.530  1.00  0.00     0.103 C 
HETATM    8  N2  UNL     1      20.569  -1.954  54.642  1.00  0.00    -0.191 NA
HETATM    9  C8  UNL     1      23.293  -0.278  53.265  1.00  0.00     0.067 A 
HETATM   10  C15 UNL     1      24.608   0.181  53.167  1.00  0.00     0.023 A 
HETATM   11  C16 UNL     1      24.985   0.955  52.081  1.00  0.00     0.048 A 
HETATM   12  C17 UNL     1      26.295   1.401  52.000  1.00  0.00     0.069 A 
ENDROOT
BRANCH   9  13
HETATM   13  N3  UNL     1      22.354   0.038  52.275  1.00  0.00    -0.354 N 
HETATM   14  H6  UNL     1      22.609  -0.646  51.549  1.00  0.00     0.166 HD
BRANCH  13  15
HETATM   15  C9  UNL     1      21.298   0.982  52.142  1.00  0.00     0.034 A 
HETATM   16  C10 UNL     1      21.592   2.311  52.363  1.00  0.00     0.032 A 
HETATM   17  C11 UNL     1      20.536   3.179  52.222  1.00  0.00     0.046 A 
HETATM   18  C12 UNL     1      19.249   2.790  51.883  1.00  0.00     0.138 A 
HETATM   19  F1  UNL     1      18.287   3.751  51.775  1.00  0.00    -0.204 F 
HETATM   20  C13 UNL     1      19.018   1.451  51.676  1.00  0.00     0.074 A 
HETATM   21 CL1  UNL     1      17.382   0.977  51.248  1.00  0.00    -0.081 Cl
HETATM   22  C14 UNL     1      20.045   0.511  51.802  1.00  0.00     0.056 A 
ENDBRANCH  13  15
ENDBRANCH   9  13
BRANCH  12  23
HETATM   23  N4  UNL     1      26.742   2.207  50.897  1.00  0.00    -0.325 N 
HETATM   24  C18 UNL     1      26.100   3.402  50.451  1.00  0.00     0.222 C 
HETATM   25  O2  UNL     1      25.068   3.812  51.040  1.00  0.00    -0.273 OA
HETATM   26  H11 UNL     1      27.597   1.735  50.523  1.00  0.00     0.169 HD
BRANCH  24  27
HETATM   27  C19 UNL     1      26.825   3.968  49.301  1.00  0.00     0.105 C 
BRANCH  27  28
HETATM   28  C20 UNL     1      26.301   5.345  48.955  1.00  0.00     0.039 C 
BRANCH  28  29
HETATM   29  C21 UNL     1      27.460   6.223  48.503  1.00  0.00     0.271 C 
BRANCH  29  30
HETATM   30  N5  UNL     1      27.146   7.590  48.851  1.00  0.00     0.080 N 
HETATM   31  C22 UNL     1      26.492   8.215  47.705  1.00  0.00     0.309 C 
HETATM   32  C23 UNL     1      26.188   7.565  49.934  1.00  0.00     0.309 C 
ENDBRANCH  29  30
ENDBRANCH  28  29
ENDBRANCH  27  28
ENDBRANCH  24  27
ENDBRANCH  12  23
BRANCH   1  33
HETATM   33  O1  UNL     1      28.538   1.567  52.849  1.00  0.00    -0.354 OA
HETATM   34  C1  UNL     1      29.029   2.490  53.786  1.00  0.00     0.210 C 
ENDBRANCH   1  33
TORSDOF 8
ENDMDL
MODEL 4
REMARK VINA RESULT:      -8.3      3.640      6.149
REMARK  8 active torsions:
REMARK  status: ('A' for Active; 'I' for Inactive)
REMARK    1  A    between atoms: O1_2  and  C2_3 
REMARK    2  A    between atoms: C8_11  and  N3_12 
REMARK    3  A    between atoms: N3_12  and  C9_13 
REMARK    4  A    between atoms: C17_23  and  N4_24 
REMARK       I    between atoms: N4_24  and  C18_25 
REMARK    5  A    between atoms: C18_25  and  C19_27 
REMARK    6  A    between atoms: C19_27  and  C20_28 
REMARK    7  A    between atoms: C20_28  and  C21_29 
REMARK    8  A    between atoms: C21_29  and  N5_30 
ROOT
HETATM    1  C2  UNL     1      19.709  -0.617  53.156  1.00  0.00     0.097 A 
HETATM    2  C3  UNL     1      20.448  -1.206  54.187  1.00  0.00     0.071 A 
HETATM    3  C4  UNL     1      21.805  -0.972  54.257  1.00  0.00     0.071 A 
HETATM    4  N1  UNL     1      22.510  -1.555  55.269  1.00  0.00    -0.259 NA
HETATM    5  C5  UNL     1      23.838  -1.384  55.419  1.00  0.00     0.142 A 
HETATM    6  C6  UNL     1      24.486  -0.586  54.498  1.00  0.00     0.089 A 
HETATM    7  C7  UNL     1      25.921  -0.393  54.648  1.00  0.00     0.103 C 
HETATM    8  N2  UNL     1      27.063  -0.227  54.769  1.00  0.00    -0.191 NA
HETATM    9  C8  UNL     1      23.852   0.039  53.448  1.00  0.00     0.067 A 
HETATM   10  C15 UNL     1      22.477  -0.179  53.351  1.00  0.00     0.023 A 
HETATM   11  C16 UNL     1      21.760   0.411  52.323  1.00  0.00     0.048 A 
HETATM   12  C17 UNL     1      20.394   0.184  52.243  1.00  0.00     0.069 A 
ENDROOT
BRANCH   9  13
HETATM   13  N3  UNL     1      24.511   0.850  52.514  1.00  0.00    -0.354 N 
HETATM   14  H6  UNL     1      25.153   0.166  52.092  1.00  0.00     0.166 HD
BRANCH  13  15
HETATM   15  C9  UNL     1      24.441   2.218  52.131  1.00  0.00     0.034 A 
HETATM   16  C10 UNL     1      23.760   3.084  52.958  1.00  0.00     0.032 A 
HETATM   17  C11 UNL     1      23.723   4.392  52.540  1.00  0.00     0.046 A 
HETATM   18  C12 UNL     1      24.317   4.853  51.375  1.00  0.00     0.138 A 
HETATM   19  F1  UNL     1      24.208   6.179  51.071  1.00  0.00    -0.204 F 
HETATM   20  C13 UNL     1      24.983   3.942  50.590  1.00  0.00     0.074 A 
HETATM   21 CL1  UNL     1      25.727   4.544  49.118  1.00  0.00    -0.081 Cl
HETATM   22  C14 UNL     1      25.059   2.595  50.954  1.00  0.00     0.056 A 
ENDBRANCH  13  15
ENDBRANCH   9  13
BRANCH  12  23
HETATM   23  N4  UNL     1      19.600   0.770  51.199  1.00  0.00    -0.325 N 
HETATM   24  C18 UNL     1      19.046   2.087  51.240  1.00  0.00     0.222 C 
HETATM   25  O2  UNL     1      19.247   2.816  52.243  1.00  0.00    -0.273 OA
HETATM   26  H11 UNL     1      19.529   0.045  50.449  1.00  0.00     0.169 HD
BRANCH  24  27
HETATM   27  C19 UNL     1      18.291   2.357  50.005  1.00  0.00     0.105 C 
BRANCH  27  28
HETATM   28  C20 UNL     1      19.209   2.371  48.802  1.00  0.00     0.039 C 
BRANCH  28  29
HETATM   29  C21 UNL     1      20.116   3.592  48.878  1.00  0.00     0.271 C 
BRANCH  29  30
HETATM   30  N5  UNL     1      21.485   3.131  48.897  1.00  0.00     0.080 N 
HETATM   31  C22 UNL     1      21.523   1.789  48.321  1.00  0.00     0.309 C 
HETATM   32  C23 UNL     1      22.258   3.994  48.032  1.00  0.00     0.309 C 
ENDBRANCH  29  30
ENDBRANCH  28  29
ENDBRANCH  27  28
ENDBRANCH  24  27
ENDBRANCH  12  23
BRANCH   1  33
HETATM   33  O1  UNL     1      18.358  -0.816  53.039  1.00  0.00    -0.354 OA
HETATM   34  C1  UNL     1      17.796  -2.020  53.493  1.00  0.00     0.210 C 
ENDBRANCH   1  33
TORSDOF 8
ENDMDL
MODEL 5
REMARK VINA RESULT:      -8.2      3.453      5.591
REMARK  8 active torsions:
REMARK  status: ('A' for Active; 'I' for Inactive)
REMARK    1  A    between atoms: O1_2  and  C2_3 
REMARK    2  A    between atoms: C8_11  and  N3_12 
REMARK    3  A    between atoms: N3_12  and  C9_13 
REMARK    4  A    between atoms: C17_23  and  N4_24 
REMARK       I    between atoms: N4_24  and  C18_25 
REMARK    5  A    between atoms: C18_25  and  C19_27 
REMARK    6  A    between atoms: C19_27  and  C20_28 
REMARK    7  A    between atoms: C20_28  and  C21_29 
REMARK    8  A    between atoms: C21_29  and  N5_30 
ROOT
HETATM    1  C2  UNL     1      26.652   1.923  52.424  1.00  0.00     0.097 A 
HETATM    2  C3  UNL     1      26.201   0.856  53.207  1.00  0.00     0.071 A 
HETATM    3  C4  UNL     1      24.851   0.576  53.245  1.00  0.00     0.071 A 
HETATM    4  N1  UNL     1      24.428  -0.469  54.014  1.00  0.00    -0.259 NA
HETATM    5  C5  UNL     1      23.130  -0.817  54.113  1.00  0.00     0.142 A 
HETATM    6  C6  UNL     1      22.214  -0.071  53.400  1.00  0.00     0.089 A 
HETATM    7  C7  UNL     1      20.809  -0.436  53.499  1.00  0.00     0.103 C 
HETATM    8  N2  UNL     1      19.688  -0.730  53.565  1.00  0.00    -0.191 NA
HETATM    9  C8  UNL     1      22.554   0.998  52.601  1.00  0.00     0.067 A 
HETATM   10  C15 UNL     1      23.914   1.305  52.543  1.00  0.00     0.023 A 
HETATM   11  C16 UNL     1      24.345   2.366  51.763  1.00  0.00     0.048 A 
HETATM   12  C17 UNL     1      25.700   2.656  51.716  1.00  0.00     0.069 A 
ENDROOT
BRANCH   9  13
HETATM   13  N3  UNL     1      21.622   1.755  51.878  1.00  0.00    -0.354 N 
HETATM   14  H6  UNL     1      20.988   2.045  52.635  1.00  0.00     0.166 HD
BRANCH  13  15
HETATM   15  C9  UNL     1      21.451   2.117  50.514  1.00  0.00     0.034 A 
HETATM   16  C10 UNL     1      21.685   1.152  49.557  1.00  0.00     0.032 A 
HETATM   17  C11 UNL     1      21.505   1.556  48.256  1.00  0.00     0.046 A 
HETATM   18  C12 UNL     1      21.115   2.834  47.886  1.00  0.00     0.138 A 
HETATM   19  F1  UNL     1      20.971   3.109  46.557  1.00  0.00    -0.204 F 
HETATM   20  C13 UNL     1      20.896   3.753  48.884  1.00  0.00     0.074 A 
HETATM   21 CL1  UNL     1      20.403   5.366  48.395  1.00  0.00    -0.081 Cl
HETATM   22  C14 UNL     1      21.061   3.412  50.229  1.00  0.00     0.056 A 
ENDBRANCH  13  15
ENDBRANCH   9  13
BRANCH  12  23
HETATM   23  N4  UNL     1      26.203   3.745  50.925  1.00  0.00    -0.325 N 
HETATM   24  C18 UNL     1      25.666   4.151  49.665  1.00  0.00     0.222 C 
HETATM   25  O2  UNL     1      24.681   3.538  49.181  1.00  0.00    -0.273 OA
HETATM   26  H11 UNL     1      27.009   4.143  51.461  1.00  0.00     0.169 HD
BRANCH  24  27
HETATM   27  C19 UNL     1      26.425   5.296  49.136  1.00  0.00     0.105 C 
BRANCH  27  28
HETATM   28  C20 UNL     1      27.781   4.858  48.627  1.00  0.00     0.039 C 
BRANCH  28  29
HETATM   29  C21 UNL     1      28.526   6.068  48.080  1.00  0.00     0.271 C 
BRANCH  29  30
HETATM   30  N5  UNL     1      29.863   6.054  48.629  1.00  0.00     0.080 N 
HETATM   31  C22 UNL     1      30.718   5.283  47.729  1.00  0.00     0.309 C 
HETATM   32  C23 UNL     1      30.356   7.413  48.633  1.00  0.00     0.309 C 
ENDBRANCH  29  30
ENDBRANCH  28  29
ENDBRANCH  27  28
ENDBRANCH  24  27
ENDBRANCH  12  23
BRANCH   1  33
HETATM   33  O1  UNL     1      27.982   2.244  52.350  1.00  0.00    -0.354 OA
HETATM   34  C1  UNL     1      28.717   2.418  53.534  1.00  0.00     0.210 C 
ENDBRANCH   1  33
TORSDOF 8
ENDMDL
MODEL 6
REMARK VINA RESULT:      -8.1      2.280      2.761
REMARK  8 active torsions:
REMARK  status: ('A' for Active; 'I' for Inactive)
REMARK    1  A    between atoms: O1_2  and  C2_3 
REMARK    2  A    between atoms: C8_11  and  N3_12 
REMARK    3  A    between atoms: N3_12  and  C9_13 
REMARK    4  A    between atoms: C17_23  and  N4_24 
REMARK       I    between atoms: N4_24  and  C18_25 
REMARK    5  A    between atoms: C18_25  and  C19_27 
REMARK    6  A    between atoms: C19_27  and  C20_28 
REMARK    7  A    between atoms: C20_28  and  C21_29 
REMARK    8  A    between atoms: C21_29  and  N5_30 
ROOT
HETATM    1  C2  UNL     1      23.023   5.842  51.256  1.00  0.00     0.097 A 
HETATM    2  C3  UNL     1      21.952   5.148  51.829  1.00  0.00     0.071 A 
HETATM    3  C4  UNL     1      22.081   3.796  52.067  1.00  0.00     0.071 A 
HETATM    4  N1  UNL     1      21.026   3.135  52.627  1.00  0.00    -0.259 NA
HETATM    5  C5  UNL     1      21.060   1.815  52.897  1.00  0.00     0.142 A 
HETATM    6  C6  UNL     1      22.216   1.129  52.584  1.00  0.00     0.089 A 
HETATM    7  C7  UNL     1      22.264  -0.297  52.871  1.00  0.00     0.103 C 
HETATM    8  N2  UNL     1      22.313  -1.432  53.107  1.00  0.00    -0.191 NA
HETATM    9  C8  UNL     1      23.324   1.718  52.019  1.00  0.00     0.067 A 
HETATM   10  C15 UNL     1      23.223   3.086  51.765  1.00  0.00     0.023 A 
HETATM   11  C16 UNL     1      24.293   3.759  51.197  1.00  0.00     0.048 A 
HETATM   12  C17 UNL     1      24.176   5.119  50.953  1.00  0.00     0.069 A 
ENDROOT
BRANCH   9  13
HETATM   13  N3  UNL     1      24.498   1.020  51.702  1.00  0.00    -0.354 N 
HETATM   14  H6  UNL     1      24.301   0.756  50.728  1.00  0.00     0.166 HD
BRANCH  13  15
HETATM   15  C9  UNL     1      25.696   0.685  52.392  1.00  0.00     0.034 A 
HETATM   16  C10 UNL     1      25.905  -0.639  52.712  1.00  0.00     0.032 A 
HETATM   17  C11 UNL     1      27.077  -0.906  53.377  1.00  0.00     0.046 A 
HETATM   18  C12 UNL     1      28.013   0.057  53.722  1.00  0.00     0.138 A 
HETATM   19  F1  UNL     1      29.139  -0.339  54.383  1.00  0.00    -0.204 F 
HETATM   20  C13 UNL     1      27.749   1.361  53.376  1.00  0.00     0.074 A 
HETATM   21 CL1  UNL     1      28.945   2.567  53.822  1.00  0.00    -0.081 Cl
HETATM   22  C14 UNL     1      26.576   1.706  52.699  1.00  0.00     0.056 A 
ENDBRANCH  13  15
ENDBRANCH   9  13
BRANCH  12  23
HETATM   23  N4  UNL     1      25.252   5.868  50.365  1.00  0.00    -0.325 N 
HETATM   24  C18 UNL     1      25.341   6.215  48.982  1.00  0.00     0.222 C 
HETATM   25  O2  UNL     1      24.431   5.859  48.191  1.00  0.00    -0.273 OA
HETATM   26  H11 UNL     1      25.914   6.083  51.145  1.00  0.00     0.169 HD
BRANCH  24  27
HETATM   27  C19 UNL     1      26.572   6.981  48.730  1.00  0.00     0.105 C 
BRANCH  27  28
HETATM   28  C20 UNL     1      27.732   6.057  48.426  1.00  0.00     0.039 C 
BRANCH  28  29
HETATM   29  C21 UNL     1      28.790   6.821  47.643  1.00  0.00     0.271 C 
BRANCH  29  30
HETATM   30  N5  UNL     1      29.691   7.435  48.592  1.00  0.00     0.080 N 
HETATM   31  C22 UNL     1      31.002   6.805  48.451  1.00  0.00     0.309 C 
HETATM   32  C23 UNL     1      29.839   8.826  48.229  1.00  0.00     0.309 C 
ENDBRANCH  29  30
ENDBRANCH  28  29
ENDBRANCH  27  28
ENDBRANCH  24  27
ENDBRANCH  12  23
BRANCH   1  33
HETATM   33  O1  UNL     1      22.948   7.186  50.998  1.00  0.00    -0.354 OA
HETATM   34  C1  UNL     1      21.851   7.692  50.282  1.00  0.00     0.210 C 
ENDBRANCH   1  33
TORSDOF 8
ENDMDL
MODEL 7
REMARK VINA RESULT:      -8.1      3.278      5.379
REMARK  8 active torsions:
REMARK  status: ('A' for Active; 'I' for Inactive)
REMARK    1  A    between atoms: O1_2  and  C2_3 
REMARK    2  A    between atoms: C8_11  and  N3_12 
REMARK    3  A    between atoms: N3_12  and  C9_13 
REMARK    4  A    between atoms: C17_23  and  N4_24 
REMARK       I    between atoms: N4_24  and  C18_25 
REMARK    5  A    between atoms: C18_25  and  C19_27 
REMARK    6  A    between atoms: C19_27  and  C20_28 
REMARK    7  A    between atoms: C20_28  and  C21_29 
REMARK    8  A    between atoms: C21_29  and  N5_30 
ROOT
HETATM    1  C2  UNL     1      26.696   1.793  52.526  1.00  0.00     0.097 A 
HETATM    2  C3  UNL     1      26.204   0.760  53.331  1.00  0.00     0.071 A 
HETATM    3  C4  UNL     1      24.848   0.512  53.347  1.00  0.00     0.071 A 
HETATM    4  N1  UNL     1      24.384  -0.499  54.138  1.00  0.00    -0.259 NA
HETATM    5  C5  UNL     1      23.077  -0.815  54.218  1.00  0.00     0.142 A 
HETATM    6  C6  UNL     1      22.194  -0.071  53.464  1.00  0.00     0.089 A 
HETATM    7  C7  UNL     1      20.779  -0.402  53.542  1.00  0.00     0.103 C 
HETATM    8  N2  UNL     1      19.650  -0.669  53.592  1.00  0.00    -0.191 NA
HETATM    9  C8  UNL     1      22.575   0.965  52.641  1.00  0.00     0.067 A 
HETATM   10  C15 UNL     1      23.943   1.239  52.604  1.00  0.00     0.023 A 
HETATM   11  C16 UNL     1      24.414   2.266  51.801  1.00  0.00     0.048 A 
HETATM   12  C17 UNL     1      25.777   2.525  51.776  1.00  0.00     0.069 A 
ENDROOT
BRANCH   9  13
HETATM   13  N3  UNL     1      21.677   1.719  51.874  1.00  0.00    -0.354 N 
HETATM   14  H6  UNL     1      20.999   1.995  52.597  1.00  0.00     0.166 HD
BRANCH  13  15
HETATM   15  C9  UNL     1      21.577   2.094  50.506  1.00  0.00     0.034 A 
HETATM   16  C10 UNL     1      21.711   1.103  49.557  1.00  0.00     0.032 A 
HETATM   17  C11 UNL     1      21.607   1.521  48.251  1.00  0.00     0.046 A 
HETATM   18  C12 UNL     1      21.381   2.835  47.870  1.00  0.00     0.138 A 
HETATM   19  F1  UNL     1      21.297   3.119  46.539  1.00  0.00    -0.204 F 
HETATM   20  C13 UNL     1      21.256   3.778  48.863  1.00  0.00     0.074 A 
HETATM   21 CL1  UNL     1      20.971   5.436  48.361  1.00  0.00    -0.081 Cl
HETATM   22  C14 UNL     1      21.352   3.425  50.211  1.00  0.00     0.056 A 
ENDBRANCH  13  15
ENDBRANCH   9  13
BRANCH  12  23
HETATM   23  N4  UNL     1      26.322   3.577  50.963  1.00  0.00    -0.325 N 
HETATM   24  C18 UNL     1      25.930   3.851  49.617  1.00  0.00     0.222 C 
HETATM   25  O2  UNL     1      25.047   3.143  49.069  1.00  0.00    -0.273 OA
HETATM   26  H11 UNL     1      27.031   4.063  51.558  1.00  0.00     0.169 HD
BRANCH  24  27
HETATM   27  C19 UNL     1      26.691   4.995  49.090  1.00  0.00     0.105 C 
BRANCH  27  28
HETATM   28  C20 UNL     1      26.034   6.304  49.473  1.00  0.00     0.039 C 
BRANCH  28  29
HETATM   29  C21 UNL     1      24.639   6.359  48.867  1.00  0.00     0.271 C 
BRANCH  29  30
HETATM   30  N5  UNL     1      23.777   7.057  49.793  1.00  0.00     0.080 N 
HETATM   31  C22 UNL     1      24.088   6.595  51.144  1.00  0.00     0.309 C 
HETATM   32  C23 UNL     1      24.105   8.464  49.733  1.00  0.00     0.309 C 
ENDBRANCH  29  30
ENDBRANCH  28  29
ENDBRANCH  27  28
ENDBRANCH  24  27
ENDBRANCH  12  23
BRANCH   1  33
HETATM   33  O1  UNL     1      28.034   2.082  52.472  1.00  0.00    -0.354 OA
HETATM   34  C1  UNL     1      28.710   2.446  53.648  1.00  0.00     0.210 C 
ENDBRANCH   1  33
TORSDOF 8
ENDMDL
MODEL 8
REMARK VINA RESULT:      -7.8      3.761      5.648
REMARK  8 active torsions:
REMARK  status: ('A' for Active; 'I' for Inactive)
REMARK    1  A    between atoms: O1_2  and  C2_3 
REMARK    2  A    between atoms: C8_11  and  N3_12 
REMARK    3  A    between atoms: N3_12  and  C9_13 
REMARK    4  A    between atoms: C17_23  and  N4_24 
REMARK       I    between atoms: N4_24  and  C18_25 
REMARK    5  A    between atoms: C18_25  and  C19_27 
REMARK    6  A    between atoms: C19_27  and  C20_28 
REMARK    7  A    between atoms: C20_28  and  C21_29 
REMARK    8  A    between atoms: C21_29  and  N5_30 
ROOT
HETATM    1  C2  UNL     1      25.138   3.415  50.985  1.00  0.00     0.097 A 
HETATM    2  C3  UNL     1      25.681   2.307  51.645  1.00  0.00     0.071 A 
HETATM    3  C4  UNL     1      24.840   1.469  52.347  1.00  0.00     0.071 A 
HETATM    4  N1  UNL     1      25.385   0.393  52.985  1.00  0.00    -0.259 NA
HETATM    5  C5  UNL     1      24.645  -0.481  53.693  1.00  0.00     0.142 A 
HETATM    6  C6  UNL     1      23.285  -0.256  53.761  1.00  0.00     0.089 A 
HETATM    7  C7  UNL     1      22.473  -1.193  54.524  1.00  0.00     0.103 C 
HETATM    8  N2  UNL     1      21.819  -1.943  55.121  1.00  0.00    -0.191 NA
HETATM    9  C8  UNL     1      22.653   0.802  53.148  1.00  0.00     0.067 A 
HETATM   10  C15 UNL     1      23.479   1.670  52.431  1.00  0.00     0.023 A 
HETATM   11  C16 UNL     1      22.926   2.763  51.783  1.00  0.00     0.048 A 
HETATM   12  C17 UNL     1      23.761   3.613  51.074  1.00  0.00     0.069 A 
ENDROOT
BRANCH   9  13
HETATM   13  N3  UNL     1      21.273   1.030  53.218  1.00  0.00    -0.354 N 
HETATM   14  H6  UNL     1      21.229   1.676  54.017  1.00  0.00     0.166 HD
BRANCH  13  15
HETATM   15  C9  UNL     1      20.134   0.588  52.489  1.00  0.00     0.034 A 
HETATM   16  C10 UNL     1      19.926   1.121  51.235  1.00  0.00     0.032 A 
HETATM   17  C11 UNL     1      18.812   0.660  50.576  1.00  0.00     0.046 A 
HETATM   18  C12 UNL     1      17.932  -0.276  51.098  1.00  0.00     0.138 A 
HETATM   19  F1  UNL     1      16.860  -0.652  50.341  1.00  0.00    -0.204 F 
HETATM   20  C13 UNL     1      18.192  -0.771  52.353  1.00  0.00     0.074 A 
HETATM   21 CL1  UNL     1      17.065  -1.955  52.997  1.00  0.00    -0.081 Cl
HETATM   22  C14 UNL     1      19.306  -0.347  53.081  1.00  0.00     0.056 A 
ENDBRANCH  13  15
ENDBRANCH   9  13
BRANCH  12  23
HETATM   23  N4  UNL     1      23.244   4.762  50.383  1.00  0.00    -0.325 N 
HETATM   24  C18 UNL     1      22.829   4.770  49.016  1.00  0.00     0.222 C 
HETATM   25  O2  UNL     1      22.904   3.715  48.336  1.00  0.00    -0.273 OA
HETATM   26  H11 UNL     1      23.247   5.542  51.078  1.00  0.00     0.169 HD
BRANCH  24  27
HETATM   27  C19 UNL     1      22.355   6.111  48.638  1.00  0.00     0.105 C 
BRANCH  27  28
HETATM   28  C20 UNL     1      23.404   7.160  48.940  1.00  0.00     0.039 C 
BRANCH  28  29
HETATM   29  C21 UNL     1      24.361   7.266  47.761  1.00  0.00     0.271 C 
BRANCH  29  30
HETATM   30  N5  UNL     1      25.707   7.111  48.264  1.00  0.00     0.080 N 
HETATM   31  C22 UNL     1      26.609   7.857  47.390  1.00  0.00     0.309 C 
HETATM   32  C23 UNL     1      25.767   7.724  49.571  1.00  0.00     0.309 C 
ENDBRANCH  29  30
ENDBRANCH  28  29
ENDBRANCH  27  28
ENDBRANCH  24  27
ENDBRANCH  12  23
BRANCH   1  33
HETATM   33  O1  UNL     1      25.928   4.281  50.274  1.00  0.00    -0.354 OA
HETATM   34  C1  UNL     1      26.788   3.777  49.285  1.00  0.00     0.210 C 
ENDBRANCH   1  33
TORSDOF 8
ENDMDL
MODEL 9
REMARK VINA RESULT:      -7.8      3.664      5.772
REMARK  8 active torsions:
REMARK  status: ('A' for Active; 'I' for Inactive)
REMARK    1  A    between atoms: O1_2  and  C2_3 
REMARK    2  A    between atoms: C8_11  and  N3_12 
REMARK    3  A    between atoms: N3_12  and  C9_13 
REMARK    4  A    between atoms: C17_23  and  N4_24 
REMARK       I    between atoms: N4_24  and  C18_25 
REMARK    5  A    between atoms: C18_25  and  C19_27 
REMARK    6  A    between atoms: C19_27  and  C20_28 
REMARK    7  A    between atoms: C20_28  and  C21_29 
REMARK    8  A    between atoms: C21_29  and  N5_30 
ROOT
HETATM    1  C2  UNL     1      25.798   4.190  49.863  1.00  0.00     0.097 A 
HETATM    2  C3  UNL     1      26.693   3.211  50.304  1.00  0.00     0.071 A 
HETATM    3  C4  UNL     1      26.290   2.327  51.282  1.00  0.00     0.071 A 
HETATM    4  N1  UNL     1      27.176   1.377  51.701  1.00  0.00    -0.259 NA
HETATM    5  C5  UNL     1      26.872   0.471  52.650  1.00  0.00     0.142 A 
HETATM    6  C6  UNL     1      25.610   0.528  53.205  1.00  0.00     0.089 A 
HETATM    7  C7  UNL     1      25.269  -0.445  54.232  1.00  0.00     0.103 C 
HETATM    8  N2  UNL     1      24.987  -1.226  55.044  1.00  0.00    -0.191 NA
HETATM    9  C8  UNL     1      24.656   1.451  52.841  1.00  0.00     0.067 A 
HETATM   10  C15 UNL     1      25.036   2.361  51.853  1.00  0.00     0.023 A 
HETATM   11  C16 UNL     1      24.137   3.325  51.427  1.00  0.00     0.048 A 
HETATM   12  C17 UNL     1      24.530   4.220  50.443  1.00  0.00     0.069 A 
ENDROOT
BRANCH   9  13
HETATM   13  N3  UNL     1      23.374   1.508  53.405  1.00  0.00    -0.354 N 
HETATM   14  H6  UNL     1      23.528   2.197  54.153  1.00  0.00     0.166 HD
BRANCH  13  15
HETATM   15  C9  UNL     1      22.125   0.877  53.150  1.00  0.00     0.034 A 
HETATM   16  C10 UNL     1      21.630   0.020  54.110  1.00  0.00     0.032 A 
HETATM   17  C11 UNL     1      20.421  -0.562  53.812  1.00  0.00     0.046 A 
HETATM   18  C12 UNL     1      19.714  -0.331  52.641  1.00  0.00     0.138 A 
HETATM   19  F1  UNL     1      18.522  -0.973  52.466  1.00  0.00    -0.204 F 
HETATM   20  C13 UNL     1      20.259   0.533  51.722  1.00  0.00     0.074 A 
HETATM   21 CL1  UNL     1      19.350   0.812  50.247  1.00  0.00    -0.081 Cl
HETATM   22  C14 UNL     1      21.486   1.160  51.959  1.00  0.00     0.056 A 
ENDBRANCH  13  15
ENDBRANCH   9  13
BRANCH  12  23
HETATM   23  N4  UNL     1      23.641   5.241  49.963  1.00  0.00    -0.325 N 
HETATM   24  C18 UNL     1      23.534   6.553  50.519  1.00  0.00     0.222 C 
HETATM   25  O2  UNL     1      24.253   6.875  51.498  1.00  0.00    -0.273 OA
HETATM   26  H11 UNL     1      23.122   4.818  49.160  1.00  0.00     0.169 HD
BRANCH  24  27
HETATM   27  C19 UNL     1      22.526   7.334  49.783  1.00  0.00     0.105 C 
BRANCH  27  28
HETATM   28  C20 UNL     1      21.125   6.915  50.174  1.00  0.00     0.039 C 
BRANCH  28  29
HETATM   29  C21 UNL     1      20.460   6.225  48.991  1.00  0.00     0.271 C 
BRANCH  29  30
HETATM   30  N5  UNL     1      20.026   4.916  49.425  1.00  0.00     0.080 N 
HETATM   31  C22 UNL     1      18.669   5.037  49.953  1.00  0.00     0.309 C 
HETATM   32  C23 UNL     1      19.961   4.061  48.261  1.00  0.00     0.309 C 
ENDBRANCH  29  30
ENDBRANCH  28  29
ENDBRANCH  27  28
ENDBRANCH  24  27
ENDBRANCH  12  23
BRANCH   1  33
HETATM   33  O1  UNL     1      26.147   5.094  48.893  1.00  0.00    -0.354 OA
HETATM   34  C1  UNL     1      27.500   5.262  48.560  1.00  0.00     0.210 C 
ENDBRANCH   1  33
TORSDOF 8
ENDMDL
