MODEL 1
REMARK VINA RESULT:      -6.7      0.000      0.000
REMARK  7 active torsions:
REMARK  status: ('A' for Active; 'I' for Inactive)
REMARK    1  A    between atoms: C2_2  and  C3_4 
REMARK    2  A    between atoms: C3_4  and  C4_5 
REMARK    3  A    between atoms: C4_5  and  C5_6 
REMARK    4  A    between atoms: C5_6  and  N1_7 
REMARK    5  A    between atoms: N1_7  and  C6_8 
REMARK    6  A    between atoms: C10_14  and  O1_15 
REMARK    7  A    between atoms: C12_17  and  O2_18 
ROOT
HETATM    1  C6  UNL     1      24.431   2.260  51.573  1.00  0.00     0.141 A 
HETATM    2  N2  UNL     1      24.902   3.140  50.646  1.00  0.00    -0.224 NA
HETATM    3  C7  UNL     1      26.229   3.320  50.455  1.00  0.00     0.236 A 
HETATM    4  N3  UNL     1      27.146   2.633  51.179  1.00  0.00    -0.241 NA
HETATM    5  C8  UNL     1      26.712   1.756  52.103  1.00  0.00     0.075 A 
HETATM    6  C9  UNL     1      27.591   1.023  52.864  1.00  0.00     0.072 A 
HETATM    7  C10 UNL     1      27.172   0.114  53.814  1.00  0.00     0.103 A 
HETATM    8  C12 UNL     1      25.805  -0.087  54.027  1.00  0.00     0.102 A 
HETATM    9  C14 UNL     1      24.929   0.653  53.259  1.00  0.00     0.057 A 
HETATM   10  C15 UNL     1      25.369   1.553  52.317  1.00  0.00     0.042 A 
ENDROOT
BRANCH   1  11
HETATM   11  N1  UNL     1      23.025   2.040  51.769  1.00  0.00    -0.349 N 
HETATM   12  H5  UNL     1      22.528   2.350  52.640  1.00  0.00     0.167 HD
BRANCH  11  13
HETATM   13  C5  UNL     1      22.366   1.393  50.733  1.00  0.00     0.102 C 
BRANCH  13  14
HETATM   14  C4  UNL     1      21.428   0.641  51.299  1.00  0.00    -0.006 C 
BRANCH  14  15
HETATM   15  C3  UNL     1      20.686   0.092  52.257  1.00  0.00     0.055 C 
BRANCH  15  16
HETATM   16  C2  UNL     1      21.350  -0.565  53.338  1.00  0.00     0.107 C 
HETATM   17  C1  UNL     1      21.052  -0.174  54.569  1.00  0.00     0.056 C 
HETATM   18  F1  UNL     1      22.248  -1.538  53.167  1.00  0.00    -0.207 F 
ENDBRANCH  15  16
ENDBRANCH  14  15
ENDBRANCH  13  14
ENDBRANCH  11  13
ENDBRANCH   1  11
BRANCH   8  19
HETATM   19  O2  UNL     1      25.590  -1.015  54.999  1.00  0.00    -0.353 OA
HETATM   20  C13 UNL     1      24.384  -1.302  55.649  1.00  0.00     0.210 C 
ENDBRANCH   8  19
BRANCH   7  21
HETATM   21  O1  UNL     1      28.190  -0.541  54.490  1.00  0.00    -0.353 OA
HETATM   22  C11 UNL     1      29.472  -0.623  53.977  1.00  0.00     0.210 C 
ENDBRANCH   7  21
TORSDOF 7
ENDMDL
MODEL 2
REMARK VINA RESULT:      -6.5      1.916      2.268
REMARK  7 active torsions:
REMARK  status: ('A' for Active; 'I' for Inactive)
REMARK    1  A    between atoms: C2_2  and  C3_4 
REMARK    2  A    between atoms: C3_4  and  C4_5 
REMARK    3  A    between atoms: C4_5  and  C5_6 
REMARK    4  A    between atoms: C5_6  and  N1_7 
REMARK    5  A    between atoms: N1_7  and  C6_8 
REMARK    6  A    between atoms: C10_14  and  O1_15 
REMARK    7  A    between atoms: C12_17  and  O2_18 
ROOT
HETATM    1  C6  UNL     1      22.752   1.702  51.897  1.00  0.00     0.141 A 
HETATM    2  N2  UNL     1      22.292   2.980  51.796  1.00  0.00    -0.224 NA
HETATM    3  C7  UNL     1      22.957   4.015  52.359  1.00  0.00     0.236 A 
HETATM    4  N3  UNL     1      24.109   3.824  53.049  1.00  0.00    -0.241 NA
HETATM    5  C8  UNL     1      24.588   2.571  53.166  1.00  0.00     0.075 A 
HETATM    6  C9  UNL     1      25.754   2.312  53.846  1.00  0.00     0.072 A 
HETATM    7  C10 UNL     1      26.270   1.039  53.976  1.00  0.00     0.103 A 
HETATM    8  C12 UNL     1      25.598  -0.044  53.401  1.00  0.00     0.102 A 
HETATM    9  C14 UNL     1      24.429   0.225  52.721  1.00  0.00     0.057 A 
HETATM   10  C15 UNL     1      23.933   1.502  52.603  1.00  0.00     0.042 A 
ENDROOT
BRANCH   1  11
HETATM   11  N1  UNL     1      22.070   0.597  51.283  1.00  0.00    -0.349 N 
HETATM   12  H5  UNL     1      22.585  -0.233  50.900  1.00  0.00     0.167 HD
BRANCH  11  13
HETATM   13  C5  UNL     1      20.686   0.698  51.229  1.00  0.00     0.102 C 
BRANCH  13  14
HETATM   14  C4  UNL     1      20.230   0.182  52.366  1.00  0.00    -0.006 C 
BRANCH  14  15
HETATM   15  C3  UNL     1      20.088  -0.677  53.372  1.00  0.00     0.055 C 
BRANCH  15  16
HETATM   16  C2  UNL     1      21.024  -0.619  54.450  1.00  0.00     0.107 C 
HETATM   17  C1  UNL     1      21.859  -1.640  54.593  1.00  0.00     0.056 C 
HETATM   18  F1  UNL     1      21.093   0.398  55.311  1.00  0.00    -0.207 F 
ENDBRANCH  15  16
ENDBRANCH  14  15
ENDBRANCH  13  14
ENDBRANCH  11  13
ENDBRANCH   1  11
BRANCH   8  19
HETATM   19  O2  UNL     1      26.257  -1.212  53.637  1.00  0.00    -0.353 OA
HETATM   20  C13 UNL     1      26.981  -1.980  52.717  1.00  0.00     0.210 C 
ENDBRANCH   8  19
BRANCH   7  21
HETATM   21  O1  UNL     1      27.455   0.955  54.691  1.00  0.00    -0.353 OA
HETATM   22  C11 UNL     1      28.685   1.160  54.092  1.00  0.00     0.210 C 
ENDBRANCH   7  21
TORSDOF 7
ENDMDL
MODEL 3
REMARK VINA RESULT:      -6.5      2.865      4.740
REMARK  7 active torsions:
REMARK  status: ('A' for Active; 'I' for Inactive)
REMARK    1  A    between atoms: C2_2  and  C3_4 
REMARK    2  A    between atoms: C3_4  and  C4_5 
REMARK    3  A    between atoms: C4_5  and  C5_6 
REMARK    4  A    between atoms: C5_6  and  N1_7 
REMARK    5  A    between atoms: N1_7  and  C6_8 
REMARK    6  A    between atoms: C10_14  and  O1_15 
REMARK    7  A    between atoms: C12_17  and  O2_18 
ROOT
HETATM    1  C6  UNL     1      23.381   3.372  52.546  1.00  0.00     0.141 A 
HETATM    2  N2  UNL     1      22.124   3.078  52.109  1.00  0.00    -0.224 NA
HETATM    3  C7  UNL     1      21.689   1.800  52.022  1.00  0.00     0.236 A 
HETATM    4  N3  UNL     1      22.486   0.757  52.365  1.00  0.00    -0.241 NA
HETATM    5  C8  UNL     1      23.732   1.016  52.801  1.00  0.00     0.075 A 
HETATM    6  C9  UNL     1      24.586   0.004  53.172  1.00  0.00     0.072 A 
HETATM    7  C10 UNL     1      25.867   0.242  53.627  1.00  0.00     0.103 A 
HETATM    8  C12 UNL     1      26.335   1.556  53.724  1.00  0.00     0.102 A 
HETATM    9  C14 UNL     1      25.472   2.566  53.351  1.00  0.00     0.057 A 
HETATM   10  C15 UNL     1      24.200   2.306  52.900  1.00  0.00     0.042 A 
ENDROOT
BRANCH   1  11
HETATM   11  N1  UNL     1      23.847   4.725  52.668  1.00  0.00    -0.349 N 
HETATM   12  H5  UNL     1      24.331   5.073  53.531  1.00  0.00     0.167 HD
BRANCH  11  13
HETATM   13  C5  UNL     1      23.617   5.542  51.569  1.00  0.00     0.102 C 
BRANCH  13  14
HETATM   14  C4  UNL     1      24.471   5.152  50.628  1.00  0.00    -0.006 C 
BRANCH  14  15
HETATM   15  C3  UNL     1      24.926   4.827  49.421  1.00  0.00     0.055 C 
BRANCH  15  16
HETATM   16  C2  UNL     1      26.241   4.277  49.317  1.00  0.00     0.107 C 
HETATM   17  C1  UNL     1      26.490   3.154  49.978  1.00  0.00     0.056 C 
HETATM   18  F1  UNL     1      27.218   4.836  48.600  1.00  0.00    -0.207 F 
ENDBRANCH  15  16
ENDBRANCH  14  15
ENDBRANCH  13  14
ENDBRANCH  11  13
ENDBRANCH   1  11
BRANCH   8  19
HETATM   19  O2  UNL     1      27.615   1.588  54.189  1.00  0.00    -0.353 OA
HETATM   20  C13 UNL     1      28.700   2.283  53.643  1.00  0.00     0.210 C 
ENDBRANCH   8  19
BRANCH   7  21
HETATM   21  O1  UNL     1      26.592  -0.891  53.960  1.00  0.00    -0.353 OA
HETATM   22  C11 UNL     1      27.177  -1.693  52.995  1.00  0.00     0.210 C 
ENDBRANCH   7  21
TORSDOF 7
ENDMDL
MODEL 4
REMARK VINA RESULT:      -6.4      3.337      6.120
REMARK  7 active torsions:
REMARK  status: ('A' for Active; 'I' for Inactive)
REMARK    1  A    between atoms: C2_2  and  C3_4 
REMARK    2  A    between atoms: C3_4  and  C4_5 
REMARK    3  A    between atoms: C4_5  and  C5_6 
REMARK    4  A    between atoms: C5_6  and  N1_7 
REMARK    5  A    between atoms: N1_7  and  C6_8 
REMARK    6  A    between atoms: C10_14  and  O1_15 
REMARK    7  A    between atoms: C12_17  and  O2_18 
ROOT
HETATM    1  C6  UNL     1      26.574   2.370  51.967  1.00  0.00     0.141 A 
HETATM    2  N2  UNL     1      27.835   2.124  52.420  1.00  0.00    -0.224 NA
HETATM    3  C7  UNL     1      28.098   1.078  53.237  1.00  0.00     0.236 A 
HETATM    4  N3  UNL     1      27.118   0.232  53.640  1.00  0.00    -0.241 NA
HETATM    5  C8  UNL     1      25.862   0.450  53.208  1.00  0.00     0.075 A 
HETATM    6  C9  UNL     1      24.825  -0.375  53.575  1.00  0.00     0.072 A 
HETATM    7  C10 UNL     1      23.530  -0.177  53.142  1.00  0.00     0.103 A 
HETATM    8  C12 UNL     1      23.237   0.898  52.297  1.00  0.00     0.102 A 
HETATM    9  C14 UNL     1      24.283   1.721  51.935  1.00  0.00     0.057 A 
HETATM   10  C15 UNL     1      25.567   1.505  52.377  1.00  0.00     0.042 A 
ENDROOT
BRANCH   1  11
HETATM   11  N1  UNL     1      26.285   3.462  51.079  1.00  0.00    -0.349 N 
HETATM   12  H5  UNL     1      25.847   4.354  51.416  1.00  0.00     0.167 HD
BRANCH  11  13
HETATM   13  C5  UNL     1      26.623   3.261  49.747  1.00  0.00     0.102 C 
BRANCH  13  14
HETATM   14  C4  UNL     1      26.564   4.454  49.163  1.00  0.00    -0.006 C 
BRANCH  14  15
HETATM   15  C3  UNL     1      26.947   5.666  48.773  1.00  0.00     0.055 C 
BRANCH  15  16
HETATM   16  C2  UNL     1      28.250   5.816  48.206  1.00  0.00     0.107 C 
HETATM   17  C1  UNL     1      28.629   7.038  47.856  1.00  0.00     0.056 C 
HETATM   18  F1  UNL     1      29.089   4.797  48.011  1.00  0.00    -0.207 F 
ENDBRANCH  15  16
ENDBRANCH  14  15
ENDBRANCH  13  14
ENDBRANCH  11  13
ENDBRANCH   1  11
BRANCH   8  19
HETATM   19  O2  UNL     1      21.913   0.928  51.982  1.00  0.00    -0.353 OA
HETATM   20  C13 UNL     1      21.186   2.010  51.472  1.00  0.00     0.210 C 
ENDBRANCH   8  19
BRANCH   7  21
HETATM   21  O1  UNL     1      22.608  -1.103  53.605  1.00  0.00    -0.353 OA
HETATM   22  C11 UNL     1      22.059  -1.017  54.872  1.00  0.00     0.210 C 
ENDBRANCH   7  21
TORSDOF 7
ENDMDL
MODEL 5
REMARK VINA RESULT:      -6.3      3.497      7.039
REMARK  7 active torsions:
REMARK  status: ('A' for Active; 'I' for Inactive)
REMARK    1  A    between atoms: C2_2  and  C3_4 
REMARK    2  A    between atoms: C3_4  and  C4_5 
REMARK    3  A    between atoms: C4_5  and  C5_6 
REMARK    4  A    between atoms: C5_6  and  N1_7 
REMARK    5  A    between atoms: N1_7  and  C6_8 
REMARK    6  A    between atoms: C10_14  and  O1_15 
REMARK    7  A    between atoms: C12_17  and  O2_18 
ROOT
HETATM    1  C6  UNL     1      23.560  -0.235  53.451  1.00  0.00     0.141 A 
HETATM    2  N2  UNL     1      23.923  -0.860  54.606  1.00  0.00    -0.224 NA
HETATM    3  C7  UNL     1      23.006  -1.447  55.408  1.00  0.00     0.236 A 
HETATM    4  N3  UNL     1      21.686  -1.437  55.098  1.00  0.00    -0.241 NA
HETATM    5  C8  UNL     1      21.296  -0.827  53.963  1.00  0.00     0.075 A 
HETATM    6  C9  UNL     1      19.974  -0.789  53.589  1.00  0.00     0.072 A 
HETATM    7  C10 UNL     1      19.548  -0.175  52.429  1.00  0.00     0.103 A 
HETATM    8  C12 UNL     1      20.480   0.437  51.585  1.00  0.00     0.102 A 
HETATM    9  C14 UNL     1      21.805   0.394  51.968  1.00  0.00     0.057 A 
HETATM   10  C15 UNL     1      22.207  -0.223  53.130  1.00  0.00     0.042 A 
ENDROOT
BRANCH   1  11
HETATM   11  N1  UNL     1      24.525   0.370  52.577  1.00  0.00    -0.349 N 
HETATM   12  H5  UNL     1      24.377   0.432  51.539  1.00  0.00     0.167 HD
BRANCH  11  13
HETATM   13  C5  UNL     1      25.666   0.869  53.191  1.00  0.00     0.102 C 
BRANCH  13  14
HETATM   14  C4  UNL     1      26.669   0.085  52.809  1.00  0.00    -0.006 C 
BRANCH  14  15
HETATM   15  C3  UNL     1      27.694  -0.757  52.906  1.00  0.00     0.055 C 
BRANCH  15  16
HETATM   16  C2  UNL     1      28.687  -0.506  53.903  1.00  0.00     0.107 C 
HETATM   17  C1  UNL     1      29.949  -0.765  53.589  1.00  0.00     0.056 C 
HETATM   18  F1  UNL     1      28.406  -0.033  55.119  1.00  0.00    -0.207 F 
ENDBRANCH  15  16
ENDBRANCH  14  15
ENDBRANCH  13  14
ENDBRANCH  11  13
ENDBRANCH   1  11
BRANCH   8  19
HETATM   19  O2  UNL     1      19.872   0.986  50.498  1.00  0.00    -0.353 OA
HETATM   20  C13 UNL     1      19.890   2.329  50.102  1.00  0.00     0.210 C 
ENDBRANCH   8  19
BRANCH   7  21
HETATM   21  O1  UNL     1      18.182  -0.231  52.202  1.00  0.00    -0.353 OA
HETATM   22  C11 UNL     1      17.354  -1.068  52.929  1.00  0.00     0.210 C 
ENDBRANCH   7  21
TORSDOF 7
ENDMDL
MODEL 6
REMARK VINA RESULT:      -6.3      3.111      5.885
REMARK  7 active torsions:
REMARK  status: ('A' for Active; 'I' for Inactive)
REMARK    1  A    between atoms: C2_2  and  C3_4 
REMARK    2  A    between atoms: C3_4  and  C4_5 
REMARK    3  A    between atoms: C4_5  and  C5_6 
REMARK    4  A    between atoms: C5_6  and  N1_7 
REMARK    5  A    between atoms: N1_7  and  C6_8 
REMARK    6  A    between atoms: C10_14  and  O1_15 
REMARK    7  A    between atoms: C12_17  and  O2_18 
ROOT
HETATM    1  C6  UNL     1      25.292   3.044  51.164  1.00  0.00     0.141 A 
HETATM    2  N2  UNL     1      24.066   3.481  50.761  1.00  0.00    -0.224 NA
HETATM    3  C7  UNL     1      22.930   2.886  51.190  1.00  0.00     0.236 A 
HETATM    4  N3  UNL     1      22.963   1.830  52.040  1.00  0.00    -0.241 NA
HETATM    5  C8  UNL     1      24.160   1.376  52.456  1.00  0.00     0.075 A 
HETATM    6  C9  UNL     1      24.261   0.313  53.322  1.00  0.00     0.072 A 
HETATM    7  C10 UNL     1      25.475  -0.169  53.768  1.00  0.00     0.103 A 
HETATM    8  C12 UNL     1      26.661   0.432  53.335  1.00  0.00     0.102 A 
HETATM    9  C14 UNL     1      26.551   1.498  52.466  1.00  0.00     0.057 A 
HETATM   10  C15 UNL     1      25.330   1.961  52.034  1.00  0.00     0.042 A 
ENDROOT
BRANCH   1  11
HETATM   11  N1  UNL     1      26.506   3.682  50.735  1.00  0.00    -0.349 N 
HETATM   12  H5  UNL     1      27.153   4.160  51.409  1.00  0.00     0.167 HD
BRANCH  11  13
HETATM   13  C5  UNL     1      26.768   3.625  49.373  1.00  0.00     0.102 C 
BRANCH  13  14
HETATM   14  C4  UNL     1      26.889   4.884  48.963  1.00  0.00    -0.006 C 
BRANCH  14  15
HETATM   15  C3  UNL     1      27.452   5.975  48.451  1.00  0.00     0.055 C 
BRANCH  15  16
HETATM   16  C2  UNL     1      28.834   5.921  48.092  1.00  0.00     0.107 C 
HETATM   17  C1  UNL     1      29.488   7.071  47.998  1.00  0.00     0.056 C 
HETATM   18  F1  UNL     1      29.487   4.783  47.846  1.00  0.00    -0.207 F 
ENDBRANCH  15  16
ENDBRANCH  14  15
ENDBRANCH  13  14
ENDBRANCH  11  13
ENDBRANCH   1  11
BRANCH   8  19
HETATM   19  O2  UNL     1      27.748  -0.181  53.879  1.00  0.00    -0.353 OA
HETATM   20  C13 UNL     1      28.647   0.354  54.810  1.00  0.00     0.210 C 
ENDBRANCH   8  19
BRANCH   7  21
HETATM   21  O1  UNL     1      25.396  -1.244  54.639  1.00  0.00    -0.353 OA
HETATM   22  C11 UNL     1      24.604  -1.208  55.774  1.00  0.00     0.210 C 
ENDBRANCH   7  21
TORSDOF 7
ENDMDL
MODEL 7
REMARK VINA RESULT:      -6.3      2.382      4.277
REMARK  7 active torsions:
REMARK  status: ('A' for Active; 'I' for Inactive)
REMARK    1  A    between atoms: C2_2  and  C3_4 
REMARK    2  A    between atoms: C3_4  and  C4_5 
REMARK    3  A    between atoms: C4_5  and  C5_6 
REMARK    4  A    between atoms: C5_6  and  N1_7 
REMARK    5  A    between atoms: N1_7  and  C6_8 
REMARK    6  A    between atoms: C10_14  and  O1_15 
REMARK    7  A    between atoms: C12_17  and  O2_18 
ROOT
HETATM    1  C6  UNL     1      22.259   0.548  53.183  1.00  0.00     0.141 A 
HETATM    2  N2  UNL     1      21.527  -0.168  54.081  1.00  0.00    -0.224 NA
HETATM    3  C7  UNL     1      22.116  -1.022  54.949  1.00  0.00     0.236 A 
HETATM    4  N3  UNL     1      23.460  -1.202  54.962  1.00  0.00    -0.241 NA
HETATM    5  C8  UNL     1      24.210  -0.507  54.086  1.00  0.00     0.075 A 
HETATM    6  C9  UNL     1      25.578  -0.639  54.053  1.00  0.00     0.072 A 
HETATM    7  C10 UNL     1      26.371   0.065  53.170  1.00  0.00     0.103 A 
HETATM    8  C12 UNL     1      25.781   0.952  52.264  1.00  0.00     0.102 A 
HETATM    9  C14 UNL     1      24.408   1.078  52.304  1.00  0.00     0.057 A 
HETATM   10  C15 UNL     1      23.637   0.367  53.193  1.00  0.00     0.042 A 
ENDROOT
BRANCH   1  11
HETATM   11  N1  UNL     1      21.649   1.477  52.273  1.00  0.00    -0.349 N 
HETATM   12  H5  UNL     1      21.970   2.473  52.194  1.00  0.00     0.167 HD
BRANCH  11  13
HETATM   13  C5  UNL     1      20.609   0.972  51.503  1.00  0.00     0.102 C 
BRANCH  13  14
HETATM   14  C4  UNL     1      21.116   0.742  50.296  1.00  0.00    -0.006 C 
BRANCH  14  15
HETATM   15  C3  UNL     1      21.445   0.957  49.025  1.00  0.00     0.055 C 
BRANCH  15  16
HETATM   16  C2  UNL     1      22.330   2.038  48.727  1.00  0.00     0.107 C 
HETATM   17  C1  UNL     1      22.204   2.626  47.545  1.00  0.00     0.056 C 
HETATM   18  F1  UNL     1      23.269   2.475  49.570  1.00  0.00    -0.207 F 
ENDBRANCH  15  16
ENDBRANCH  14  15
ENDBRANCH  13  14
ENDBRANCH  11  13
ENDBRANCH   1  11
BRANCH   8  19
HETATM   19  O2  UNL     1      26.720   1.548  51.478  1.00  0.00    -0.353 OA
HETATM   20  C13 UNL     1      26.559   2.682  50.673  1.00  0.00     0.210 C 
ENDBRANCH   8  19
BRANCH   7  21
HETATM   21  O1  UNL     1      27.730  -0.185  53.272  1.00  0.00    -0.353 OA
HETATM   22  C11 UNL     1      28.412  -0.038  54.468  1.00  0.00     0.210 C 
ENDBRANCH   7  21
TORSDOF 7
ENDMDL
MODEL 8
REMARK VINA RESULT:      -6.2      3.489      6.678
REMARK  7 active torsions:
REMARK  status: ('A' for Active; 'I' for Inactive)
REMARK    1  A    between atoms: C2_2  and  C3_4 
REMARK    2  A    between atoms: C3_4  and  C4_5 
REMARK    3  A    between atoms: C4_5  and  C5_6 
REMARK    4  A    between atoms: C5_6  and  N1_7 
REMARK    5  A    between atoms: N1_7  and  C6_8 
REMARK    6  A    between atoms: C10_14  and  O1_15 
REMARK    7  A    between atoms: C12_17  and  O2_18 
ROOT
HETATM    1  C6  UNL     1      24.759   1.673  53.051  1.00  0.00     0.141 A 
HETATM    2  N2  UNL     1      25.038   0.429  53.530  1.00  0.00    -0.224 NA
HETATM    3  C7  UNL     1      24.053  -0.460  53.799  1.00  0.00     0.236 A 
HETATM    4  N3  UNL     1      22.748  -0.149  53.604  1.00  0.00    -0.241 NA
HETATM    5  C8  UNL     1      22.442   1.074  53.131  1.00  0.00     0.075 A 
HETATM    6  C9  UNL     1      21.138   1.448  52.905  1.00  0.00     0.072 A 
HETATM    7  C10 UNL     1      20.797   2.693  52.416  1.00  0.00     0.103 A 
HETATM    8  C12 UNL     1      21.800   3.625  52.132  1.00  0.00     0.102 A 
HETATM    9  C14 UNL     1      23.105   3.242  52.362  1.00  0.00     0.057 A 
HETATM   10  C15 UNL     1      23.422   1.996  52.850  1.00  0.00     0.042 A 
ENDROOT
BRANCH   1  11
HETATM   11  N1  UNL     1      25.795   2.617  52.737  1.00  0.00    -0.349 N 
HETATM   12  H5  UNL     1      25.761   3.613  53.066  1.00  0.00     0.167 HD
BRANCH  11  13
HETATM   13  C5  UNL     1      26.845   2.128  51.972  1.00  0.00     0.102 C 
BRANCH  13  14
HETATM   14  C4  UNL     1      27.926   2.178  52.744  1.00  0.00    -0.006 C 
BRANCH  14  15
HETATM   15  C3  UNL     1      28.698   2.004  53.813  1.00  0.00     0.055 C 
BRANCH  15  16
HETATM   16  C2  UNL     1      28.956   0.669  54.254  1.00  0.00     0.107 C 
HETATM   17  C1  UNL     1      29.827  -0.048  53.558  1.00  0.00     0.056 C 
HETATM   18  F1  UNL     1      28.365   0.118  55.316  1.00  0.00    -0.207 F 
ENDBRANCH  15  16
ENDBRANCH  14  15
ENDBRANCH  13  14
ENDBRANCH  11  13
ENDBRANCH   1  11
BRANCH   8  19
HETATM   19  O2  UNL     1      21.269   4.788  51.663  1.00  0.00    -0.353 OA
HETATM   20  C13 UNL     1      21.960   5.948  51.294  1.00  0.00     0.210 C 
ENDBRANCH   8  19
BRANCH   7  21
HETATM   21  O1  UNL     1      19.438   2.904  52.245  1.00  0.00    -0.353 OA
HETATM   22  C11 UNL     1      18.648   2.028  51.523  1.00  0.00     0.210 C 
ENDBRANCH   7  21
TORSDOF 7
ENDMDL
MODEL 9
REMARK VINA RESULT:      -6.2      2.565      4.113
REMARK  7 active torsions:
REMARK  status: ('A' for Active; 'I' for Inactive)
REMARK    1  A    between atoms: C2_2  and  C3_4 
REMARK    2  A    between atoms: C3_4  and  C4_5 
REMARK    3  A    between atoms: C4_5  and  C5_6 
REMARK    4  A    between atoms: C5_6  and  N1_7 
REMARK    5  A    between atoms: N1_7  and  C6_8 
REMARK    6  A    between atoms: C10_14  and  O1_15 
REMARK    7  A    between atoms: C12_17  and  O2_18 
ROOT
HETATM    1  C6  UNL     1      23.416  -0.280  53.447  1.00  0.00     0.141 A 
HETATM    2  N2  UNL     1      23.106  -1.030  54.540  1.00  0.00    -0.224 NA
HETATM    3  C7  UNL     1      24.039  -1.344  55.468  1.00  0.00     0.236 A 
HETATM    4  N3  UNL     1      25.323  -0.926  55.347  1.00  0.00    -0.241 NA
HETATM    5  C8  UNL     1      25.661  -0.183  54.277  1.00  0.00     0.075 A 
HETATM    6  C9  UNL     1      26.944   0.277  54.100  1.00  0.00     0.072 A 
HETATM    7  C10 UNL     1      27.315   1.045  53.015  1.00  0.00     0.103 A 
HETATM    8  C12 UNL     1      26.365   1.380  52.045  1.00  0.00     0.102 A 
HETATM    9  C14 UNL     1      25.079   0.914  52.230  1.00  0.00     0.057 A 
HETATM   10  C15 UNL     1      24.732   0.150  53.319  1.00  0.00     0.042 A 
ENDROOT
BRANCH   1  11
HETATM   11  N1  UNL     1      22.430   0.082  52.467  1.00  0.00    -0.349 N 
HETATM   12  H5  UNL     1      22.606  -0.009  51.437  1.00  0.00     0.167 HD
BRANCH  11  13
HETATM   13  C5  UNL     1      21.228   0.561  52.971  1.00  0.00     0.102 C 
BRANCH  13  14
HETATM   14  C4  UNL     1      21.225   1.872  52.748  1.00  0.00    -0.006 C 
BRANCH  14  15
HETATM   15  C3  UNL     1      21.294   3.018  52.077  1.00  0.00     0.055 C 
BRANCH  15  16
HETATM   16  C2  UNL     1      22.581   3.490  51.671  1.00  0.00     0.107 C 
HETATM   17  C1  UNL     1      23.301   4.152  52.566  1.00  0.00     0.056 C 
HETATM   18  F1  UNL     1      23.081   3.302  50.448  1.00  0.00    -0.207 F 
ENDBRANCH  15  16
ENDBRANCH  14  15
ENDBRANCH  13  14
ENDBRANCH  11  13
ENDBRANCH   1  11
BRANCH   8  19
HETATM   19  O2  UNL     1      26.918   2.136  51.057  1.00  0.00    -0.353 OA
HETATM   20  C13 UNL     1      26.383   3.288  50.469  1.00  0.00     0.210 C 
ENDBRANCH   8  19
BRANCH   7  21
HETATM   21  O1  UNL     1      28.647   1.426  52.993  1.00  0.00    -0.353 OA
HETATM   22  C11 UNL     1      29.145   2.390  53.852  1.00  0.00     0.210 C 
ENDBRANCH   7  21
TORSDOF 7
ENDMDL
