MODEL 1
REMARK VINA RESULT:     -10.5      0.000      0.000
REMARK  3 active torsions:
REMARK  status: ('A' for Active; 'I' for Inactive)
REMARK    1  A    between atoms: C5_6  and  N1_7 
REMARK    2  A    between atoms: N1_7  and  C6_8 
REMARK    3  A    between atoms: C13_17  and  C14_18 
ROOT
HETATM    1  C6  UNL     1      20.447   0.490  53.216  1.00  0.00     0.141 A 
HETATM    2  N2  UNL     1      19.916   1.598  52.730  1.00  0.00    -0.224 NA
HETATM    3  C7  UNL     1      20.521   2.629  52.175  1.00  0.00     0.236 A 
HETATM    4  N3  UNL     1      21.844   2.576  52.079  1.00  0.00    -0.241 NA
HETATM    5  C8  UNL     1      22.512   1.501  52.537  1.00  0.00     0.072 A 
HETATM    6  C9  UNL     1      21.817   0.459  53.106  1.00  0.00     0.035 A 
HETATM    7  C10 UNL     1      22.560  -0.527  53.540  1.00  0.00    -0.005 A 
HETATM    8  C11 UNL     1      24.049  -0.717  53.501  1.00  0.00     0.066 A 
HETATM    9  C12 UNL     1      24.697   0.433  52.825  1.00  0.00    -0.052 A 
HETATM   10  C13 UNL     1      25.977   0.536  52.579  1.00  0.00     0.020 C 
HETATM   11  C20 UNL     1      23.826   1.515  52.389  1.00  0.00     0.040 A 
ENDROOT
BRANCH   1  12
HETATM   12  N1  UNL     1      19.768  -0.598  53.803  1.00  0.00    -0.340 N 
HETATM   13  H4  UNL     1      20.098  -1.077  54.636  1.00  0.00     0.167 HD
BRANCH  12  14
HETATM   14  C5  UNL     1      18.562  -1.214  53.382  1.00  0.00     0.035 A 
HETATM   15  C4  UNL     1      17.601  -0.629  52.559  1.00  0.00     0.029 A 
HETATM   16  C3  UNL     1      16.450  -1.260  52.169  1.00  0.00     0.004 A 
HETATM   17  C2  UNL     1      16.168  -2.540  52.577  1.00  0.00     0.024 A 
HETATM   18  C1  UNL     1      17.090  -3.159  53.394  1.00  0.00     0.036 A 
HETATM   19 CL1  UNL     1      16.685  -4.787  53.887  1.00  0.00    -0.084 Cl
HETATM   20  C21 UNL     1      18.235  -2.488  53.762  1.00  0.00     0.053 A 
ENDBRANCH  12  14
ENDBRANCH   1  12
BRANCH  10  21
HETATM   21  C14 UNL     1      27.111  -0.325  52.841  1.00  0.00    -0.018 A 
HETATM   22  C15 UNL     1      27.173  -1.686  52.643  1.00  0.00     0.013 A 
HETATM   23  C16 UNL     1      28.275  -2.477  52.883  1.00  0.00     0.001 A 
HETATM   24  C17 UNL     1      29.407  -1.874  53.359  1.00  0.00     0.001 A 
HETATM   25  C18 UNL     1      29.465  -0.521  53.596  1.00  0.00     0.020 A 
HETATM   26  C19 UNL     1      28.319   0.190  53.327  1.00  0.00     0.021 A 
HETATM   27 BR1  UNL     1      28.366   2.089  53.650  1.00  0.00    -0.050 Br
ENDBRANCH  10  21
TORSDOF 3
ENDMDL
MODEL 2
REMARK VINA RESULT:      -9.9      6.078      8.554
REMARK  3 active torsions:
REMARK  status: ('A' for Active; 'I' for Inactive)
REMARK    1  A    between atoms: C5_6  and  N1_7 
REMARK    2  A    between atoms: N1_7  and  C6_8 
REMARK    3  A    between atoms: C13_17  and  C14_18 
ROOT
HETATM    1  C6  UNL     1      24.624   4.989  50.094  1.00  0.00     0.141 A 
HETATM    2  N2  UNL     1      23.591   5.602  50.643  1.00  0.00    -0.224 NA
HETATM    3  C7  UNL     1      22.940   5.294  51.747  1.00  0.00     0.236 A 
HETATM    4  N3  UNL     1      23.357   4.227  52.419  1.00  0.00    -0.241 NA
HETATM    5  C8  UNL     1      24.403   3.511  51.967  1.00  0.00     0.072 A 
HETATM    6  C9  UNL     1      25.037   3.888  50.806  1.00  0.00     0.035 A 
HETATM    7  C10 UNL     1      26.026   3.114  50.441  1.00  0.00    -0.005 A 
HETATM    8  C11 UNL     1      26.597   1.887  51.094  1.00  0.00     0.066 A 
HETATM    9  C12 UNL     1      25.880   1.597  52.360  1.00  0.00    -0.052 A 
HETATM   10  C13 UNL     1      26.181   0.632  53.189  1.00  0.00     0.020 C 
HETATM   11  C20 UNL     1      24.769   2.473  52.701  1.00  0.00     0.040 A 
ENDROOT
BRANCH   1  12
HETATM   12  N1  UNL     1      25.300   5.348  48.908  1.00  0.00    -0.340 N 
HETATM   13  H4  UNL     1      24.969   5.097  47.980  1.00  0.00     0.167 HD
BRANCH  12  14
HETATM   14  C5  UNL     1      26.505   6.083  48.769  1.00  0.00     0.035 A 
HETATM   15  C4  UNL     1      27.729   5.558  48.359  1.00  0.00     0.029 A 
HETATM   16  C3  UNL     1      28.871   6.303  48.231  1.00  0.00     0.004 A 
HETATM   17  C2  UNL     1      28.875   7.648  48.508  1.00  0.00     0.024 A 
HETATM   18  C1  UNL     1      27.686   8.212  48.919  1.00  0.00     0.036 A 
HETATM   19 CL1  UNL     1      27.744   9.927  49.258  1.00  0.00    -0.084 Cl
HETATM   20  C21 UNL     1      26.561   7.425  49.033  1.00  0.00     0.053 A 
ENDBRANCH  12  14
ENDBRANCH   1  12
BRANCH  10  21
HETATM   21  C14 UNL     1      27.202  -0.394  53.190  1.00  0.00    -0.018 A 
HETATM   22  C15 UNL     1      27.046  -1.710  52.816  1.00  0.00     0.013 A 
HETATM   23  C16 UNL     1      28.044  -2.659  52.809  1.00  0.00     0.001 A 
HETATM   24  C17 UNL     1      29.296  -2.279  53.206  1.00  0.00     0.001 A 
HETATM   25  C18 UNL     1      29.574  -0.992  53.602  1.00  0.00     0.020 A 
HETATM   26  C19 UNL     1      28.518  -0.111  53.576  1.00  0.00     0.021 A 
HETATM   27 BR1  UNL     1      28.872   1.701  54.127  1.00  0.00    -0.050 Br
ENDBRANCH  10  21
TORSDOF 3
ENDMDL
MODEL 3
REMARK VINA RESULT:      -9.6      4.436      9.309
REMARK  3 active torsions:
REMARK  status: ('A' for Active; 'I' for Inactive)
REMARK    1  A    between atoms: C5_6  and  N1_7 
REMARK    2  A    between atoms: N1_7  and  C6_8 
REMARK    3  A    between atoms: C13_17  and  C14_18 
ROOT
HETATM    1  C6  UNL     1      24.768  -0.601  54.062  1.00  0.00     0.141 A 
HETATM    2  N2  UNL     1      24.937  -1.164  55.245  1.00  0.00    -0.224 NA
HETATM    3  C7  UNL     1      24.024  -1.613  56.083  1.00  0.00     0.236 A 
HETATM    4  N3  UNL     1      22.754  -1.496  55.716  1.00  0.00    -0.241 NA
HETATM    5  C8  UNL     1      22.442  -0.938  54.531  1.00  0.00     0.072 A 
HETATM    6  C9  UNL     1      23.445  -0.490  53.704  1.00  0.00     0.035 A 
HETATM    7  C10 UNL     1      23.036   0.056  52.588  1.00  0.00    -0.005 A 
HETATM    8  C11 UNL     1      21.648   0.257  52.051  1.00  0.00     0.066 A 
HETATM    9  C12 UNL     1      20.647  -0.306  52.990  1.00  0.00    -0.052 A 
HETATM   10  C13 UNL     1      19.357  -0.342  52.779  1.00  0.00     0.020 C 
HETATM   11  C20 UNL     1      21.156  -0.873  54.229  1.00  0.00     0.040 A 
ENDROOT
BRANCH   1  12
HETATM   12  N1  UNL     1      25.770  -0.131  53.187  1.00  0.00    -0.340 N 
HETATM   13  H4  UNL     1      25.569   0.297  52.287  1.00  0.00     0.167 HD
BRANCH  12  14
HETATM   14  C5  UNL     1      27.177  -0.157  53.365  1.00  0.00     0.035 A 
HETATM   15  C4  UNL     1      28.011  -1.229  53.051  1.00  0.00     0.029 A 
HETATM   16  C3  UNL     1      29.368  -1.214  53.232  1.00  0.00     0.004 A 
HETATM   17  C2  UNL     1      30.003  -0.111  53.748  1.00  0.00     0.024 A 
HETATM   18  C1  UNL     1      29.218   0.975  54.073  1.00  0.00     0.036 A 
HETATM   19 CL1  UNL     1      30.074   2.354  54.725  1.00  0.00    -0.084 Cl
HETATM   20  C21 UNL     1      27.856   0.916  53.874  1.00  0.00     0.053 A 
ENDBRANCH  12  14
ENDBRANCH   1  12
BRANCH  10  21
HETATM   21  C14 UNL     1      18.517   0.096  51.685  1.00  0.00    -0.018 A 
HETATM   22  C15 UNL     1      18.825   1.052  50.743  1.00  0.00     0.013 A 
HETATM   23  C16 UNL     1      18.010   1.435  49.701  1.00  0.00     0.001 A 
HETATM   24  C17 UNL     1      16.792   0.824  49.579  1.00  0.00     0.001 A 
HETATM   25  C18 UNL     1      16.374  -0.145  50.459  1.00  0.00     0.020 A 
HETATM   26  C19 UNL     1      17.252  -0.465  51.469  1.00  0.00     0.021 A 
HETATM   27 BR1  UNL     1      16.696  -1.819  52.721  1.00  0.00    -0.050 Br
ENDBRANCH  10  21
TORSDOF 3
ENDMDL
MODEL 4
REMARK VINA RESULT:      -9.5      3.866      8.603
REMARK  3 active torsions:
REMARK  status: ('A' for Active; 'I' for Inactive)
REMARK    1  A    between atoms: C5_6  and  N1_7 
REMARK    2  A    between atoms: N1_7  and  C6_8 
REMARK    3  A    between atoms: C13_17  and  C14_18 
ROOT
HETATM    1  C6  UNL     1      25.629   2.559  51.864  1.00  0.00     0.141 A 
HETATM    2  N2  UNL     1      26.032   3.263  50.822  1.00  0.00    -0.224 NA
HETATM    3  C7  UNL     1      25.379   3.540  49.710  1.00  0.00     0.236 A 
HETATM    4  N3  UNL     1      24.148   3.056  49.594  1.00  0.00    -0.241 NA
HETATM    5  C8  UNL     1      23.616   2.319  50.587  1.00  0.00     0.072 A 
HETATM    6  C9  UNL     1      24.353   2.069  51.721  1.00  0.00     0.035 A 
HETATM    7  C10 UNL     1      23.754   1.325  52.615  1.00  0.00    -0.005 A 
HETATM    8  C11 UNL     1      22.382   0.713  52.614  1.00  0.00     0.066 A 
HETATM    9  C12 UNL     1      21.653   1.085  51.378  1.00  0.00    -0.052 A 
HETATM   10  C13 UNL     1      20.416   0.760  51.109  1.00  0.00     0.020 C 
HETATM   11  C20 UNL     1      22.378   1.889  50.405  1.00  0.00     0.040 A 
ENDROOT
BRANCH   1  12
HETATM   12  N1  UNL     1      26.355   2.283  53.042  1.00  0.00    -0.340 N 
HETATM   13  H4  UNL     1      26.202   2.775  53.919  1.00  0.00     0.167 HD
BRANCH  12  14
HETATM   14  C5  UNL     1      27.384   1.328  53.239  1.00  0.00     0.035 A 
HETATM   15  C4  UNL     1      28.658   1.603  53.734  1.00  0.00     0.029 A 
HETATM   16  C3  UNL     1      29.625   0.650  53.916  1.00  0.00     0.004 A 
HETATM   17  C2  UNL     1      29.389  -0.668  53.613  1.00  0.00     0.024 A 
HETATM   18  C1  UNL     1      28.141  -0.988  53.120  1.00  0.00     0.036 A 
HETATM   19 CL1  UNL     1      27.890  -2.679  52.751  1.00  0.00    -0.084 Cl
HETATM   20  C21 UNL     1      27.198   0.002  52.953  1.00  0.00     0.053 A 
ENDBRANCH  12  14
ENDBRANCH   1  12
BRANCH  10  21
HETATM   21  C14 UNL     1      19.408   0.008  51.826  1.00  0.00    -0.018 A 
HETATM   22  C15 UNL     1      19.594  -0.731  52.972  1.00  0.00     0.013 A 
HETATM   23  C16 UNL     1      18.610  -1.421  53.644  1.00  0.00     0.001 A 
HETATM   24  C17 UNL     1      17.339  -1.379  53.141  1.00  0.00     0.001 A 
HETATM   25  C18 UNL     1      17.030  -0.675  52.002  1.00  0.00     0.020 A 
HETATM   26  C19 UNL     1      18.075  -0.015  51.397  1.00  0.00     0.021 A 
HETATM   27 BR1  UNL     1      17.678   0.981  49.797  1.00  0.00    -0.050 Br
ENDBRANCH  10  21
TORSDOF 3
ENDMDL
MODEL 5
REMARK VINA RESULT:      -9.4      4.831      7.595
REMARK  3 active torsions:
REMARK  status: ('A' for Active; 'I' for Inactive)
REMARK    1  A    between atoms: C5_6  and  N1_7 
REMARK    2  A    between atoms: N1_7  and  C6_8 
REMARK    3  A    between atoms: C13_17  and  C14_18 
ROOT
HETATM    1  C6  UNL     1      23.664   0.042  53.098  1.00  0.00     0.141 A 
HETATM    2  N2  UNL     1      22.414  -0.367  52.977  1.00  0.00    -0.224 NA
HETATM    3  C7  UNL     1      21.481   0.064  52.152  1.00  0.00     0.236 A 
HETATM    4  N3  UNL     1      21.814   1.042  51.318  1.00  0.00    -0.241 NA
HETATM    5  C8  UNL     1      23.060   1.551  51.337  1.00  0.00     0.072 A 
HETATM    6  C9  UNL     1      23.985   1.054  52.225  1.00  0.00     0.035 A 
HETATM    7  C10 UNL     1      25.158   1.631  52.180  1.00  0.00    -0.005 A 
HETATM    8  C11 UNL     1      25.667   2.738  51.301  1.00  0.00     0.066 A 
HETATM    9  C12 UNL     1      24.614   3.165  50.348  1.00  0.00    -0.052 A 
HETATM   10  C13 UNL     1      24.767   4.065  49.413  1.00  0.00     0.020 C 
HETATM   11  C20 UNL     1      23.319   2.510  50.464  1.00  0.00     0.040 A 
ENDROOT
BRANCH   1  12
HETATM   12  N1  UNL     1      24.640  -0.444  53.993  1.00  0.00    -0.340 N 
HETATM   13  H4  UNL     1      24.429  -0.732  54.945  1.00  0.00     0.167 HD
BRANCH  12  14
HETATM   14  C5  UNL     1      26.030  -0.621  53.771  1.00  0.00     0.035 A 
HETATM   15  C4  UNL     1      26.603  -1.646  53.020  1.00  0.00     0.029 A 
HETATM   16  C3  UNL     1      27.952  -1.781  52.823  1.00  0.00     0.004 A 
HETATM   17  C2  UNL     1      28.841  -0.888  53.368  1.00  0.00     0.024 A 
HETATM   18  C1  UNL     1      28.319   0.144  54.119  1.00  0.00     0.036 A 
HETATM   19 CL1  UNL     1      29.493   1.253  54.791  1.00  0.00    -0.084 Cl
HETATM   20  C21 UNL     1      26.956   0.241  54.292  1.00  0.00     0.053 A 
ENDBRANCH  12  14
ENDBRANCH   1  12
BRANCH  10  21
HETATM   21  C14 UNL     1      25.885   4.887  48.999  1.00  0.00    -0.018 A 
HETATM   22  C15 UNL     1      27.200   4.495  48.895  1.00  0.00     0.013 A 
HETATM   23  C16 UNL     1      28.240   5.297  48.479  1.00  0.00     0.001 A 
HETATM   24  C17 UNL     1      27.957   6.591  48.139  1.00  0.00     0.001 A 
HETATM   25  C18 UNL     1      26.681   7.097  48.203  1.00  0.00     0.020 A 
HETATM   26  C19 UNL     1      25.705   6.225  48.628  1.00  0.00     0.021 A 
HETATM   27 BR1  UNL     1      23.905   6.903  48.729  1.00  0.00    -0.050 Br
ENDBRANCH  10  21
TORSDOF 3
ENDMDL
MODEL 6
REMARK VINA RESULT:      -9.4      5.486      9.488
REMARK  3 active torsions:
REMARK  status: ('A' for Active; 'I' for Inactive)
REMARK    1  A    between atoms: C5_6  and  N1_7 
REMARK    2  A    between atoms: N1_7  and  C6_8 
REMARK    3  A    between atoms: C13_17  and  C14_18 
ROOT
HETATM    1  C6  UNL     1      26.586   2.621  51.029  1.00  0.00     0.141 A 
HETATM    2  N2  UNL     1      27.540   2.550  51.940  1.00  0.00    -0.224 NA
HETATM    3  C7  UNL     1      27.454   2.164  53.198  1.00  0.00     0.236 A 
HETATM    4  N3  UNL     1      26.258   1.791  53.636  1.00  0.00    -0.241 NA
HETATM    5  C8  UNL     1      25.197   1.815  52.808  1.00  0.00     0.072 A 
HETATM    6  C9  UNL     1      25.357   2.230  51.506  1.00  0.00     0.035 A 
HETATM    7  C10 UNL     1      24.262   2.239  50.791  1.00  0.00    -0.005 A 
HETATM    8  C11 UNL     1      22.857   1.852  51.154  1.00  0.00     0.066 A 
HETATM    9  C12 UNL     1      22.801   1.372  52.556  1.00  0.00    -0.052 A 
HETATM   10  C13 UNL     1      21.733   0.906  53.149  1.00  0.00     0.020 C 
HETATM   11  C20 UNL     1      24.043   1.412  53.314  1.00  0.00     0.040 A 
ENDROOT
BRANCH   1  12
HETATM   12  N1  UNL     1      26.714   3.038  49.687  1.00  0.00    -0.340 N 
HETATM   13  H4  UNL     1      26.818   2.391  48.910  1.00  0.00     0.167 HD
BRANCH  12  14
HETATM   14  C5  UNL     1      26.724   4.360  49.173  1.00  0.00     0.035 A 
HETATM   15  C4  UNL     1      25.632   5.226  49.152  1.00  0.00     0.029 A 
HETATM   16  C3  UNL     1      25.682   6.500  48.651  1.00  0.00     0.004 A 
HETATM   17  C2  UNL     1      26.843   7.011  48.127  1.00  0.00     0.024 A 
HETATM   18  C1  UNL     1      27.951   6.189  48.126  1.00  0.00     0.036 A 
HETATM   19 CL1  UNL     1      29.405   6.887  47.449  1.00  0.00    -0.084 Cl
HETATM   20  C21 UNL     1      27.856   4.915  48.640  1.00  0.00     0.053 A 
ENDBRANCH  12  14
ENDBRANCH   1  12
BRANCH  10  21
HETATM   21  C14 UNL     1      20.366   0.704  52.717  1.00  0.00    -0.018 A 
HETATM   22  C15 UNL     1      19.619   1.550  51.928  1.00  0.00     0.013 A 
HETATM   23  C16 UNL     1      18.325   1.320  51.517  1.00  0.00     0.001 A 
HETATM   24  C17 UNL     1      17.719   0.162  51.919  1.00  0.00     0.001 A 
HETATM   25  C18 UNL     1      18.364  -0.760  52.708  1.00  0.00     0.020 A 
HETATM   26  C19 UNL     1      19.654  -0.449  53.070  1.00  0.00     0.021 A 
HETATM   27 BR1  UNL     1      20.587  -1.719  54.178  1.00  0.00    -0.050 Br
ENDBRANCH  10  21
TORSDOF 3
ENDMDL
MODEL 7
REMARK VINA RESULT:      -9.1      3.548      5.210
REMARK  3 active torsions:
REMARK  status: ('A' for Active; 'I' for Inactive)
REMARK    1  A    between atoms: C5_6  and  N1_7 
REMARK    2  A    between atoms: N1_7  and  C6_8 
REMARK    3  A    between atoms: C13_17  and  C14_18 
ROOT
HETATM    1  C6  UNL     1      20.826   1.395  52.163  1.00  0.00     0.141 A 
HETATM    2  N2  UNL     1      19.814   0.709  52.661  1.00  0.00    -0.224 NA
HETATM    3  C7  UNL     1      19.839  -0.307  53.502  1.00  0.00     0.236 A 
HETATM    4  N3  UNL     1      21.030  -0.717  53.921  1.00  0.00    -0.241 NA
HETATM    5  C8  UNL     1      22.147  -0.102  53.488  1.00  0.00     0.072 A 
HETATM    6  C9  UNL     1      22.048   0.952  52.610  1.00  0.00     0.035 A 
HETATM    7  C10 UNL     1      23.191   1.465  52.233  1.00  0.00    -0.005 A 
HETATM    8  C11 UNL     1      24.597   1.103  52.619  1.00  0.00     0.066 A 
HETATM    9  C12 UNL     1      24.592  -0.005  53.605  1.00  0.00    -0.052 A 
HETATM   10  C13 UNL     1      25.654  -0.504  54.179  1.00  0.00     0.020 C 
HETATM   11  C20 UNL     1      23.294  -0.557  53.965  1.00  0.00     0.040 A 
ENDROOT
BRANCH   1  12
HETATM   12  N1  UNL     1      20.763   2.481  51.263  1.00  0.00    -0.340 N 
HETATM   13  H4  UNL     1      20.301   3.360  51.482  1.00  0.00     0.167 HD
BRANCH  12  14
HETATM   14  C5  UNL     1      21.294   2.569  49.951  1.00  0.00     0.035 A 
HETATM   15  C4  UNL     1      21.442   1.503  49.067  1.00  0.00     0.029 A 
HETATM   16  C3  UNL     1      21.955   1.629  47.803  1.00  0.00     0.004 A 
HETATM   17  C2  UNL     1      22.364   2.848  47.322  1.00  0.00     0.024 A 
HETATM   18  C1  UNL     1      22.236   3.934  48.162  1.00  0.00     0.036 A 
HETATM   19 CL1  UNL     1      22.770   5.463  47.502  1.00  0.00    -0.084 Cl
HETATM   20  C21 UNL     1      21.715   3.761  49.426  1.00  0.00     0.053 A 
ENDBRANCH  12  14
ENDBRANCH   1  12
BRANCH  10  21
HETATM   21  C14 UNL     1      27.068  -0.204  54.085  1.00  0.00    -0.018 A 
HETATM   22  C15 UNL     1      27.739   0.808  54.734  1.00  0.00     0.013 A 
HETATM   23  C16 UNL     1      29.090   1.056  54.640  1.00  0.00     0.001 A 
HETATM   24  C17 UNL     1      29.839   0.239  53.838  1.00  0.00     0.001 A 
HETATM   25  C18 UNL     1      29.280  -0.804  53.140  1.00  0.00     0.020 A 
HETATM   26  C19 UNL     1      27.925  -0.979  53.294  1.00  0.00     0.021 A 
HETATM   27 BR1  UNL     1      27.110  -2.432  52.328  1.00  0.00    -0.050 Br
ENDBRANCH  10  21
TORSDOF 3
ENDMDL
MODEL 8
REMARK VINA RESULT:      -9.0      7.022      8.884
REMARK  3 active torsions:
REMARK  status: ('A' for Active; 'I' for Inactive)
REMARK    1  A    between atoms: C5_6  and  N1_7 
REMARK    2  A    between atoms: N1_7  and  C6_8 
REMARK    3  A    between atoms: C13_17  and  C14_18 
ROOT
HETATM    1  C6  UNL     1      24.831   3.794  50.675  1.00  0.00     0.141 A 
HETATM    2  N2  UNL     1      23.865   4.407  51.336  1.00  0.00    -0.224 NA
HETATM    3  C7  UNL     1      23.620   5.698  51.431  1.00  0.00     0.236 A 
HETATM    4  N3  UNL     1      24.440   6.520  50.786  1.00  0.00    -0.241 NA
HETATM    5  C8  UNL     1      25.468   6.025  50.073  1.00  0.00     0.072 A 
HETATM    6  C9  UNL     1      25.667   4.665  50.017  1.00  0.00     0.035 A 
HETATM    7  C10 UNL     1      26.706   4.287  49.317  1.00  0.00    -0.005 A 
HETATM    8  C11 UNL     1      27.710   5.097  48.548  1.00  0.00     0.066 A 
HETATM    9  C12 UNL     1      27.378   6.540  48.628  1.00  0.00    -0.052 A 
HETATM   10  C13 UNL     1      28.025   7.495  48.014  1.00  0.00     0.020 C 
HETATM   11  C20 UNL     1      26.229   6.905  49.444  1.00  0.00     0.040 A 
ENDROOT
BRANCH   1  12
HETATM   12  N1  UNL     1      25.064   2.405  50.593  1.00  0.00    -0.340 N 
HETATM   13  H4  UNL     1      25.097   1.896  49.714  1.00  0.00     0.167 HD
BRANCH  12  14
HETATM   14  C5  UNL     1      25.284   1.485  51.650  1.00  0.00     0.035 A 
HETATM   15  C4  UNL     1      24.303   0.988  52.505  1.00  0.00     0.029 A 
HETATM   16  C3  UNL     1      24.555   0.094  53.512  1.00  0.00     0.004 A 
HETATM   17  C2  UNL     1      25.824  -0.376  53.743  1.00  0.00     0.024 A 
HETATM   18  C1  UNL     1      26.829   0.090  52.922  1.00  0.00     0.036 A 
HETATM   19 CL1  UNL     1      28.426  -0.538  53.257  1.00  0.00    -0.084 Cl
HETATM   20  C21 UNL     1      26.531   0.988  51.920  1.00  0.00     0.053 A 
ENDBRANCH  12  14
ENDBRANCH   1  12
BRANCH  10  21
HETATM   21  C14 UNL     1      29.171   7.509  47.128  1.00  0.00    -0.018 A 
HETATM   22  C15 UNL     1      30.410   6.966  47.379  1.00  0.00     0.013 A 
HETATM   23  C16 UNL     1      31.476   6.977  46.507  1.00  0.00     0.001 A 
HETATM   24  C17 UNL     1      31.304   7.575  45.290  1.00  0.00     0.001 A 
HETATM   25  C18 UNL     1      30.111   8.153  44.926  1.00  0.00     0.020 A 
HETATM   26  C19 UNL     1      29.101   8.093  45.858  1.00  0.00     0.021 A 
HETATM   27 BR1  UNL     1      27.415   8.895  45.380  1.00  0.00    -0.050 Br
ENDBRANCH  10  21
TORSDOF 3
ENDMDL
MODEL 9
REMARK VINA RESULT:      -8.9      7.874     11.930
REMARK  3 active torsions:
REMARK  status: ('A' for Active; 'I' for Inactive)
REMARK    1  A    between atoms: C5_6  and  N1_7 
REMARK    2  A    between atoms: N1_7  and  C6_8 
REMARK    3  A    between atoms: C13_17  and  C14_18 
ROOT
HETATM    1  C6  UNL     1      28.844   6.091  48.024  1.00  0.00     0.141 A 
HETATM    2  N2  UNL     1      28.763   7.346  47.621  1.00  0.00    -0.224 NA
HETATM    3  C7  UNL     1      27.711   8.140  47.602  1.00  0.00     0.236 A 
HETATM    4  N3  UNL     1      26.564   7.637  48.041  1.00  0.00    -0.241 NA
HETATM    5  C8  UNL     1      26.508   6.367  48.482  1.00  0.00     0.072 A 
HETATM    6  C9  UNL     1      27.645   5.592  48.474  1.00  0.00     0.035 A 
HETATM    7  C10 UNL     1      27.480   4.366  48.900  1.00  0.00    -0.005 A 
HETATM    8  C11 UNL     1      26.253   3.670  49.416  1.00  0.00     0.066 A 
HETATM    9  C12 UNL     1      25.101   4.603  49.434  1.00  0.00    -0.052 A 
HETATM   10  C13 UNL     1      23.909   4.315  49.887  1.00  0.00     0.020 C 
HETATM   11  C20 UNL     1      25.334   5.945  48.920  1.00  0.00     0.040 A 
ENDROOT
BRANCH   1  12
HETATM   12  N1  UNL     1      29.990   5.267  48.032  1.00  0.00    -0.340 N 
HETATM   13  H4  UNL     1      29.954   4.260  47.905  1.00  0.00     0.167 HD
BRANCH  12  14
HETATM   14  C5  UNL     1      31.345   5.646  48.209  1.00  0.00     0.035 A 
HETATM   15  C4  UNL     1      31.789   6.924  48.546  1.00  0.00     0.029 A 
HETATM   16  C3  UNL     1      33.109   7.250  48.714  1.00  0.00     0.004 A 
HETATM   17  C2  UNL     1      34.098   6.311  48.555  1.00  0.00     0.024 A 
HETATM   18  C1  UNL     1      33.706   5.032  48.221  1.00  0.00     0.036 A 
HETATM   19 CL1  UNL     1      35.003   3.874  48.031  1.00  0.00    -0.084 Cl
HETATM   20  C21 UNL     1      32.367   4.747  48.062  1.00  0.00     0.053 A 
ENDBRANCH  12  14
ENDBRANCH   1  12
BRANCH  10  21
HETATM   21  C14 UNL     1      23.329   3.125  50.473  1.00  0.00    -0.018 A 
HETATM   22  C15 UNL     1      23.455   2.706  51.778  1.00  0.00     0.013 A 
HETATM   23  C16 UNL     1      22.875   1.577  52.312  1.00  0.00     0.001 A 
HETATM   24  C17 UNL     1      22.109   0.798  51.489  1.00  0.00     0.001 A 
HETATM   25  C18 UNL     1      21.910   1.114  50.166  1.00  0.00     0.020 A 
HETATM   26  C19 UNL     1      22.527   2.260  49.719  1.00  0.00     0.021 A 
HETATM   27 BR1  UNL     1      22.270   2.732  47.869  1.00  0.00    -0.050 Br
ENDBRANCH  10  21
TORSDOF 3
ENDMDL
