MODEL 1
REMARK VINA RESULT:      -8.2      0.000      0.000
REMARK  7 active torsions:
REMARK  status: ('A' for Active; 'I' for Inactive)
REMARK    1  A    between atoms: C5_5  and  N1_6 
REMARK    2  A    between atoms: N1_6  and  C6_7 
REMARK    3  A    between atoms: C10_14  and  C11_15 
REMARK    4  A    between atoms: C11_15  and  N5_16 
REMARK    5  A    between atoms: N5_16  and  C12_17 
REMARK    6  A    between atoms: C12_17  and  C13_18 
REMARK    7  A    between atoms: C16_21  and  N6_22 
ROOT
HETATM    1  C6  UNL     1      23.602  -0.079  53.654  1.00  0.00     0.159 A 
HETATM    2  N2  UNL     1      23.843  -0.889  54.674  1.00  0.00    -0.220 NA
HETATM    3  C7  UNL     1      22.871  -1.517  55.350  1.00  0.00     0.258 A 
HETATM    4  N3  UNL     1      21.601  -1.309  54.965  1.00  0.00    -0.161 NA
HETATM    5  N4  UNL     1      21.354  -0.488  53.932  1.00  0.00    -0.240 N 
HETATM    6  C8  UNL     1      20.132  -0.207  53.454  1.00  0.00     0.119 A 
HETATM    7  C9  UNL     1      20.360   0.667  52.397  1.00  0.00     0.030 A 
HETATM    8  C10 UNL     1      21.726   0.902  52.251  1.00  0.00     0.004 A 
HETATM    9  C17 UNL     1      22.323   0.148  53.246  1.00  0.00     0.112 A 
ENDROOT
BRANCH   8  10
HETATM   10  C11 UNL     1      22.389   1.748  51.263  1.00  0.00     0.310 C 
BRANCH  10  11
HETATM   11  N5  UNL     1      22.621   3.113  51.754  1.00  0.00     0.088 N 
HETATM   12  H12 UNL     1      21.889   3.733  51.343  1.00  0.00     0.316 HD
BRANCH  11  13
HETATM   13  C12 UNL     1      23.943   3.597  51.524  1.00  0.00     0.276 C 
BRANCH  13  14
HETATM   14  C13 UNL     1      24.507   3.095  50.194  1.00  0.00     0.046 C 
HETATM   15  C14 UNL     1      24.391   4.166  49.134  1.00  0.00     0.010 C 
HETATM   16  C15 UNL     1      25.799   4.590  49.487  1.00  0.00     0.036 C 
HETATM   17  C16 UNL     1      26.006   3.213  50.067  1.00  0.00     0.223 C 
BRANCH  17  18
HETATM   18  N6  UNL     1      26.733   3.176  51.317  1.00  0.00     0.083 N 
HETATM   19  H21 UNL     1      26.170   2.599  51.983  1.00  0.00     0.313 HD
HETATM   20  H22 UNL     1      27.623   2.639  51.175  1.00  0.00     0.313 HD
ENDBRANCH  17  18
ENDBRANCH  13  14
ENDBRANCH  11  13
ENDBRANCH  10  11
ENDBRANCH   8  10
BRANCH   1  21
HETATM   21  N1  UNL     1      24.698   0.528  52.995  1.00  0.00    -0.339 N 
HETATM   22  H6  UNL     1      24.789   1.283  52.294  1.00  0.00     0.167 HD
BRANCH  21  23
HETATM   23  C5  UNL     1      26.056   0.138  53.214  1.00  0.00     0.033 A 
HETATM   24  C4  UNL     1      26.617  -0.957  52.572  1.00  0.00     0.030 A 
HETATM   25  C3  UNL     1      27.909  -1.399  52.756  1.00  0.00     0.009 A 
HETATM   26  C2  UNL     1      28.726  -0.722  53.633  1.00  0.00    -0.062 A 
HETATM   27  C1  UNL     1      30.121  -1.177  53.853  1.00  0.00     0.048 C 
HETATM   28  C19 UNL     1      28.256   0.376  54.313  1.00  0.00     0.009 A 
HETATM   29  C18 UNL     1      26.958   0.763  54.084  1.00  0.00     0.030 A 
ENDBRANCH  21  23
ENDBRANCH   1  21
TORSDOF 7
ENDMDL
MODEL 2
REMARK VINA RESULT:      -8.0      1.732      6.234
REMARK  7 active torsions:
REMARK  status: ('A' for Active; 'I' for Inactive)
REMARK    1  A    between atoms: C5_5  and  N1_6 
REMARK    2  A    between atoms: N1_6  and  C6_7 
REMARK    3  A    between atoms: C10_14  and  C11_15 
REMARK    4  A    between atoms: C11_15  and  N5_16 
REMARK    5  A    between atoms: N5_16  and  C12_17 
REMARK    6  A    between atoms: C12_17  and  C13_18 
REMARK    7  A    between atoms: C16_21  and  N6_22 
ROOT
HETATM    1  C6  UNL     1      27.089   1.845  53.729  1.00  0.00     0.159 A 
HETATM    2  N2  UNL     1      28.133   2.566  54.111  1.00  0.00    -0.220 NA
HETATM    3  C7  UNL     1      29.367   2.057  54.223  1.00  0.00     0.258 A 
HETATM    4  N3  UNL     1      29.541   0.757  53.932  1.00  0.00    -0.161 NA
HETATM    5  N4  UNL     1      28.486   0.023  53.544  1.00  0.00    -0.240 N 
HETATM    6  C8  UNL     1      28.536  -1.278  53.223  1.00  0.00     0.119 A 
HETATM    7  C9  UNL     1      27.228  -1.607  52.884  1.00  0.00     0.030 A 
HETATM    8  C10 UNL     1      26.402  -0.492  53.007  1.00  0.00     0.004 A 
HETATM    9  C17 UNL     1      27.240   0.525  53.428  1.00  0.00     0.112 A 
ENDROOT
BRANCH   8  10
HETATM   10  C11 UNL     1      24.969  -0.404  52.741  1.00  0.00     0.310 C 
BRANCH  10  11
HETATM   11  N5  UNL     1      24.157  -0.746  53.916  1.00  0.00     0.088 N 
HETATM   12  H12 UNL     1      24.558  -1.609  54.347  1.00  0.00     0.316 HD
BRANCH  11  13
HETATM   13  C12 UNL     1      22.761  -0.868  53.644  1.00  0.00     0.276 C 
BRANCH  13  14
HETATM   14  C13 UNL     1      22.174   0.436  53.102  1.00  0.00     0.046 C 
HETATM   15  C14 UNL     1      21.526   0.203  51.757  1.00  0.00     0.010 C 
HETATM   16  C15 UNL     1      20.215   0.001  52.485  1.00  0.00     0.036 C 
HETATM   17  C16 UNL     1      20.805   0.775  53.639  1.00  0.00     0.223 C 
BRANCH  17  18
HETATM   18  N6  UNL     1      20.509   0.240  54.951  1.00  0.00     0.083 N 
HETATM   19  H21 UNL     1      19.489   0.395  55.122  1.00  0.00     0.313 HD
HETATM   20  H22 UNL     1      20.627  -0.802  54.925  1.00  0.00     0.313 HD
ENDBRANCH  17  18
ENDBRANCH  13  14
ENDBRANCH  11  13
ENDBRANCH  10  11
ENDBRANCH   8  10
BRANCH   1  21
HETATM   21  N1  UNL     1      25.827   2.477  53.627  1.00  0.00    -0.339 N 
HETATM   22  H6  UNL     1      25.102   2.750  54.313  1.00  0.00     0.167 HD
BRANCH  21  23
HETATM   23  C5  UNL     1      25.260   2.898  52.385  1.00  0.00     0.033 A 
HETATM   24  C4  UNL     1      23.956   3.365  52.295  1.00  0.00     0.030 A 
HETATM   25  C3  UNL     1      23.342   3.763  51.128  1.00  0.00     0.009 A 
HETATM   26  C2  UNL     1      24.051   3.704  49.949  1.00  0.00    -0.062 A 
HETATM   27  C1  UNL     1      23.415   4.123  48.676  1.00  0.00     0.048 C 
HETATM   28  C19 UNL     1      25.350   3.256  49.942  1.00  0.00     0.009 A 
HETATM   29  C18 UNL     1      25.902   2.874  51.140  1.00  0.00     0.030 A 
ENDBRANCH  21  23
ENDBRANCH   1  21
TORSDOF 7
ENDMDL
MODEL 3
REMARK VINA RESULT:      -7.8      2.160      5.982
REMARK  7 active torsions:
REMARK  status: ('A' for Active; 'I' for Inactive)
REMARK    1  A    between atoms: C5_5  and  N1_6 
REMARK    2  A    between atoms: N1_6  and  C6_7 
REMARK    3  A    between atoms: C10_14  and  C11_15 
REMARK    4  A    between atoms: C11_15  and  N5_16 
REMARK    5  A    between atoms: N5_16  and  C12_17 
REMARK    6  A    between atoms: C12_17  and  C13_18 
REMARK    7  A    between atoms: C16_21  and  N6_22 
ROOT
HETATM    1  C6  UNL     1      23.683   2.992  50.022  1.00  0.00     0.159 A 
HETATM    2  N2  UNL     1      23.318   3.308  48.788  1.00  0.00    -0.220 NA
HETATM    3  C7  UNL     1      22.326   2.682  48.140  1.00  0.00     0.258 A 
HETATM    4  N3  UNL     1      21.680   1.694  48.781  1.00  0.00    -0.161 NA
HETATM    5  N4  UNL     1      22.047   1.371  50.031  1.00  0.00    -0.240 N 
HETATM    6  C8  UNL     1      21.476   0.409  50.772  1.00  0.00     0.119 A 
HETATM    7  C9  UNL     1      22.167   0.437  51.977  1.00  0.00     0.030 A 
HETATM    8  C10 UNL     1      23.153   1.421  51.947  1.00  0.00     0.004 A 
HETATM    9  C17 UNL     1      23.043   1.994  50.692  1.00  0.00     0.112 A 
ENDROOT
BRANCH   8  10
HETATM   10  C11 UNL     1      24.092   1.782  53.005  1.00  0.00     0.310 C 
BRANCH  10  11
HETATM   11  N5  UNL     1      25.428   1.211  52.792  1.00  0.00     0.088 N 
HETATM   12  H12 UNL     1      25.316   0.193  52.589  1.00  0.00     0.316 HD
BRANCH  11  13
HETATM   13  C12 UNL     1      26.345   1.461  53.856  1.00  0.00     0.276 C 
BRANCH  13  14
HETATM   14  C13 UNL     1      26.892   0.162  54.449  1.00  0.00     0.046 C 
HETATM   15  C14 UNL     1      27.177  -0.839  53.353  1.00  0.00     0.010 C 
HETATM   16  C15 UNL     1      28.602  -0.333  53.338  1.00  0.00     0.036 C 
HETATM   17  C16 UNL     1      28.373   0.181  54.738  1.00  0.00     0.223 C 
BRANCH  17  18
HETATM   18  N6  UNL     1      28.929   1.489  55.010  1.00  0.00     0.083 N 
HETATM   19  H21 UNL     1      29.134   1.933  54.085  1.00  0.00     0.313 HD
HETATM   20  H22 UNL     1      28.185   2.090  55.441  1.00  0.00     0.313 HD
ENDBRANCH  17  18
ENDBRANCH  13  14
ENDBRANCH  11  13
ENDBRANCH  10  11
ENDBRANCH   8  10
BRANCH   1  21
HETATM   21  N1  UNL     1      24.735   3.721  50.627  1.00  0.00    -0.339 N 
HETATM   22  H6  UNL     1      25.056   3.845  51.602  1.00  0.00     0.167 HD
BRANCH  21  23
HETATM   23  C5  UNL     1      25.655   4.526  49.888  1.00  0.00     0.033 A 
HETATM   24  C4  UNL     1      26.814   3.998  49.337  1.00  0.00     0.030 A 
HETATM   25  C3  UNL     1      27.752   4.723  48.635  1.00  0.00     0.009 A 
HETATM   26  C2  UNL     1      27.549   6.072  48.450  1.00  0.00    -0.062 A 
HETATM   27  C1  UNL     1      28.544   6.878  47.701  1.00  0.00     0.048 C 
HETATM   28  C19 UNL     1      26.427   6.682  48.959  1.00  0.00     0.009 A 
HETATM   29  C18 UNL     1      25.533   5.901  49.649  1.00  0.00     0.030 A 
ENDBRANCH  21  23
ENDBRANCH   1  21
TORSDOF 7
ENDMDL
MODEL 4
REMARK VINA RESULT:      -7.8      2.193      5.765
REMARK  7 active torsions:
REMARK  status: ('A' for Active; 'I' for Inactive)
REMARK    1  A    between atoms: C5_5  and  N1_6 
REMARK    2  A    between atoms: N1_6  and  C6_7 
REMARK    3  A    between atoms: C10_14  and  C11_15 
REMARK    4  A    between atoms: C11_15  and  N5_16 
REMARK    5  A    between atoms: N5_16  and  C12_17 
REMARK    6  A    between atoms: C12_17  and  C13_18 
REMARK    7  A    between atoms: C16_21  and  N6_22 
ROOT
HETATM    1  C6  UNL     1      23.136   3.310  50.275  1.00  0.00     0.159 A 
HETATM    2  N2  UNL     1      22.569   3.178  49.084  1.00  0.00    -0.220 NA
HETATM    3  C7  UNL     1      21.872   2.092  48.727  1.00  0.00     0.258 A 
HETATM    4  N3  UNL     1      21.748   1.099  49.624  1.00  0.00    -0.161 NA
HETATM    5  N4  UNL     1      22.321   1.229  50.831  1.00  0.00    -0.240 N 
HETATM    6  C8  UNL     1      22.263   0.312  51.808  1.00  0.00     0.119 A 
HETATM    7  C9  UNL     1      22.983   0.871  52.858  1.00  0.00     0.030 A 
HETATM    8  C10 UNL     1      23.468   2.126  52.497  1.00  0.00     0.004 A 
HETATM    9  C17 UNL     1      23.025   2.318  51.201  1.00  0.00     0.112 A 
ENDROOT
BRANCH   8  10
HETATM   10  C11 UNL     1      24.261   3.047  53.306  1.00  0.00     0.310 C 
BRANCH  10  11
HETATM   11  N5  UNL     1      25.698   2.959  53.014  1.00  0.00     0.088 N 
HETATM   12  H12 UNL     1      25.814   2.898  51.978  1.00  0.00     0.316 HD
BRANCH  11  13
HETATM   13  C12 UNL     1      26.370   1.906  53.704  1.00  0.00     0.276 C 
BRANCH  13  14
HETATM   14  C13 UNL     1      27.679   1.521  53.014  1.00  0.00     0.046 C 
HETATM   15  C14 UNL     1      28.858   2.106  53.757  1.00  0.00     0.010 C 
HETATM   16  C15 UNL     1      28.958   0.799  54.513  1.00  0.00     0.036 C 
HETATM   17  C16 UNL     1      28.199   0.153  53.380  1.00  0.00     0.223 C 
BRANCH  17  18
HETATM   18  N6  UNL     1      27.189  -0.801  53.784  1.00  0.00     0.083 N 
HETATM   19  H21 UNL     1      26.354  -0.640  53.175  1.00  0.00     0.313 HD
HETATM   20  H22 UNL     1      27.521  -1.767  53.544  1.00  0.00     0.313 HD
ENDBRANCH  17  18
ENDBRANCH  13  14
ENDBRANCH  11  13
ENDBRANCH  10  11
ENDBRANCH   8  10
BRANCH   1  21
HETATM   21  N1  UNL     1      23.841   4.503  50.563  1.00  0.00    -0.339 N 
HETATM   22  H6  UNL     1      23.671   5.306  51.192  1.00  0.00     0.167 HD
BRANCH  21  23
HETATM   23  C5  UNL     1      25.079   4.851  49.938  1.00  0.00     0.033 A 
HETATM   24  C4  UNL     1      25.366   6.153  49.555  1.00  0.00     0.030 A 
HETATM   25  C3  UNL     1      26.528   6.551  48.929  1.00  0.00     0.009 A 
HETATM   26  C2  UNL     1      27.491   5.607  48.651  1.00  0.00    -0.062 A 
HETATM   27  C1  UNL     1      28.749   6.006  47.975  1.00  0.00     0.048 C 
HETATM   28  C19 UNL     1      27.293   4.291  48.996  1.00  0.00     0.009 A 
HETATM   29  C18 UNL     1      26.113   3.962  49.617  1.00  0.00     0.030 A 
ENDBRANCH  21  23
ENDBRANCH   1  21
TORSDOF 7
ENDMDL
MODEL 5
REMARK VINA RESULT:      -7.8      1.432      5.363
REMARK  7 active torsions:
REMARK  status: ('A' for Active; 'I' for Inactive)
REMARK    1  A    between atoms: C5_5  and  N1_6 
REMARK    2  A    between atoms: N1_6  and  C6_7 
REMARK    3  A    between atoms: C10_14  and  C11_15 
REMARK    4  A    between atoms: C11_15  and  N5_16 
REMARK    5  A    between atoms: N5_16  and  C12_17 
REMARK    6  A    between atoms: C12_17  and  C13_18 
REMARK    7  A    between atoms: C16_21  and  N6_22 
ROOT
HETATM    1  C6  UNL     1      25.711   3.110  51.278  1.00  0.00     0.159 A 
HETATM    2  N2  UNL     1      26.834   3.378  50.629  1.00  0.00    -0.220 NA
HETATM    3  C7  UNL     1      26.860   4.016  49.452  1.00  0.00     0.258 A 
HETATM    4  N3  UNL     1      25.689   4.397  48.916  1.00  0.00    -0.161 NA
HETATM    5  N4  UNL     1      24.549   4.127  49.570  1.00  0.00    -0.240 N 
HETATM    6  C8  UNL     1      23.322   4.460  49.139  1.00  0.00     0.119 A 
HETATM    7  C9  UNL     1      22.463   3.991  50.126  1.00  0.00     0.030 A 
HETATM    8  C10 UNL     1      23.188   3.377  51.146  1.00  0.00     0.004 A 
HETATM    9  C17 UNL     1      24.511   3.485  50.755  1.00  0.00     0.112 A 
ENDROOT
BRANCH   8  10
HETATM   10  C11 UNL     1      22.674   2.763  52.366  1.00  0.00     0.310 C 
BRANCH  10  11
HETATM   11  N5  UNL     1      21.792   1.620  52.093  1.00  0.00     0.088 N 
HETATM   12  H12 UNL     1      20.915   1.985  51.659  1.00  0.00     0.316 HD
BRANCH  11  13
HETATM   13  C12 UNL     1      21.538   0.795  53.229  1.00  0.00     0.276 C 
BRANCH  13  14
HETATM   14  C13 UNL     1      22.225  -0.565  53.106  1.00  0.00     0.046 C 
HETATM   15  C14 UNL     1      23.476  -0.602  53.954  1.00  0.00     0.010 C 
HETATM   16  C15 UNL     1      22.641  -1.206  55.061  1.00  0.00     0.036 C 
HETATM   17  C16 UNL     1      21.655  -1.636  54.003  1.00  0.00     0.223 C 
BRANCH  17  18
HETATM   18  N6  UNL     1      20.263  -1.465  54.357  1.00  0.00     0.083 N 
HETATM   19  H21 UNL     1      19.845  -0.815  53.651  1.00  0.00     0.313 HD
HETATM   20  H22 UNL     1      19.763  -2.377  54.217  1.00  0.00     0.313 HD
ENDBRANCH  17  18
ENDBRANCH  13  14
ENDBRANCH  11  13
ENDBRANCH  10  11
ENDBRANCH   8  10
BRANCH   1  21
HETATM   21  N1  UNL     1      25.788   2.442  52.523  1.00  0.00    -0.339 N 
HETATM   22  H6  UNL     1      25.213   2.453  53.383  1.00  0.00     0.167 HD
BRANCH  21  23
HETATM   23  C5  UNL     1      26.824   1.514  52.851  1.00  0.00     0.033 A 
HETATM   24  C4  UNL     1      28.001   1.918  53.466  1.00  0.00     0.030 A 
HETATM   25  C3  UNL     1      29.047   1.080  53.788  1.00  0.00     0.009 A 
HETATM   26  C2  UNL     1      28.944  -0.260  53.488  1.00  0.00    -0.062 A 
HETATM   27  C1  UNL     1      30.055  -1.184  53.819  1.00  0.00     0.048 C 
HETATM   28  C19 UNL     1      27.813  -0.750  52.879  1.00  0.00     0.009 A 
HETATM   29  C18 UNL     1      26.808   0.139  52.586  1.00  0.00     0.030 A 
ENDBRANCH  21  23
ENDBRANCH   1  21
TORSDOF 7
ENDMDL
MODEL 6
REMARK VINA RESULT:      -7.5      1.756      5.229
REMARK  7 active torsions:
REMARK  status: ('A' for Active; 'I' for Inactive)
REMARK    1  A    between atoms: C5_5  and  N1_6 
REMARK    2  A    between atoms: N1_6  and  C6_7 
REMARK    3  A    between atoms: C10_14  and  C11_15 
REMARK    4  A    between atoms: C11_15  and  N5_16 
REMARK    5  A    between atoms: N5_16  and  C12_17 
REMARK    6  A    between atoms: C12_17  and  C13_18 
REMARK    7  A    between atoms: C16_21  and  N6_22 
ROOT
HETATM    1  C6  UNL     1      21.940   0.642  51.822  1.00  0.00     0.159 A 
HETATM    2  N2  UNL     1      20.734   0.838  51.310  1.00  0.00    -0.220 NA
HETATM    3  C7  UNL     1      19.622   0.321  51.849  1.00  0.00     0.258 A 
HETATM    4  N3  UNL     1      19.748  -0.426  52.958  1.00  0.00    -0.161 NA
HETATM    5  N4  UNL     1      20.968  -0.627  53.480  1.00  0.00    -0.240 N 
HETATM    6  C8  UNL     1      21.219  -1.347  54.584  1.00  0.00     0.119 A 
HETATM    7  C9  UNL     1      22.598  -1.274  54.745  1.00  0.00     0.030 A 
HETATM    8  C10 UNL     1      23.164  -0.506  53.729  1.00  0.00     0.004 A 
HETATM    9  C17 UNL     1      22.094  -0.111  52.946  1.00  0.00     0.112 A 
ENDROOT
BRANCH   8  10
HETATM   10  C11 UNL     1      24.572  -0.176  53.534  1.00  0.00     0.310 C 
BRANCH  10  11
HETATM   11  N5  UNL     1      25.413  -0.605  54.660  1.00  0.00     0.088 N 
HETATM   12  H12 UNL     1      24.802  -0.698  55.502  1.00  0.00     0.316 HD
BRANCH  11  13
HETATM   13  C12 UNL     1      26.545   0.232  54.893  1.00  0.00     0.276 C 
BRANCH  13  14
HETATM   14  C13 UNL     1      27.206   0.669  53.586  1.00  0.00     0.046 C 
HETATM   15  C14 UNL     1      27.658   2.108  53.679  1.00  0.00     0.010 C 
HETATM   16  C15 UNL     1      29.015   1.596  54.108  1.00  0.00     0.036 C 
HETATM   17  C16 UNL     1      28.659   0.281  53.460  1.00  0.00     0.223 C 
BRANCH  17  18
HETATM   18  N6  UNL     1      29.047  -0.896  54.208  1.00  0.00     0.083 N 
HETATM   19  H21 UNL     1      29.566  -0.565  55.054  1.00  0.00     0.313 HD
HETATM   20  H22 UNL     1      28.184  -1.360  54.582  1.00  0.00     0.313 HD
ENDBRANCH  17  18
ENDBRANCH  13  14
ENDBRANCH  11  13
ENDBRANCH  10  11
ENDBRANCH   8  10
BRANCH   1  21
HETATM   21  N1  UNL     1      23.054   1.242  51.187  1.00  0.00    -0.339 N 
HETATM   22  H6  UNL     1      23.845   0.880  50.628  1.00  0.00     0.167 HD
BRANCH  21  23
HETATM   23  C5  UNL     1      23.312   2.647  51.223  1.00  0.00     0.033 A 
HETATM   24  C4  UNL     1      23.448   3.397  50.062  1.00  0.00     0.030 A 
HETATM   25  C3  UNL     1      23.719   4.747  50.027  1.00  0.00     0.009 A 
HETATM   26  C2  UNL     1      23.872   5.428  51.214  1.00  0.00    -0.062 A 
HETATM   27  C1  UNL     1      24.167   6.881  51.206  1.00  0.00     0.048 C 
HETATM   28  C19 UNL     1      23.752   4.767  52.414  1.00  0.00     0.009 A 
HETATM   29  C18 UNL     1      23.481   3.421  52.378  1.00  0.00     0.030 A 
ENDBRANCH  21  23
ENDBRANCH   1  21
TORSDOF 7
ENDMDL
MODEL 7
REMARK VINA RESULT:      -7.4      2.077      6.089
REMARK  7 active torsions:
REMARK  status: ('A' for Active; 'I' for Inactive)
REMARK    1  A    between atoms: C5_5  and  N1_6 
REMARK    2  A    between atoms: N1_6  and  C6_7 
REMARK    3  A    between atoms: C10_14  and  C11_15 
REMARK    4  A    between atoms: C11_15  and  N5_16 
REMARK    5  A    between atoms: N5_16  and  C12_17 
REMARK    6  A    between atoms: C12_17  and  C13_18 
REMARK    7  A    between atoms: C16_21  and  N6_22 
ROOT
HETATM    1  C6  UNL     1      21.673   1.917  52.066  1.00  0.00     0.159 A 
HETATM    2  N2  UNL     1      20.359   1.749  52.108  1.00  0.00    -0.220 NA
HETATM    3  C7  UNL     1      19.776   0.720  52.737  1.00  0.00     0.258 A 
HETATM    4  N3  UNL     1      20.569  -0.173  53.351  1.00  0.00    -0.161 NA
HETATM    5  N4  UNL     1      21.900  -0.007  53.312  1.00  0.00    -0.240 N 
HETATM    6  C8  UNL     1      22.792  -0.827  53.889  1.00  0.00     0.119 A 
HETATM    7  C9  UNL     1      24.029  -0.265  53.595  1.00  0.00     0.030 A 
HETATM    8  C10 UNL     1      23.866   0.894  52.839  1.00  0.00     0.004 A 
HETATM    9  C17 UNL     1      22.497   1.024  52.681  1.00  0.00     0.112 A 
ENDROOT
BRANCH   8  10
HETATM   10  C11 UNL     1      24.904   1.786  52.331  1.00  0.00     0.310 C 
BRANCH  10  11
HETATM   11  N5  UNL     1      26.148   1.076  52.007  1.00  0.00     0.088 N 
HETATM   12  H12 UNL     1      25.970   0.051  52.102  1.00  0.00     0.316 HD
BRANCH  11  13
HETATM   13  C12 UNL     1      27.279   1.507  52.763  1.00  0.00     0.276 C 
BRANCH  13  14
HETATM   14  C13 UNL     1      27.603   0.540  53.901  1.00  0.00     0.046 C 
HETATM   15  C14 UNL     1      28.162  -0.752  53.351  1.00  0.00     0.010 C 
HETATM   16  C15 UNL     1      29.545  -0.173  53.548  1.00  0.00     0.036 C 
HETATM   17  C16 UNL     1      28.942   0.772  54.557  1.00  0.00     0.223 C 
BRANCH  17  18
HETATM   18  N6  UNL     1      29.430   2.133  54.491  1.00  0.00     0.083 N 
HETATM   19  H21 UNL     1      30.422   2.087  54.164  1.00  0.00     0.313 HD
HETATM   20  H22 UNL     1      28.916   2.640  53.730  1.00  0.00     0.313 HD
ENDBRANCH  17  18
ENDBRANCH  13  14
ENDBRANCH  11  13
ENDBRANCH  10  11
ENDBRANCH   8  10
BRANCH   1  21
HETATM   21  N1  UNL     1      22.192   3.044  51.386  1.00  0.00    -0.339 N 
HETATM   22  H6  UNL     1      22.649   3.921  51.691  1.00  0.00     0.167 HD
BRANCH  21  23
HETATM   23  C5  UNL     1      22.162   3.183  49.964  1.00  0.00     0.033 A 
HETATM   24  C4  UNL     1      21.879   4.396  49.352  1.00  0.00     0.030 A 
HETATM   25  C3  UNL     1      21.812   4.591  47.990  1.00  0.00     0.009 A 
HETATM   26  C2  UNL     1      22.037   3.523  47.151  1.00  0.00    -0.062 A 
HETATM   27  C1  UNL     1      21.968   3.704  45.681  1.00  0.00     0.048 C 
HETATM   28  C19 UNL     1      22.326   2.283  47.669  1.00  0.00     0.009 A 
HETATM   29  C18 UNL     1      22.378   2.157  49.036  1.00  0.00     0.030 A 
ENDBRANCH  21  23
ENDBRANCH   1  21
TORSDOF 7
ENDMDL
MODEL 8
REMARK VINA RESULT:      -7.4      2.065      5.865
REMARK  7 active torsions:
REMARK  status: ('A' for Active; 'I' for Inactive)
REMARK    1  A    between atoms: C5_5  and  N1_6 
REMARK    2  A    between atoms: N1_6  and  C6_7 
REMARK    3  A    between atoms: C10_14  and  C11_15 
REMARK    4  A    between atoms: C11_15  and  N5_16 
REMARK    5  A    between atoms: N5_16  and  C12_17 
REMARK    6  A    between atoms: C12_17  and  C13_18 
REMARK    7  A    between atoms: C16_21  and  N6_22 
ROOT
HETATM    1  C6  UNL     1      26.668   1.917  52.298  1.00  0.00     0.159 A 
HETATM    2  N2  UNL     1      27.857   2.486  52.431  1.00  0.00    -0.220 NA
HETATM    3  C7  UNL     1      28.652   2.271  53.488  1.00  0.00     0.258 A 
HETATM    4  N3  UNL     1      28.214   1.440  54.447  1.00  0.00    -0.161 NA
HETATM    5  N4  UNL     1      27.009   0.862  54.316  1.00  0.00    -0.240 N 
HETATM    6  C8  UNL     1      26.467   0.012  55.202  1.00  0.00     0.119 A 
HETATM    7  C9  UNL     1      25.236  -0.329  54.654  1.00  0.00     0.030 A 
HETATM    8  C10 UNL     1      25.050   0.324  53.437  1.00  0.00     0.004 A 
HETATM    9  C17 UNL     1      26.202   1.071  53.257  1.00  0.00     0.112 A 
ENDROOT
BRANCH   8  10
HETATM   10  C11 UNL     1      23.903   0.237  52.539  1.00  0.00     0.310 C 
BRANCH  10  11
HETATM   11  N5  UNL     1      22.670   0.752  53.149  1.00  0.00     0.088 N 
HETATM   12  H12 UNL     1      22.222  -0.028  53.680  1.00  0.00     0.316 HD
BRANCH  11  13
HETATM   13  C12 UNL     1      21.776   1.369  52.224  1.00  0.00     0.276 C 
BRANCH  13  14
HETATM   14  C13 UNL     1      21.297   0.385  51.156  1.00  0.00     0.046 C 
HETATM   15  C14 UNL     1      19.799   0.483  50.983  1.00  0.00     0.010 C 
HETATM   16  C15 UNL     1      20.048   1.465  49.860  1.00  0.00     0.036 C 
HETATM   17  C16 UNL     1      21.435   0.884  49.739  1.00  0.00     0.223 C 
BRANCH  17  18
HETATM   18  N6  UNL     1      22.490   1.853  49.529  1.00  0.00     0.083 N 
HETATM   19  H21 UNL     1      22.195   2.735  50.008  1.00  0.00     0.313 HD
HETATM   20  H22 UNL     1      23.347   1.537  50.044  1.00  0.00     0.313 HD
ENDBRANCH  17  18
ENDBRANCH  13  14
ENDBRANCH  11  13
ENDBRANCH  10  11
ENDBRANCH   8  10
BRANCH   1  21
HETATM   21  N1  UNL     1      25.907   2.197  51.137  1.00  0.00    -0.339 N 
HETATM   22  H6  UNL     1      25.214   1.664  50.585  1.00  0.00     0.167 HD
BRANCH  21  23
HETATM   23  C5  UNL     1      25.986   3.437  50.430  1.00  0.00     0.033 A 
HETATM   24  C4  UNL     1      25.080   4.465  50.650  1.00  0.00     0.030 A 
HETATM   25  C3  UNL     1      25.086   5.673  49.987  1.00  0.00     0.009 A 
HETATM   26  C2  UNL     1      26.050   5.903  49.031  1.00  0.00    -0.062 A 
HETATM   27  C1  UNL     1      26.078   7.194  48.300  1.00  0.00     0.048 C 
HETATM   28  C19 UNL     1      26.991   4.942  48.748  1.00  0.00     0.009 A 
HETATM   29  C18 UNL     1      26.928   3.760  49.445  1.00  0.00     0.030 A 
ENDBRANCH  21  23
ENDBRANCH   1  21
TORSDOF 7
ENDMDL
MODEL 9
REMARK VINA RESULT:      -7.2      2.687      6.797
REMARK  7 active torsions:
REMARK  status: ('A' for Active; 'I' for Inactive)
REMARK    1  A    between atoms: C5_5  and  N1_6 
REMARK    2  A    between atoms: N1_6  and  C6_7 
REMARK    3  A    between atoms: C10_14  and  C11_15 
REMARK    4  A    between atoms: C11_15  and  N5_16 
REMARK    5  A    between atoms: N5_16  and  C12_17 
REMARK    6  A    between atoms: C12_17  and  C13_18 
REMARK    7  A    between atoms: C16_21  and  N6_22 
ROOT
HETATM    1  C6  UNL     1      23.257   4.713  48.505  1.00  0.00     0.159 A 
HETATM    2  N2  UNL     1      22.814   5.306  47.407  1.00  0.00    -0.220 NA
HETATM    3  C7  UNL     1      21.928   4.737  46.578  1.00  0.00     0.258 A 
HETATM    4  N3  UNL     1      21.476   3.510  46.886  1.00  0.00    -0.161 NA
HETATM    5  N4  UNL     1      21.923   2.905  47.998  1.00  0.00    -0.240 N 
HETATM    6  C8  UNL     1      21.543   1.687  48.412  1.00  0.00     0.119 A 
HETATM    7  C9  UNL     1      22.248   1.480  49.592  1.00  0.00     0.030 A 
HETATM    8  C10 UNL     1      23.050   2.584  49.876  1.00  0.00     0.004 A 
HETATM    9  C17 UNL     1      22.814   3.469  48.839  1.00  0.00     0.112 A 
ENDROOT
BRANCH   8  10
HETATM   10  C11 UNL     1      23.938   2.777  51.018  1.00  0.00     0.310 C 
BRANCH  10  11
HETATM   11  N5  UNL     1      24.094   1.558  51.822  1.00  0.00     0.088 N 
HETATM   12  H12 UNL     1      23.346   1.552  52.551  1.00  0.00     0.316 HD
BRANCH  11  13
HETATM   13  C12 UNL     1      25.399   1.387  52.375  1.00  0.00     0.276 C 
BRANCH  13  14
HETATM   14  C13 UNL     1      25.599  -0.022  52.932  1.00  0.00     0.046 C 
HETATM   15  C14 UNL     1      26.623  -0.773  52.112  1.00  0.00     0.010 C 
HETATM   16  C15 UNL     1      27.670  -0.313  53.102  1.00  0.00     0.036 C 
HETATM   17  C16 UNL     1      26.555  -0.104  54.096  1.00  0.00     0.223 C 
BRANCH  17  18
HETATM   18  N6  UNL     1      26.660   1.101  54.891  1.00  0.00     0.083 N 
HETATM   19  H21 UNL     1      26.341   0.859  55.857  1.00  0.00     0.313 HD
HETATM   20  H22 UNL     1      27.674   1.351  54.994  1.00  0.00     0.313 HD
ENDBRANCH  17  18
ENDBRANCH  13  14
ENDBRANCH  11  13
ENDBRANCH  10  11
ENDBRANCH   8  10
BRANCH   1  21
HETATM   21  N1  UNL     1      24.182   5.403  49.324  1.00  0.00    -0.339 N 
HETATM   22  H6  UNL     1      24.121   5.870  50.245  1.00  0.00     0.167 HD
BRANCH  21  23
HETATM   23  C5  UNL     1      25.550   5.604  48.961  1.00  0.00     0.033 A 
HETATM   24  C4  UNL     1      25.999   6.805  48.431  1.00  0.00     0.030 A 
HETATM   25  C3  UNL     1      27.296   7.056  48.040  1.00  0.00     0.009 A 
HETATM   26  C2  UNL     1      28.237   6.059  48.174  1.00  0.00    -0.062 A 
HETATM   27  C1  UNL     1      29.640   6.300  47.758  1.00  0.00     0.048 C 
HETATM   28  C19 UNL     1      27.883   4.836  48.691  1.00  0.00     0.009 A 
HETATM   29  C18 UNL     1      26.573   4.652  49.061  1.00  0.00     0.030 A 
ENDBRANCH  21  23
ENDBRANCH   1  21
TORSDOF 7
ENDMDL
