MODEL 1
REMARK VINA RESULT:      -7.2      0.000      0.000
REMARK  5 active torsions:
REMARK  status: ('A' for Active; 'I' for Inactive)
REMARK    1  A    between atoms: C1_2  and  C2_3 
REMARK       I    between atoms: C1_2  and  N2_13 
REMARK    2  A    between atoms: C2_3  and  O2_4 
REMARK    3  A    between atoms: O2_4  and  C3_5 
REMARK    4  A    between atoms: C3_5  and  N1_6 
REMARK    5  A    between atoms: N2_13  and  C9_14 
ROOT
HETATM    1  O1  UNL     1      24.457   2.557  50.743  1.00  0.00    -0.271 OA
HETATM    2  C1  UNL     1      25.388   2.949  51.535  1.00  0.00     0.242 C 
HETATM    3  N2  UNL     1      26.341   3.712  50.828  1.00  0.00    -0.347 N 
HETATM    4  H13 UNL     1      27.093   4.070  51.449  1.00  0.00     0.163 HD
ENDROOT
BRANCH   2   5
HETATM    5  C2  UNL     1      25.100   2.452  52.886  1.00  0.00     0.272 C 
BRANCH   5   6
HETATM    6  O2  UNL     1      26.204   2.300  53.675  1.00  0.00    -0.363 OA
BRANCH   6   7
HETATM    7  C3  UNL     1      26.269   1.042  54.221  1.00  0.00     0.296 C 
BRANCH   7   8
HETATM    8  N1  UNL     1      27.378   0.261  53.702  1.00  0.00    -0.331 N 
HETATM    9  C4  UNL     1      27.253  -0.680  52.604  1.00  0.00     0.128 C 
HETATM   10  C5  UNL     1      27.917  -1.973  53.055  1.00  0.00     0.020 C 
HETATM   11  C6  UNL     1      29.384  -1.765  53.242  1.00  0.00     0.011 C 
HETATM   12  C7  UNL     1      29.746  -0.322  53.524  1.00  0.00     0.103 C 
HETATM   13  C8  UNL     1      28.677   0.390  54.266  1.00  0.00     0.221 C 
HETATM   14  O3  UNL     1      28.809   1.076  55.317  1.00  0.00    -0.273 OA
ENDBRANCH   7   8
ENDBRANCH   6   7
ENDBRANCH   5   6
ENDBRANCH   2   5
BRANCH   3  15
HETATM   15  C9  UNL     1      26.231   3.961  49.431  1.00  0.00     0.144 A 
HETATM   16  C10 UNL     1      27.483   4.525  48.866  1.00  0.00     0.016 A 
HETATM   17  C11 UNL     1      27.055   5.725  48.563  1.00  0.00    -0.010 A 
HETATM   18  C12 UNL     1      27.008   7.110  48.084  1.00  0.00     0.128 A 
HETATM   19  C14 UNL     1      25.732   5.332  49.088  1.00  0.00    -0.003 A 
HETATM   20  N3  UNL     1      25.790   7.495  48.301  1.00  0.00    -0.272 NA
HETATM   21  C13 UNL     1      25.029   6.458  48.892  1.00  0.00     0.126 A 
ENDBRANCH   3  15
TORSDOF 5
ENDMDL
MODEL 2
REMARK VINA RESULT:      -7.0      3.278      6.333
REMARK  5 active torsions:
REMARK  status: ('A' for Active; 'I' for Inactive)
REMARK    1  A    between atoms: C1_2  and  C2_3 
REMARK       I    between atoms: C1_2  and  N2_13 
REMARK    2  A    between atoms: C2_3  and  O2_4 
REMARK    3  A    between atoms: O2_4  and  C3_5 
REMARK    4  A    between atoms: C3_5  and  N1_6 
REMARK    5  A    between atoms: N2_13  and  C9_14 
ROOT
HETATM    1  O1  UNL     1      24.543   3.121  53.481  1.00  0.00    -0.271 OA
HETATM    2  C1  UNL     1      24.969   2.904  52.290  1.00  0.00     0.242 C 
HETATM    3  N2  UNL     1      26.285   2.396  52.327  1.00  0.00    -0.347 N 
HETATM    4  H13 UNL     1      26.647   2.181  51.378  1.00  0.00     0.163 HD
ENDROOT
BRANCH   2   5
HETATM    5  C2  UNL     1      23.914   3.269  51.337  1.00  0.00     0.272 C 
BRANCH   5   6
HETATM    6  O2  UNL     1      22.697   2.712  51.607  1.00  0.00    -0.363 OA
BRANCH   6   7
HETATM    7  C3  UNL     1      22.637   1.400  51.207  1.00  0.00     0.296 C 
BRANCH   7   8
HETATM    8  N1  UNL     1      22.130   0.518  52.244  1.00  0.00    -0.331 N 
HETATM    9  C4  UNL     1      20.724   0.407  52.584  1.00  0.00     0.128 C 
HETATM   10  C5  UNL     1      20.627   0.526  54.098  1.00  0.00     0.020 C 
HETATM   11  C6  UNL     1      21.294  -0.637  54.754  1.00  0.00     0.011 C 
HETATM   12  C7  UNL     1      22.352  -1.282  53.883  1.00  0.00     0.103 C 
HETATM   13  C8  UNL     1      23.019  -0.301  52.992  1.00  0.00     0.221 C 
HETATM   14  O3  UNL     1      24.261  -0.131  52.843  1.00  0.00    -0.273 OA
ENDBRANCH   7   8
ENDBRANCH   6   7
ENDBRANCH   5   6
ENDBRANCH   2   5
BRANCH   3  15
HETATM   15  C9  UNL     1      26.986   2.190  53.548  1.00  0.00     0.144 A 
HETATM   16  C10 UNL     1      28.445   2.422  53.398  1.00  0.00     0.016 A 
HETATM   17  C11 UNL     1      28.873   1.197  53.576  1.00  0.00    -0.010 A 
HETATM   18  C12 UNL     1      29.752   0.033  53.709  1.00  0.00     0.128 A 
HETATM   19  C14 UNL     1      27.466   0.784  53.753  1.00  0.00    -0.003 A 
HETATM   20  N3  UNL     1      28.954  -0.961  53.940  1.00  0.00    -0.272 NA
HETATM   21  C13 UNL     1      27.606  -0.532  53.968  1.00  0.00     0.126 A 
ENDBRANCH   3  15
TORSDOF 5
ENDMDL
MODEL 3
REMARK VINA RESULT:      -7.0      2.418      3.015
REMARK  5 active torsions:
REMARK  status: ('A' for Active; 'I' for Inactive)
REMARK    1  A    between atoms: C1_2  and  C2_3 
REMARK       I    between atoms: C1_2  and  N2_13 
REMARK    2  A    between atoms: C2_3  and  O2_4 
REMARK    3  A    between atoms: O2_4  and  C3_5 
REMARK    4  A    between atoms: C3_5  and  N1_6 
REMARK    5  A    between atoms: N2_13  and  C9_14 
ROOT
HETATM    1  O1  UNL     1      23.618   4.272  49.986  1.00  0.00    -0.271 OA
HETATM    2  C1  UNL     1      24.300   4.767  50.955  1.00  0.00     0.242 C 
HETATM    3  N2  UNL     1      25.556   5.209  50.489  1.00  0.00    -0.347 N 
HETATM    4  H13 UNL     1      26.122   5.643  51.245  1.00  0.00     0.163 HD
ENDROOT
BRANCH   2   5
HETATM    5  C2  UNL     1      23.504   4.685  52.185  1.00  0.00     0.272 C 
BRANCH   5   6
HETATM    6  O2  UNL     1      24.015   3.841  53.128  1.00  0.00    -0.363 OA
BRANCH   6   7
HETATM    7  C3  UNL     1      23.614   2.544  52.922  1.00  0.00     0.296 C 
BRANCH   7   8
HETATM    8  N1  UNL     1      24.724   1.607  52.917  1.00  0.00    -0.331 N 
HETATM    9  C4  UNL     1      26.109   2.005  52.746  1.00  0.00     0.128 C 
HETATM   10  C5  UNL     1      26.699   1.095  51.678  1.00  0.00     0.020 C 
HETATM   11  C6  UNL     1      26.742  -0.316  52.164  1.00  0.00     0.011 C 
HETATM   12  C7  UNL     1      25.721  -0.601  53.246  1.00  0.00     0.103 C 
HETATM   13  C8  UNL     1      24.492   0.214  53.086  1.00  0.00     0.221 C 
HETATM   14  O3  UNL     1      23.300  -0.200  53.085  1.00  0.00    -0.273 OA
ENDBRANCH   7   8
ENDBRANCH   6   7
ENDBRANCH   5   6
ENDBRANCH   2   5
BRANCH   3  15
HETATM   15  C9  UNL     1      25.951   5.082  49.128  1.00  0.00     0.144 A 
HETATM   16  C10 UNL     1      27.141   4.207  48.974  1.00  0.00     0.016 A 
HETATM   17  C11 UNL     1      28.011   5.101  48.577  1.00  0.00    -0.010 A 
HETATM   18  C12 UNL     1      29.254   5.736  48.130  1.00  0.00     0.128 A 
HETATM   19  C14 UNL     1      26.940   6.114  48.675  1.00  0.00    -0.003 A 
HETATM   20  N3  UNL     1      28.953   6.987  47.979  1.00  0.00    -0.272 NA
HETATM   21  C13 UNL     1      27.594   7.223  48.297  1.00  0.00     0.126 A 
ENDBRANCH   3  15
TORSDOF 5
ENDMDL
MODEL 4
REMARK VINA RESULT:      -6.9      3.316      6.255
REMARK  5 active torsions:
REMARK  status: ('A' for Active; 'I' for Inactive)
REMARK    1  A    between atoms: C1_2  and  C2_3 
REMARK       I    between atoms: C1_2  and  N2_13 
REMARK    2  A    between atoms: C2_3  and  O2_4 
REMARK    3  A    between atoms: O2_4  and  C3_5 
REMARK    4  A    between atoms: C3_5  and  N1_6 
REMARK    5  A    between atoms: N2_13  and  C9_14 
ROOT
HETATM    1  O1  UNL     1      25.219   3.084  49.967  1.00  0.00    -0.271 OA
HETATM    2  C1  UNL     1      24.745   3.328  51.134  1.00  0.00     0.242 C 
HETATM    3  N2  UNL     1      25.623   2.846  52.128  1.00  0.00    -0.347 N 
HETATM    4  H13 UNL     1      25.281   3.055  53.086  1.00  0.00     0.163 HD
ENDROOT
BRANCH   2   5
HETATM    5  C2  UNL     1      23.461   4.024  50.988  1.00  0.00     0.272 C 
BRANCH   5   6
HETATM    6  O2  UNL     1      22.461   3.527  51.773  1.00  0.00    -0.363 OA
BRANCH   6   7
HETATM    7  C3  UNL     1      22.106   2.255  51.398  1.00  0.00     0.296 C 
BRANCH   7   8
HETATM    8  N1  UNL     1      21.975   1.352  52.529  1.00  0.00    -0.331 N 
HETATM    9  C4  UNL     1      23.092   0.642  53.122  1.00  0.00     0.128 C 
HETATM   10  C5  UNL     1      22.670  -0.815  53.249  1.00  0.00     0.020 C 
HETATM   11  C6  UNL     1      21.546  -0.947  54.223  1.00  0.00     0.011 C 
HETATM   12  C7  UNL     1      20.743   0.328  54.376  1.00  0.00     0.103 C 
HETATM   13  C8  UNL     1      20.703   1.120  53.123  1.00  0.00     0.221 C 
HETATM   14  O3  UNL     1      19.680   1.590  52.552  1.00  0.00    -0.273 OA
ENDBRANCH   7   8
ENDBRANCH   6   7
ENDBRANCH   5   6
ENDBRANCH   2   5
BRANCH   3  15
HETATM   15  C9  UNL     1      26.839   2.180  51.809  1.00  0.00     0.144 A 
HETATM   16  C10 UNL     1      26.791   0.736  52.154  1.00  0.00     0.016 A 
HETATM   17  C11 UNL     1      27.670   0.722  53.125  1.00  0.00    -0.010 A 
HETATM   18  C12 UNL     1      28.542   0.265  54.211  1.00  0.00     0.128 A 
HETATM   19  C14 UNL     1      27.847   2.174  52.919  1.00  0.00    -0.003 A 
HETATM   20  N3  UNL     1      29.167   1.328  54.605  1.00  0.00    -0.272 NA
HETATM   21  C13 UNL     1      28.767   2.459  53.853  1.00  0.00     0.126 A 
ENDBRANCH   3  15
TORSDOF 5
ENDMDL
MODEL 5
REMARK VINA RESULT:      -6.6      2.968      6.562
REMARK  5 active torsions:
REMARK  status: ('A' for Active; 'I' for Inactive)
REMARK    1  A    between atoms: C1_2  and  C2_3 
REMARK       I    between atoms: C1_2  and  N2_13 
REMARK    2  A    between atoms: C2_3  and  O2_4 
REMARK    3  A    between atoms: O2_4  and  C3_5 
REMARK    4  A    between atoms: C3_5  and  N1_6 
REMARK    5  A    between atoms: N2_13  and  C9_14 
ROOT
HETATM    1  O1  UNL     1      26.908   3.314  50.007  1.00  0.00    -0.271 OA
HETATM    2  C1  UNL     1      25.819   3.279  50.685  1.00  0.00     0.242 C 
HETATM    3  N2  UNL     1      25.851   2.209  51.605  1.00  0.00    -0.347 N 
HETATM    4  H13 UNL     1      24.995   2.172  52.191  1.00  0.00     0.163 HD
ENDROOT
BRANCH   2   5
HETATM    5  C2  UNL     1      24.950   4.376  50.242  1.00  0.00     0.272 C 
BRANCH   5   6
HETATM    6  O2  UNL     1      23.739   4.421  50.871  1.00  0.00    -0.363 OA
BRANCH   6   7
HETATM    7  C3  UNL     1      22.767   3.776  50.148  1.00  0.00     0.296 C 
BRANCH   7   8
HETATM    8  N1  UNL     1      22.238   2.609  50.833  1.00  0.00    -0.331 N 
HETATM    9  C4  UNL     1      22.061   2.535  52.271  1.00  0.00     0.128 C 
HETATM   10  C5  UNL     1      22.682   1.221  52.724  1.00  0.00     0.020 C 
HETATM   11  C6  UNL     1      21.920   0.067  52.164  1.00  0.00     0.011 C 
HETATM   12  C7  UNL     1      21.164   0.414  50.898  1.00  0.00     0.103 C 
HETATM   13  C8  UNL     1      21.856   1.453  50.098  1.00  0.00     0.221 C 
HETATM   14  O3  UNL     1      22.131   1.407  48.867  1.00  0.00    -0.273 OA
ENDBRANCH   7   8
ENDBRANCH   6   7
ENDBRANCH   5   6
ENDBRANCH   2   5
BRANCH   3  15
HETATM   15  C9  UNL     1      26.962   1.325  51.704  1.00  0.00     0.144 A 
HETATM   16  C10 UNL     1      26.642   0.117  52.507  1.00  0.00     0.016 A 
HETATM   17  C11 UNL     1      27.419   0.338  53.538  1.00  0.00    -0.010 A 
HETATM   18  C12 UNL     1      28.104   0.190  54.825  1.00  0.00     0.128 A 
HETATM   19  C14 UNL     1      27.854   1.587  52.880  1.00  0.00    -0.003 A 
HETATM   20  N3  UNL     1      28.862   1.236  54.920  1.00  0.00    -0.272 NA
HETATM   21  C13 UNL     1      28.724   2.066  53.782  1.00  0.00     0.126 A 
ENDBRANCH   3  15
TORSDOF 5
ENDMDL
MODEL 6
REMARK VINA RESULT:      -6.4      4.451      7.388
REMARK  5 active torsions:
REMARK  status: ('A' for Active; 'I' for Inactive)
REMARK    1  A    between atoms: C1_2  and  C2_3 
REMARK       I    between atoms: C1_2  and  N2_13 
REMARK    2  A    between atoms: C2_3  and  O2_4 
REMARK    3  A    between atoms: O2_4  and  C3_5 
REMARK    4  A    between atoms: C3_5  and  N1_6 
REMARK    5  A    between atoms: N2_13  and  C9_14 
ROOT
HETATM    1  O1  UNL     1      24.273   1.889  51.019  1.00  0.00    -0.271 OA
HETATM    2  C1  UNL     1      24.037   1.726  52.270  1.00  0.00     0.242 C 
HETATM    3  N2  UNL     1      25.092   1.009  52.875  1.00  0.00    -0.347 N 
HETATM    4  H13 UNL     1      24.945   0.886  53.895  1.00  0.00     0.163 HD
ENDROOT
BRANCH   2   5
HETATM    5  C2  UNL     1      22.752   2.354  52.596  1.00  0.00     0.272 C 
BRANCH   5   6
HETATM    6  O2  UNL     1      21.694   1.872  51.879  1.00  0.00    -0.363 OA
BRANCH   6   7
HETATM    7  C3  UNL     1      20.537   1.874  52.617  1.00  0.00     0.296 C 
BRANCH   7   8
HETATM    8  N1  UNL     1      19.941   0.555  52.732  1.00  0.00    -0.331 N 
HETATM    9  C4  UNL     1      19.039  -0.007  51.744  1.00  0.00     0.128 C 
HETATM   10  C5  UNL     1      17.834  -0.544  52.502  1.00  0.00     0.020 C 
HETATM   11  C6  UNL     1      18.236  -1.685  53.376  1.00  0.00     0.011 C 
HETATM   12  C7  UNL     1      19.703  -1.654  53.753  1.00  0.00     0.103 C 
HETATM   13  C8  UNL     1      20.226  -0.270  53.855  1.00  0.00     0.221 C 
HETATM   14  O3  UNL     1      20.879   0.227  54.814  1.00  0.00    -0.273 OA
ENDBRANCH   7   8
ENDBRANCH   6   7
ENDBRANCH   5   6
ENDBRANCH   2   5
BRANCH   3  15
HETATM   15  C9  UNL     1      26.220   0.552  52.139  1.00  0.00     0.144 A 
HETATM   16  C10 UNL     1      26.574  -0.851  52.477  1.00  0.00     0.016 A 
HETATM   17  C11 UNL     1      27.725  -0.642  53.066  1.00  0.00    -0.010 A 
HETATM   18  C12 UNL     1      28.994  -0.862  53.765  1.00  0.00     0.128 A 
HETATM   19  C14 UNL     1      27.537   0.801  52.812  1.00  0.00    -0.003 A 
HETATM   20  N3  UNL     1      29.503   0.321  53.909  1.00  0.00    -0.272 NA
HETATM   21  C13 UNL     1      28.655   1.308  53.353  1.00  0.00     0.126 A 
ENDBRANCH   3  15
TORSDOF 5
ENDMDL
MODEL 7
REMARK VINA RESULT:      -6.4      5.166      7.591
REMARK  5 active torsions:
REMARK  status: ('A' for Active; 'I' for Inactive)
REMARK    1  A    between atoms: C1_2  and  C2_3 
REMARK       I    between atoms: C1_2  and  N2_13 
REMARK    2  A    between atoms: C2_3  and  O2_4 
REMARK    3  A    between atoms: O2_4  and  C3_5 
REMARK    4  A    between atoms: C3_5  and  N1_6 
REMARK    5  A    between atoms: N2_13  and  C9_14 
ROOT
HETATM    1  O1  UNL     1      29.686   8.128  47.230  1.00  0.00    -0.271 OA
HETATM    2  C1  UNL     1      29.826   7.966  48.495  1.00  0.00     0.242 C 
HETATM    3  N2  UNL     1      28.886   7.029  48.974  1.00  0.00    -0.347 N 
HETATM    4  H13 UNL     1      28.994   6.854  49.992  1.00  0.00     0.163 HD
ENDROOT
BRANCH   2   5
HETATM    5  C2  UNL     1      30.922   8.823  48.963  1.00  0.00     0.272 C 
BRANCH   5   6
HETATM    6  O2  UNL     1      32.129   8.557  48.384  1.00  0.00    -0.363 OA
BRANCH   6   7
HETATM    7  C3  UNL     1      32.798   7.553  49.039  1.00  0.00     0.296 C 
BRANCH   7   8
HETATM    8  N1  UNL     1      32.996   6.376  48.212  1.00  0.00    -0.331 N 
HETATM    9  C4  UNL     1      33.878   6.343  47.060  1.00  0.00     0.128 C 
HETATM   10  C5  UNL     1      33.085   5.729  45.916  1.00  0.00     0.020 C 
HETATM   11  C6  UNL     1      32.761   4.303  46.215  1.00  0.00     0.011 C 
HETATM   12  C7  UNL     1      32.745   3.998  47.699  1.00  0.00     0.103 C 
HETATM   13  C8  UNL     1      32.311   5.164  48.506  1.00  0.00     0.221 C 
HETATM   14  O3  UNL     1      31.419   5.181  49.399  1.00  0.00    -0.273 OA
ENDBRANCH   7   8
ENDBRANCH   6   7
ENDBRANCH   5   6
ENDBRANCH   2   5
BRANCH   3  15
HETATM   15  C9  UNL     1      27.937   6.401  48.120  1.00  0.00     0.144 A 
HETATM   16  C10 UNL     1      26.575   6.969  48.289  1.00  0.00     0.016 A 
HETATM   17  C11 UNL     1      25.977   5.931  48.817  1.00  0.00    -0.010 A 
HETATM   18  C12 UNL     1      24.955   5.058  49.403  1.00  0.00     0.128 A 
HETATM   19  C14 UNL     1      27.261   5.207  48.726  1.00  0.00    -0.003 A 
HETATM   20  N3  UNL     1      25.567   3.939  49.632  1.00  0.00    -0.272 NA
HETATM   21  C13 UNL     1      26.925   4.014  49.238  1.00  0.00     0.126 A 
ENDBRANCH   3  15
TORSDOF 5
ENDMDL
MODEL 8
REMARK VINA RESULT:      -6.3      2.425      6.741
REMARK  5 active torsions:
REMARK  status: ('A' for Active; 'I' for Inactive)
REMARK    1  A    between atoms: C1_2  and  C2_3 
REMARK       I    between atoms: C1_2  and  N2_13 
REMARK    2  A    between atoms: C2_3  and  O2_4 
REMARK    3  A    between atoms: O2_4  and  C3_5 
REMARK    4  A    between atoms: C3_5  and  N1_6 
REMARK    5  A    between atoms: N2_13  and  C9_14 
ROOT
HETATM    1  O1  UNL     1      23.343   2.309  51.071  1.00  0.00    -0.271 OA
HETATM    2  C1  UNL     1      23.633   3.163  51.985  1.00  0.00     0.242 C 
HETATM    3  N2  UNL     1      24.703   2.687  52.774  1.00  0.00    -0.347 N 
HETATM    4  H13 UNL     1      24.981   3.370  53.505  1.00  0.00     0.163 HD
ENDROOT
BRANCH   2   5
HETATM    5  C2  UNL     1      22.737   4.317  51.856  1.00  0.00     0.272 C 
BRANCH   5   6
HETATM    6  O2  UNL     1      23.045   5.154  50.822  1.00  0.00    -0.363 OA
BRANCH   6   7
HETATM    7  C3  UNL     1      24.203   5.852  51.060  1.00  0.00     0.296 C 
BRANCH   7   8
HETATM    8  N1  UNL     1      25.198   5.664  50.019  1.00  0.00    -0.331 N 
HETATM    9  C4  UNL     1      25.374   4.420  49.293  1.00  0.00     0.128 C 
HETATM   10  C5  UNL     1      26.862   4.102  49.318  1.00  0.00     0.020 C 
HETATM   11  C6  UNL     1      27.625   5.129  48.549  1.00  0.00     0.011 C 
HETATM   12  C7  UNL     1      26.903   6.457  48.457  1.00  0.00     0.103 C 
HETATM   13  C8  UNL     1      26.069   6.727  49.653  1.00  0.00     0.221 C 
HETATM   14  O3  UNL     1      26.062   7.776  50.354  1.00  0.00    -0.273 OA
ENDBRANCH   7   8
ENDBRANCH   6   7
ENDBRANCH   5   6
ENDBRANCH   2   5
BRANCH   3  15
HETATM   15  C9  UNL     1      25.316   1.424  52.542  1.00  0.00     0.144 A 
HETATM   16  C10 UNL     1      25.192   0.522  53.715  1.00  0.00     0.016 A 
HETATM   17  C11 UNL     1      26.452   0.460  54.067  1.00  0.00    -0.010 A 
HETATM   18  C12 UNL     1      27.686   0.121  54.782  1.00  0.00     0.128 A 
HETATM   19  C14 UNL     1      26.761   1.360  52.937  1.00  0.00    -0.003 A 
HETATM   20  N3  UNL     1      28.622   0.751  54.146  1.00  0.00    -0.272 NA
HETATM   21  C13 UNL     1      28.091   1.484  53.058  1.00  0.00     0.126 A 
ENDBRANCH   3  15
TORSDOF 5
ENDMDL
MODEL 9
REMARK VINA RESULT:      -6.2      2.920      6.945
REMARK  5 active torsions:
REMARK  status: ('A' for Active; 'I' for Inactive)
REMARK    1  A    between atoms: C1_2  and  C2_3 
REMARK       I    between atoms: C1_2  and  N2_13 
REMARK    2  A    between atoms: C2_3  and  O2_4 
REMARK    3  A    between atoms: O2_4  and  C3_5 
REMARK    4  A    between atoms: C3_5  and  N1_6 
REMARK    5  A    between atoms: N2_13  and  C9_14 
ROOT
HETATM    1  O1  UNL     1      24.095   1.354  51.360  1.00  0.00    -0.271 OA
HETATM    2  C1  UNL     1      23.897   0.975  52.571  1.00  0.00     0.242 C 
HETATM    3  N2  UNL     1      25.042   0.318  53.069  1.00  0.00    -0.347 N 
HETATM    4  H13 UNL     1      24.924   0.025  54.058  1.00  0.00     0.163 HD
ENDROOT
BRANCH   2   5
HETATM    5  C2  UNL     1      22.545   1.377  52.977  1.00  0.00     0.272 C 
BRANCH   5   6
HETATM    6  O2  UNL     1      21.788   1.899  51.968  1.00  0.00    -0.363 OA
BRANCH   6   7
HETATM    7  C3  UNL     1      21.486   3.220  52.191  1.00  0.00     0.296 C 
BRANCH   7   8
HETATM    8  N1  UNL     1      22.243   4.121  51.339  1.00  0.00    -0.331 N 
HETATM    9  C4  UNL     1      22.017   4.256  49.912  1.00  0.00     0.128 C 
HETATM   10  C5  UNL     1      23.379   4.156  49.240  1.00  0.00     0.020 C 
HETATM   11  C6  UNL     1      24.233   5.318  49.624  1.00  0.00     0.011 C 
HETATM   12  C7  UNL     1      23.832   5.937  50.946  1.00  0.00     0.103 C 
HETATM   13  C8  UNL     1      23.271   4.937  51.887  1.00  0.00     0.221 C 
HETATM   14  O3  UNL     1      23.611   4.749  53.088  1.00  0.00    -0.273 OA
ENDBRANCH   7   8
ENDBRANCH   6   7
ENDBRANCH   5   6
ENDBRANCH   2   5
BRANCH   3  15
HETATM   15  C9  UNL     1      26.211   0.126  52.282  1.00  0.00     0.144 A 
HETATM   16  C10 UNL     1      26.858  -1.182  52.557  1.00  0.00     0.016 A 
HETATM   17  C11 UNL     1      27.964  -0.757  53.117  1.00  0.00    -0.010 A 
HETATM   18  C12 UNL     1      29.277  -0.729  53.767  1.00  0.00     0.128 A 
HETATM   19  C14 UNL     1      27.473   0.622  52.922  1.00  0.00    -0.003 A 
HETATM   20  N3  UNL     1      29.536   0.529  53.938  1.00  0.00    -0.272 NA
HETATM   21  C13 UNL     1      28.482   1.335  53.445  1.00  0.00     0.126 A 
ENDBRANCH   3  15
TORSDOF 5
ENDMDL
