MODEL 1
REMARK VINA RESULT:      -9.2      0.000      0.000
REMARK  5 active torsions:
REMARK  status: ('A' for Active; 'I' for Inactive)
REMARK       I    between atoms: N1_1  and  C1_2 
REMARK       I    between atoms: C1_2  and  N2_4 
REMARK    1  A    between atoms: N2_4  and  C2_5 
REMARK    2  A    between atoms: C7_12  and  N5_13 
REMARK    3  A    between atoms: N5_13  and  C8_14 
REMARK    4  A    between atoms: C11_17  and  O2_18 
REMARK    5  A    between atoms: O2_18  and  C12_19 
ROOT
HETATM    1  C2  UNL     1      24.589  -0.459  53.999  1.00  0.00     0.037 A 
HETATM    2  C3  UNL     1      23.673  -0.911  54.920  1.00  0.00     0.032 A 
HETATM    3  C4  UNL     1      22.328  -0.686  54.743  1.00  0.00     0.035 A 
HETATM    4  C5  UNL     1      21.925   0.001  53.626  1.00  0.00     0.072 A 
HETATM    5  N3  UNL     1      20.593   0.192  53.501  1.00  0.00    -0.241 NA
HETATM    6  C6  UNL     1      20.122   0.864  52.416  1.00  0.00     0.236 A 
HETATM    7  N4  UNL     1      20.991   1.313  51.508  1.00  0.00    -0.224 NA
HETATM    8  C7  UNL     1      22.316   1.163  51.560  1.00  0.00     0.142 A 
HETATM    9  C20 UNL     1      22.772   0.488  52.653  1.00  0.00     0.041 A 
HETATM   10  C21 UNL     1      24.097   0.218  52.910  1.00  0.00     0.047 A 
ENDROOT
BRANCH   8  11
HETATM   11  N5  UNL     1      23.204   1.642  50.597  1.00  0.00    -0.340 N 
HETATM   12  H7  UNL     1      23.532   1.043  49.845  1.00  0.00     0.167 HD
BRANCH  11  13
HETATM   13  C8  UNL     1      23.757   2.952  50.503  1.00  0.00     0.035 A 
HETATM   14  C9  UNL     1      23.159   4.070  51.036  1.00  0.00     0.032 A 
HETATM   15  C10 UNL     1      23.764   5.333  50.929  1.00  0.00     0.041 A 
HETATM   16  C11 UNL     1      24.995   5.497  50.275  1.00  0.00     0.091 A 
HETATM   17  C18 UNL     1      25.584   4.382  49.747  1.00  0.00     0.069 A 
HETATM   18 CL1  UNL     1      27.097   4.539  48.933  1.00  0.00    -0.081 Cl
HETATM   19  C19 UNL     1      24.968   3.166  49.868  1.00  0.00     0.056 A 
BRANCH  16  20
HETATM   20  O2  UNL     1      25.354   6.805  50.311  1.00  0.00    -0.336 OA
BRANCH  20  21
HETATM   21  C12 UNL     1      25.008   7.923  49.618  1.00  0.00     0.178 C 
HETATM   22  C13 UNL     1      25.789   9.143  50.054  1.00  0.00     0.021 C 
HETATM   23  C14 UNL     1      27.060   8.776  50.082  1.00  0.00    -0.024 C 
HETATM   24  C15 UNL     1      27.525   8.173  49.005  1.00  0.00     0.054 C 
HETATM   25  C16 UNL     1      26.632   7.856  47.881  1.00  0.00     0.116 C 
HETATM   26  F1  UNL     1      27.277   7.745  46.685  1.00  0.00    -0.206 F 
HETATM   27  C17 UNL     1      25.324   7.717  48.148  1.00  0.00     0.051 C 
ENDBRANCH  20  21
ENDBRANCH  16  20
ENDBRANCH  11  13
ENDBRANCH   8  11
BRANCH   1  28
HETATM   28  N2  UNL     1      25.935  -0.759  54.301  1.00  0.00    -0.309 N 
HETATM   29  C1  UNL     1      26.995   0.101  54.678  1.00  0.00     0.318 C 
HETATM   30  N1  UNL     1      28.333  -0.278  54.968  1.00  0.00    -0.352 N 
HETATM   31  O1  UNL     1      26.779   1.333  54.779  1.00  0.00    -0.247 OA
HETATM   32  H1  UNL     1      29.003  -0.688  54.279  1.00  0.00     0.160 HD
HETATM   33  H2  UNL     1      28.801  -0.187  55.907  1.00  0.00     0.160 HD
HETATM   34  H3  UNL     1      26.299  -1.732  54.271  1.00  0.00     0.170 HD
ENDBRANCH   1  28
TORSDOF 5
ENDMDL
MODEL 2
REMARK VINA RESULT:      -8.9      4.624      8.846
REMARK  5 active torsions:
REMARK  status: ('A' for Active; 'I' for Inactive)
REMARK       I    between atoms: N1_1  and  C1_2 
REMARK       I    between atoms: C1_2  and  N2_4 
REMARK    1  A    between atoms: N2_4  and  C2_5 
REMARK    2  A    between atoms: C7_12  and  N5_13 
REMARK    3  A    between atoms: N5_13  and  C8_14 
REMARK    4  A    between atoms: C11_17  and  O2_18 
REMARK    5  A    between atoms: O2_18  and  C12_19 
ROOT
HETATM    1  C2  UNL     1      30.108   7.034  47.873  1.00  0.00     0.037 A 
HETATM    2  C3  UNL     1      30.574   8.258  48.294  1.00  0.00     0.032 A 
HETATM    3  C4  UNL     1      29.750   9.131  48.964  1.00  0.00     0.035 A 
HETATM    4  C5  UNL     1      28.454   8.752  49.200  1.00  0.00     0.072 A 
HETATM    5  N3  UNL     1      27.689   9.647  49.864  1.00  0.00    -0.241 NA
HETATM    6  C6  UNL     1      26.393   9.337  50.134  1.00  0.00     0.236 A 
HETATM    7  N4  UNL     1      25.916   8.155  49.735  1.00  0.00    -0.224 NA
HETATM    8  C7  UNL     1      26.606   7.221  49.078  1.00  0.00     0.142 A 
HETATM    9  C20 UNL     1      27.904   7.548  48.815  1.00  0.00     0.041 A 
HETATM   10  C21 UNL     1      28.796   6.736  48.152  1.00  0.00     0.047 A 
ENDROOT
BRANCH   8  11
HETATM   11  N5  UNL     1      26.084   5.993  48.672  1.00  0.00    -0.340 N 
HETATM   12  H7  UNL     1      25.821   5.832  47.704  1.00  0.00     0.167 HD
BRANCH  11  13
HETATM   13  C8  UNL     1      25.852   4.841  49.478  1.00  0.00     0.035 A 
HETATM   14  C9  UNL     1      26.692   3.752  49.506  1.00  0.00     0.032 A 
HETATM   15  C10 UNL     1      26.421   2.653  50.337  1.00  0.00     0.041 A 
HETATM   16  C11 UNL     1      25.286   2.626  51.163  1.00  0.00     0.091 A 
HETATM   17  C18 UNL     1      24.455   3.712  51.130  1.00  0.00     0.069 A 
HETATM   18 CL1  UNL     1      23.048   3.722  52.128  1.00  0.00    -0.081 Cl
HETATM   19  C19 UNL     1      24.747   4.768  50.309  1.00  0.00     0.056 A 
BRANCH  16  20
HETATM   20  O2  UNL     1      25.259   1.461  51.857  1.00  0.00    -0.336 OA
BRANCH  20  21
HETATM   21  C12 UNL     1      25.186   1.120  53.171  1.00  0.00     0.178 C 
HETATM   22  C13 UNL     1      25.268  -0.375  53.390  1.00  0.00     0.021 C 
HETATM   23  C14 UNL     1      26.299  -0.795  52.677  1.00  0.00    -0.024 C 
HETATM   24  C15 UNL     1      27.436  -0.146  52.841  1.00  0.00     0.054 C 
HETATM   25  C16 UNL     1      27.502   1.038  53.709  1.00  0.00     0.116 C 
HETATM   26  F1  UNL     1      28.748   1.281  54.207  1.00  0.00    -0.206 F 
HETATM   27  C17 UNL     1      26.367   1.724  53.910  1.00  0.00     0.051 C 
ENDBRANCH  20  21
ENDBRANCH  16  20
ENDBRANCH  11  13
ENDBRANCH   8  11
BRANCH   1  28
HETATM   28  N2  UNL     1      31.056   6.235  47.199  1.00  0.00    -0.309 N 
HETATM   29  C1  UNL     1      31.866   5.180  47.687  1.00  0.00     0.318 C 
HETATM   30  N1  UNL     1      32.804   4.417  46.942  1.00  0.00    -0.352 N 
HETATM   31  O1  UNL     1      31.781   4.849  48.894  1.00  0.00    -0.247 OA
HETATM   32  H1  UNL     1      33.678   4.795  46.511  1.00  0.00     0.160 HD
HETATM   33  H2  UNL     1      32.728   3.386  46.741  1.00  0.00     0.160 HD
HETATM   34  H3  UNL     1      31.261   6.364  46.188  1.00  0.00     0.170 HD
ENDBRANCH   1  28
TORSDOF 5
ENDMDL
MODEL 3
REMARK VINA RESULT:      -8.8      2.036      3.885
REMARK  5 active torsions:
REMARK  status: ('A' for Active; 'I' for Inactive)
REMARK       I    between atoms: N1_1  and  C1_2 
REMARK       I    between atoms: C1_2  and  N2_4 
REMARK    1  A    between atoms: N2_4  and  C2_5 
REMARK    2  A    between atoms: C7_12  and  N5_13 
REMARK    3  A    between atoms: N5_13  and  C8_14 
REMARK    4  A    between atoms: C11_17  and  O2_18 
REMARK    5  A    between atoms: O2_18  and  C12_19 
ROOT
HETATM    1  C2  UNL     1      23.032  -0.983  54.132  1.00  0.00     0.037 A 
HETATM    2  C3  UNL     1      23.461  -1.368  55.380  1.00  0.00     0.032 A 
HETATM    3  C4  UNL     1      24.750  -1.120  55.788  1.00  0.00     0.035 A 
HETATM    4  C5  UNL     1      25.596  -0.480  54.919  1.00  0.00     0.072 A 
HETATM    5  N3  UNL     1      26.851  -0.260  55.371  1.00  0.00    -0.241 NA
HETATM    6  C6  UNL     1      27.743   0.372  54.562  1.00  0.00     0.236 A 
HETATM    7  N4  UNL     1      27.351   0.756  53.345  1.00  0.00    -0.224 NA
HETATM    8  C7  UNL     1      26.133   0.576  52.828  1.00  0.00     0.142 A 
HETATM    9  C20 UNL     1      25.251  -0.059  53.651  1.00  0.00     0.041 A 
HETATM   10  C21 UNL     1      23.945  -0.347  53.326  1.00  0.00     0.047 A 
ENDROOT
BRANCH   8  11
HETATM   11  N5  UNL     1      25.748   0.987  51.552  1.00  0.00    -0.340 N 
HETATM   12  H7  UNL     1      25.538   0.308  50.826  1.00  0.00     0.167 HD
BRANCH  11  13
HETATM   13  C8  UNL     1      25.590   2.323  51.083  1.00  0.00     0.035 A 
HETATM   14  C9  UNL     1      24.568   3.153  51.481  1.00  0.00     0.032 A 
HETATM   15  C10 UNL     1      24.476   4.468  50.999  1.00  0.00     0.041 A 
HETATM   16  C11 UNL     1      25.421   4.980  50.095  1.00  0.00     0.091 A 
HETATM   17  C18 UNL     1      26.434   4.150  49.703  1.00  0.00     0.069 A 
HETATM   18 CL1  UNL     1      27.617   4.737  48.593  1.00  0.00    -0.081 Cl
HETATM   19  C19 UNL     1      26.495   2.873  50.191  1.00  0.00     0.056 A 
BRANCH  16  20
HETATM   20  O2  UNL     1      25.104   6.263  49.789  1.00  0.00    -0.336 OA
BRANCH  20  21
HETATM   21  C12 UNL     1      25.200   7.460  50.427  1.00  0.00     0.178 C 
HETATM   22  C13 UNL     1      26.435   8.237  50.025  1.00  0.00     0.021 C 
HETATM   23  C14 UNL     1      26.471   8.213  48.703  1.00  0.00    -0.024 C 
HETATM   24  C15 UNL     1      25.365   8.563  48.075  1.00  0.00     0.054 C 
HETATM   25  C16 UNL     1      24.142   8.871  48.830  1.00  0.00     0.116 C 
HETATM   26  F1  UNL     1      23.283   9.695  48.166  1.00  0.00    -0.206 F 
HETATM   27  C17 UNL     1      24.011   8.325  50.049  1.00  0.00     0.051 C 
ENDBRANCH  20  21
ENDBRANCH  16  20
ENDBRANCH  11  13
ENDBRANCH   8  11
BRANCH   1  28
HETATM   28  N2  UNL     1      21.687  -1.297  53.841  1.00  0.00    -0.309 N 
HETATM   29  C1  UNL     1      20.520  -0.505  53.972  1.00  0.00     0.318 C 
HETATM   30  N1  UNL     1      19.191  -0.894  53.656  1.00  0.00    -0.352 N 
HETATM   31  O1  UNL     1      20.620   0.668  54.406  1.00  0.00    -0.247 OA
HETATM   32  H1  UNL     1      18.652  -1.643  54.146  1.00  0.00     0.160 HD
HETATM   33  H2  UNL     1      18.597  -0.471  52.895  1.00  0.00     0.160 HD
HETATM   34  H3  UNL     1      21.410  -2.227  53.469  1.00  0.00     0.170 HD
ENDBRANCH   1  28
TORSDOF 5
ENDMDL
MODEL 4
REMARK VINA RESULT:      -8.8      2.367      3.245
REMARK  5 active torsions:
REMARK  status: ('A' for Active; 'I' for Inactive)
REMARK       I    between atoms: N1_1  and  C1_2 
REMARK       I    between atoms: C1_2  and  N2_4 
REMARK    1  A    between atoms: N2_4  and  C2_5 
REMARK    2  A    between atoms: C7_12  and  N5_13 
REMARK    3  A    between atoms: N5_13  and  C8_14 
REMARK    4  A    between atoms: C11_17  and  O2_18 
REMARK    5  A    between atoms: O2_18  and  C12_19 
ROOT
HETATM    1  C2  UNL     1      25.868   1.725  53.622  1.00  0.00     0.037 A 
HETATM    2  C3  UNL     1      25.240   0.502  53.586  1.00  0.00     0.032 A 
HETATM    3  C4  UNL     1      24.020   0.356  52.969  1.00  0.00     0.035 A 
HETATM    4  C5  UNL     1      23.446   1.460  52.392  1.00  0.00     0.072 A 
HETATM    5  N3  UNL     1      22.249   1.260  51.798  1.00  0.00    -0.241 NA
HETATM    6  C6  UNL     1      21.622   2.311  51.205  1.00  0.00     0.236 A 
HETATM    7  N4  UNL     1      22.211   3.508  51.226  1.00  0.00    -0.224 NA
HETATM    8  C7  UNL     1      23.388   3.785  51.790  1.00  0.00     0.142 A 
HETATM    9  C20 UNL     1      24.003   2.721  52.381  1.00  0.00     0.041 A 
HETATM   10  C21 UNL     1      25.221   2.777  53.019  1.00  0.00     0.047 A 
ENDROOT
BRANCH   8  11
HETATM   11  N5  UNL     1      23.982   5.047  51.800  1.00  0.00    -0.340 N 
HETATM   12  H7  UNL     1      23.855   5.679  52.586  1.00  0.00     0.167 HD
BRANCH  11  13
HETATM   13  C8  UNL     1      24.809   5.624  50.793  1.00  0.00     0.035 A 
HETATM   14  C9  UNL     1      25.421   4.892  49.801  1.00  0.00     0.032 A 
HETATM   15  C10 UNL     1      26.209   5.521  48.823  1.00  0.00     0.041 A 
HETATM   16  C11 UNL     1      26.399   6.912  48.824  1.00  0.00     0.091 A 
HETATM   17  C18 UNL     1      25.788   7.633  49.812  1.00  0.00     0.069 A 
HETATM   18 CL1  UNL     1      25.995   9.345  49.851  1.00  0.00    -0.081 Cl
HETATM   19  C19 UNL     1      25.026   6.990  50.751  1.00  0.00     0.056 A 
BRANCH  16  20
HETATM   20  O2  UNL     1      27.195   7.259  47.781  1.00  0.00    -0.336 OA
BRANCH  20  21
HETATM   21  C12 UNL     1      28.502   7.072  47.459  1.00  0.00     0.178 C 
HETATM   22  C13 UNL     1      28.931   7.896  46.264  1.00  0.00     0.021 C 
HETATM   23  C14 UNL     1      28.498   9.125  46.491  1.00  0.00    -0.024 C 
HETATM   24  C15 UNL     1      28.796   9.650  47.664  1.00  0.00     0.054 C 
HETATM   25  C16 UNL     1      29.494   8.854  48.684  1.00  0.00     0.116 C 
HETATM   26  F1  UNL     1      30.191   9.606  49.582  1.00  0.00    -0.206 F 
HETATM   27  C17 UNL     1      29.373   7.519  48.620  1.00  0.00     0.051 C 
ENDBRANCH  20  21
ENDBRANCH  16  20
ENDBRANCH  11  13
ENDBRANCH   8  11
BRANCH   1  28
HETATM   28  N2  UNL     1      27.114   1.736  54.285  1.00  0.00    -0.309 N 
HETATM   29  C1  UNL     1      28.396   2.102  53.805  1.00  0.00     0.318 C 
HETATM   30  N1  UNL     1      29.612   2.086  54.538  1.00  0.00    -0.352 N 
HETATM   31  O1  UNL     1      28.519   2.487  52.618  1.00  0.00    -0.247 OA
HETATM   32  H1  UNL     1      30.075   1.228  54.914  1.00  0.00     0.160 HD
HETATM   33  H2  UNL     1      30.186   2.935  54.784  1.00  0.00     0.160 HD
HETATM   34  H3  UNL     1      27.207   1.448  55.280  1.00  0.00     0.170 HD
ENDBRANCH   1  28
TORSDOF 5
ENDMDL
MODEL 5
REMARK VINA RESULT:      -8.7      5.113      9.048
REMARK  5 active torsions:
REMARK  status: ('A' for Active; 'I' for Inactive)
REMARK       I    between atoms: N1_1  and  C1_2 
REMARK       I    between atoms: C1_2  and  N2_4 
REMARK    1  A    between atoms: N2_4  and  C2_5 
REMARK    2  A    between atoms: C7_12  and  N5_13 
REMARK    3  A    between atoms: N5_13  and  C8_14 
REMARK    4  A    between atoms: C11_17  and  O2_18 
REMARK    5  A    between atoms: O2_18  and  C12_19 
ROOT
HETATM    1  C2  UNL     1      31.629   6.086  48.934  1.00  0.00     0.037 A 
HETATM    2  C3  UNL     1      32.299   7.238  49.275  1.00  0.00     0.032 A 
HETATM    3  C4  UNL     1      31.646   8.448  49.307  1.00  0.00     0.035 A 
HETATM    4  C5  UNL     1      30.312   8.477  48.989  1.00  0.00     0.072 A 
HETATM    5  N3  UNL     1      29.720   9.690  49.039  1.00  0.00    -0.241 NA
HETATM    6  C6  UNL     1      28.398   9.793  48.737  1.00  0.00     0.236 A 
HETATM    7  N4  UNL     1      27.725   8.690  48.403  1.00  0.00    -0.224 NA
HETATM    8  C7  UNL     1      28.237   7.459  48.332  1.00  0.00     0.142 A 
HETATM    9  C20 UNL     1      29.563   7.373  48.637  1.00  0.00     0.041 A 
HETATM   10  C21 UNL     1      30.294   6.207  48.631  1.00  0.00     0.047 A 
ENDROOT
BRANCH   8  11
HETATM   11  N5  UNL     1      27.512   6.321  47.980  1.00  0.00    -0.340 N 
HETATM   12  H7  UNL     1      27.473   6.005  47.015  1.00  0.00     0.167 HD
BRANCH  11  13
HETATM   13  C8  UNL     1      26.763   5.469  48.842  1.00  0.00     0.035 A 
HETATM   14  C9  UNL     1      27.099   4.159  49.095  1.00  0.00     0.032 A 
HETATM   15  C10 UNL     1      26.332   3.374  49.971  1.00  0.00     0.041 A 
HETATM   16  C11 UNL     1      25.199   3.896  50.615  1.00  0.00     0.091 A 
HETATM   17  C18 UNL     1      24.871   5.198  50.359  1.00  0.00     0.069 A 
HETATM   18 CL1  UNL     1      23.486   5.881  51.128  1.00  0.00    -0.081 Cl
HETATM   19  C19 UNL     1      25.639   5.937  49.499  1.00  0.00     0.056 A 
BRANCH  16  20
HETATM   20  O2  UNL     1      24.644   2.939  51.399  1.00  0.00    -0.336 OA
BRANCH  20  21
HETATM   21  C12 UNL     1      24.192   2.881  52.681  1.00  0.00     0.178 C 
HETATM   22  C13 UNL     1      23.221   1.742  52.904  1.00  0.00     0.021 C 
HETATM   23  C14 UNL     1      23.785   0.669  52.376  1.00  0.00    -0.024 C 
HETATM   24  C15 UNL     1      25.029   0.417  52.736  1.00  0.00     0.054 C 
HETATM   25  C16 UNL     1      25.758   1.348  53.608  1.00  0.00     0.116 C 
HETATM   26  F1  UNL     1      26.766   0.762  54.313  1.00  0.00    -0.206 F 
HETATM   27  C17 UNL     1      25.363   2.631  53.614  1.00  0.00     0.051 C 
ENDBRANCH  20  21
ENDBRANCH  16  20
ENDBRANCH  11  13
ENDBRANCH   8  11
BRANCH   1  28
HETATM   28  N2  UNL     1      32.415   4.914  48.942  1.00  0.00    -0.309 N 
HETATM   29  C1  UNL     1      32.906   4.142  47.861  1.00  0.00     0.318 C 
HETATM   30  N1  UNL     1      33.697   2.966  47.950  1.00  0.00    -0.352 N 
HETATM   31  O1  UNL     1      32.641   4.492  46.686  1.00  0.00    -0.247 OA
HETATM   32  H1  UNL     1      33.382   2.059  48.364  1.00  0.00     0.160 HD
HETATM   33  H2  UNL     1      34.690   2.873  47.608  1.00  0.00     0.160 HD
HETATM   34  H3  UNL     1      32.734   4.476  49.829  1.00  0.00     0.170 HD
ENDBRANCH   1  28
TORSDOF 5
ENDMDL
MODEL 6
REMARK VINA RESULT:      -8.7      4.409      8.650
REMARK  5 active torsions:
REMARK  status: ('A' for Active; 'I' for Inactive)
REMARK       I    between atoms: N1_1  and  C1_2 
REMARK       I    between atoms: C1_2  and  N2_4 
REMARK    1  A    between atoms: N2_4  and  C2_5 
REMARK    2  A    between atoms: C7_12  and  N5_13 
REMARK    3  A    between atoms: N5_13  and  C8_14 
REMARK    4  A    between atoms: C11_17  and  O2_18 
REMARK    5  A    between atoms: O2_18  and  C12_19 
ROOT
HETATM    1  C2  UNL     1      29.637   6.052  47.897  1.00  0.00     0.037 A 
HETATM    2  C3  UNL     1      29.234   7.205  47.263  1.00  0.00     0.032 A 
HETATM    3  C4  UNL     1      27.917   7.598  47.288  1.00  0.00     0.035 A 
HETATM    4  C5  UNL     1      27.016   6.812  47.960  1.00  0.00     0.072 A 
HETATM    5  N3  UNL     1      25.736   7.246  47.955  1.00  0.00    -0.241 NA
HETATM    6  C6  UNL     1      24.789   6.517  48.603  1.00  0.00     0.236 A 
HETATM    7  N4  UNL     1      25.154   5.394  49.226  1.00  0.00    -0.224 NA
HETATM    8  C7  UNL     1      26.394   4.902  49.277  1.00  0.00     0.142 A 
HETATM    9  C20 UNL     1      27.331   5.644  48.622  1.00  0.00     0.041 A 
HETATM   10  C21 UNL     1      28.668   5.327  48.546  1.00  0.00     0.047 A 
ENDROOT
BRANCH   8  11
HETATM   11  N5  UNL     1      26.749   3.724  49.936  1.00  0.00    -0.340 N 
HETATM   12  H7  UNL     1      27.686   3.340  49.849  1.00  0.00     0.167 HD
BRANCH  11  13
HETATM   13  C8  UNL     1      25.930   2.923  50.782  1.00  0.00     0.035 A 
HETATM   14  C9  UNL     1      24.655   3.275  51.161  1.00  0.00     0.032 A 
HETATM   15  C10 UNL     1      23.888   2.433  51.982  1.00  0.00     0.041 A 
HETATM   16  C11 UNL     1      24.393   1.207  52.442  1.00  0.00     0.091 A 
HETATM   17  C18 UNL     1      25.660   0.862  52.062  1.00  0.00     0.069 A 
HETATM   18 CL1  UNL     1      26.322  -0.635  52.606  1.00  0.00    -0.081 Cl
HETATM   19  C19 UNL     1      26.383   1.706  51.262  1.00  0.00     0.056 A 
BRANCH  16  20
HETATM   20  O2  UNL     1      23.458   0.593  53.210  1.00  0.00    -0.336 OA
BRANCH  20  21
HETATM   21  C12 UNL     1      22.764  -0.574  53.139  1.00  0.00     0.178 C 
HETATM   22  C13 UNL     1      21.922  -0.827  54.371  1.00  0.00     0.021 C 
HETATM   23  C14 UNL     1      21.263   0.297  54.602  1.00  0.00    -0.024 C 
HETATM   24  C15 UNL     1      20.612   0.820  53.581  1.00  0.00     0.054 C 
HETATM   25  C16 UNL     1      20.706   0.217  52.245  1.00  0.00     0.116 C 
HETATM   26  F1  UNL     1      19.637   0.489  51.445  1.00  0.00    -0.206 F 
HETATM   27  C17 UNL     1      21.799  -0.512  51.969  1.00  0.00     0.051 C 
ENDBRANCH  20  21
ENDBRANCH  16  20
ENDBRANCH  11  13
ENDBRANCH   8  11
BRANCH   1  28
HETATM   28  N2  UNL     1      31.015   5.766  47.795  1.00  0.00    -0.309 N 
HETATM   29  C1  UNL     1      31.971   5.522  48.811  1.00  0.00     0.318 C 
HETATM   30  N1  UNL     1      33.350   5.239  48.628  1.00  0.00    -0.352 N 
HETATM   31  O1  UNL     1      31.609   5.548  50.012  1.00  0.00    -0.247 OA
HETATM   32  H1  UNL     1      34.051   5.902  48.225  1.00  0.00     0.160 HD
HETATM   33  H2  UNL     1      33.824   4.332  48.878  1.00  0.00     0.160 HD
HETATM   34  H3  UNL     1      31.494   5.703  46.874  1.00  0.00     0.170 HD
ENDBRANCH   1  28
TORSDOF 5
ENDMDL
MODEL 7
REMARK VINA RESULT:      -8.7      2.357      3.040
REMARK  5 active torsions:
REMARK  status: ('A' for Active; 'I' for Inactive)
REMARK       I    between atoms: N1_1  and  C1_2 
REMARK       I    between atoms: C1_2  and  N2_4 
REMARK    1  A    between atoms: N2_4  and  C2_5 
REMARK    2  A    between atoms: C7_12  and  N5_13 
REMARK    3  A    between atoms: N5_13  and  C8_14 
REMARK    4  A    between atoms: C11_17  and  O2_18 
REMARK    5  A    between atoms: O2_18  and  C12_19 
ROOT
HETATM    1  C2  UNL     1      26.008  -0.300  53.067  1.00  0.00     0.037 A 
HETATM    2  C3  UNL     1      24.885  -0.608  53.800  1.00  0.00     0.032 A 
HETATM    3  C4  UNL     1      23.722   0.105  53.637  1.00  0.00     0.035 A 
HETATM    4  C5  UNL     1      23.709   1.132  52.728  1.00  0.00     0.072 A 
HETATM    5  N3  UNL     1      22.540   1.799  52.606  1.00  0.00    -0.241 NA
HETATM    6  C6  UNL     1      22.456   2.828  51.721  1.00  0.00     0.236 A 
HETATM    7  N4  UNL     1      23.532   3.147  50.999  1.00  0.00    -0.224 NA
HETATM    8  C7  UNL     1      24.718   2.538  51.061  1.00  0.00     0.142 A 
HETATM    9  C20 UNL     1      24.786   1.509  51.952  1.00  0.00     0.041 A 
HETATM   10  C21 UNL     1      25.906   0.743  52.179  1.00  0.00     0.047 A 
ENDROOT
BRANCH   8  11
HETATM   11  N5  UNL     1      25.828   2.892  50.293  1.00  0.00    -0.340 N 
HETATM   12  H7  UNL     1      26.513   2.195  50.015  1.00  0.00     0.167 HD
BRANCH  11  13
HETATM   13  C8  UNL     1      26.165   4.186  49.801  1.00  0.00     0.035 A 
HETATM   14  C9  UNL     1      27.227   4.426  48.960  1.00  0.00     0.032 A 
HETATM   15  C10 UNL     1      27.497   5.722  48.492  1.00  0.00     0.041 A 
HETATM   16  C11 UNL     1      26.698   6.814  48.866  1.00  0.00     0.091 A 
HETATM   17  C18 UNL     1      25.644   6.568  49.703  1.00  0.00     0.069 A 
HETATM   18 CL1  UNL     1      24.635   7.880  50.189  1.00  0.00    -0.081 Cl
HETATM   19  C19 UNL     1      25.407   5.293  50.142  1.00  0.00     0.056 A 
BRANCH  16  20
HETATM   20  O2  UNL     1      27.171   7.942  48.281  1.00  0.00    -0.336 OA
BRANCH  20  21
HETATM   21  C12 UNL     1      27.378   9.225  48.682  1.00  0.00     0.178 C 
HETATM   22  C13 UNL     1      28.595   9.368  49.570  1.00  0.00     0.021 C 
HETATM   23  C14 UNL     1      29.575   8.724  48.958  1.00  0.00    -0.024 C 
HETATM   24  C15 UNL     1      29.775   9.020  47.688  1.00  0.00     0.054 C 
HETATM   25  C16 UNL     1      28.882   9.955  46.989  1.00  0.00     0.116 C 
HETATM   26  F1  UNL     1      29.463  10.570  45.921  1.00  0.00    -0.206 F 
HETATM   27  C17 UNL     1      27.635  10.095  47.464  1.00  0.00     0.051 C 
ENDBRANCH  20  21
ENDBRANCH  16  20
ENDBRANCH  11  13
ENDBRANCH   8  11
BRANCH   1  28
HETATM   28  N2  UNL     1      27.133  -1.111  53.331  1.00  0.00    -0.309 N 
HETATM   29  C1  UNL     1      27.504  -2.359  52.773  1.00  0.00     0.318 C 
HETATM   30  N1  UNL     1      28.659  -3.120  53.092  1.00  0.00    -0.352 N 
HETATM   31  O1  UNL     1      26.768  -2.886  51.904  1.00  0.00    -0.247 OA
HETATM   32  H1  UNL     1      28.854  -3.557  54.021  1.00  0.00     0.160 HD
HETATM   33  H2  UNL     1      29.451  -3.333  52.429  1.00  0.00     0.160 HD
HETATM   34  H3  UNL     1      27.856  -0.835  54.024  1.00  0.00     0.170 HD
ENDBRANCH   1  28
TORSDOF 5
ENDMDL
MODEL 8
REMARK VINA RESULT:      -8.5      1.581      1.979
REMARK  5 active torsions:
REMARK  status: ('A' for Active; 'I' for Inactive)
REMARK       I    between atoms: N1_1  and  C1_2 
REMARK       I    between atoms: C1_2  and  N2_4 
REMARK    1  A    between atoms: N2_4  and  C2_5 
REMARK    2  A    between atoms: C7_12  and  N5_13 
REMARK    3  A    between atoms: N5_13  and  C8_14 
REMARK    4  A    between atoms: C11_17  and  O2_18 
REMARK    5  A    between atoms: O2_18  and  C12_19 
ROOT
HETATM    1  C2  UNL     1      25.678  -0.134  54.247  1.00  0.00     0.037 A 
HETATM    2  C3  UNL     1      25.398  -0.833  55.398  1.00  0.00     0.032 A 
HETATM    3  C4  UNL     1      24.122  -1.267  55.665  1.00  0.00     0.035 A 
HETATM    4  C5  UNL     1      23.135  -0.985  54.755  1.00  0.00     0.072 A 
HETATM    5  N3  UNL     1      21.900  -1.437  55.065  1.00  0.00    -0.241 NA
HETATM    6  C6  UNL     1      20.873  -1.194  54.207  1.00  0.00     0.236 A 
HETATM    7  N4  UNL     1      21.118  -0.517  53.083  1.00  0.00    -0.224 NA
HETATM    8  C7  UNL     1      22.306  -0.041  52.707  1.00  0.00     0.142 A 
HETATM    9  C20 UNL     1      23.325  -0.292  53.578  1.00  0.00     0.041 A 
HETATM   10  C21 UNL     1      24.629   0.104  53.392  1.00  0.00     0.047 A 
ENDROOT
BRANCH   8  11
HETATM   11  N5  UNL     1      22.536   0.665  51.526  1.00  0.00    -0.340 N 
HETATM   12  H7  UNL     1      22.386   0.229  50.620  1.00  0.00     0.167 HD
BRANCH  11  13
HETATM   13  C8  UNL     1      22.980   2.012  51.393  1.00  0.00     0.035 A 
HETATM   14  C9  UNL     1      22.415   3.069  52.069  1.00  0.00     0.032 A 
HETATM   15  C10 UNL     1      22.910   4.373  51.912  1.00  0.00     0.041 A 
HETATM   16  C11 UNL     1      23.994   4.644  51.061  1.00  0.00     0.091 A 
HETATM   17  C18 UNL     1      24.550   3.589  50.392  1.00  0.00     0.069 A 
HETATM   18 CL1  UNL     1      25.883   3.876  49.335  1.00  0.00    -0.081 Cl
HETATM   19  C19 UNL     1      24.044   2.329  50.567  1.00  0.00     0.056 A 
BRANCH  16  20
HETATM   20  O2  UNL     1      24.270   5.971  51.091  1.00  0.00    -0.336 OA
BRANCH  20  21
HETATM   21  C12 UNL     1      23.648   7.098  50.654  1.00  0.00     0.178 C 
HETATM   22  C13 UNL     1      24.565   8.302  50.638  1.00  0.00     0.021 C 
HETATM   23  C14 UNL     1      25.675   7.910  50.036  1.00  0.00    -0.024 C 
HETATM   24  C15 UNL     1      25.534   7.304  48.873  1.00  0.00     0.054 C 
HETATM   25  C16 UNL     1      24.196   7.009  48.340  1.00  0.00     0.116 C 
HETATM   26  F1  UNL     1      24.161   6.891  46.983  1.00  0.00    -0.206 F 
HETATM   27  C17 UNL     1      23.190   6.894  49.221  1.00  0.00     0.051 C 
ENDBRANCH  20  21
ENDBRANCH  16  20
ENDBRANCH  11  13
ENDBRANCH   8  11
BRANCH   1  28
HETATM   28  N2  UNL     1      27.027   0.251  54.096  1.00  0.00    -0.309 N 
HETATM   29  C1  UNL     1      28.154  -0.517  53.715  1.00  0.00     0.318 C 
HETATM   30  N1  UNL     1      29.491  -0.055  53.585  1.00  0.00    -0.352 N 
HETATM   31  O1  UNL     1      28.007  -1.735  53.456  1.00  0.00    -0.247 OA
HETATM   32  H1  UNL     1      30.084   0.297  54.371  1.00  0.00     0.160 HD
HETATM   33  H2  UNL     1      30.037  -0.015  52.685  1.00  0.00     0.160 HD
HETATM   34  H3  UNL     1      27.340   1.228  54.268  1.00  0.00     0.170 HD
ENDBRANCH   1  28
TORSDOF 5
ENDMDL
MODEL 9
REMARK VINA RESULT:      -8.5      1.931      3.821
REMARK  5 active torsions:
REMARK  status: ('A' for Active; 'I' for Inactive)
REMARK       I    between atoms: N1_1  and  C1_2 
REMARK       I    between atoms: C1_2  and  N2_4 
REMARK    1  A    between atoms: N2_4  and  C2_5 
REMARK    2  A    between atoms: C7_12  and  N5_13 
REMARK    3  A    between atoms: N5_13  and  C8_14 
REMARK    4  A    between atoms: C11_17  and  O2_18 
REMARK    5  A    between atoms: O2_18  and  C12_19 
ROOT
HETATM    1  C2  UNL     1      20.723  -0.455  53.640  1.00  0.00     0.037 A 
HETATM    2  C3  UNL     1      21.199  -1.299  54.616  1.00  0.00     0.032 A 
HETATM    3  C4  UNL     1      22.549  -1.414  54.848  1.00  0.00     0.035 A 
HETATM    4  C5  UNL     1      23.408  -0.669  54.081  1.00  0.00     0.072 A 
HETATM    5  N3  UNL     1      24.723  -0.820  54.351  1.00  0.00    -0.241 NA
HETATM    6  C6  UNL     1      25.631  -0.110  53.630  1.00  0.00     0.236 A 
HETATM    7  N4  UNL     1      25.194   0.716  52.676  1.00  0.00    -0.224 NA
HETATM    8  C7  UNL     1      23.916   0.919  52.351  1.00  0.00     0.142 A 
HETATM    9  C20 UNL     1      23.018   0.200  53.083  1.00  0.00     0.041 A 
HETATM   10  C21 UNL     1      21.653   0.254  52.919  1.00  0.00     0.047 A 
ENDROOT
BRANCH   8  11
HETATM   11  N5  UNL     1      23.485   1.788  51.348  1.00  0.00    -0.340 N 
HETATM   12  H7  UNL     1      22.697   1.549  50.753  1.00  0.00     0.167 HD
BRANCH  11  13
HETATM   13  C8  UNL     1      24.027   3.063  51.015  1.00  0.00     0.035 A 
HETATM   14  C9  UNL     1      23.476   4.255  51.427  1.00  0.00     0.032 A 
HETATM   15  C10 UNL     1      24.068   5.480  51.083  1.00  0.00     0.041 A 
HETATM   16  C11 UNL     1      25.236   5.533  50.307  1.00  0.00     0.091 A 
HETATM   17  C18 UNL     1      25.779   4.345  49.900  1.00  0.00     0.069 A 
HETATM   18 CL1  UNL     1      27.215   4.362  48.944  1.00  0.00    -0.081 Cl
HETATM   19  C19 UNL     1      25.177   3.167  50.252  1.00  0.00     0.056 A 
BRANCH  16  20
HETATM   20  O2  UNL     1      25.596   6.827  50.119  1.00  0.00    -0.336 OA
BRANCH  20  21
HETATM   21  C12 UNL     1      25.239   7.814  49.254  1.00  0.00     0.178 C 
HETATM   22  C13 UNL     1      25.810   9.161  49.641  1.00  0.00     0.021 C 
HETATM   23  C14 UNL     1      27.094   8.960  49.886  1.00  0.00    -0.024 C 
HETATM   24  C15 UNL     1      27.777   8.310  48.963  1.00  0.00     0.054 C 
HETATM   25  C16 UNL     1      27.102   7.769  47.775  1.00  0.00     0.116 C 
HETATM   26  F1  UNL     1      27.926   7.614  46.700  1.00  0.00    -0.206 F 
HETATM   27  C17 UNL     1      25.791   7.497  47.876  1.00  0.00     0.051 C 
ENDBRANCH  20  21
ENDBRANCH  16  20
ENDBRANCH  11  13
ENDBRANCH   8  11
BRANCH   1  28
HETATM   28  N2  UNL     1      19.318  -0.430  53.508  1.00  0.00    -0.309 N 
HETATM   29  C1  UNL     1      18.516  -0.254  52.353  1.00  0.00     0.318 C 
HETATM   30  N1  UNL     1      17.097  -0.240  52.300  1.00  0.00    -0.352 N 
HETATM   31  O1  UNL     1      19.072  -0.089  51.241  1.00  0.00    -0.247 OA
HETATM   32  H1  UNL     1      16.486   0.479  52.749  1.00  0.00     0.160 HD
HETATM   33  H2  UNL     1      16.500  -0.951  51.802  1.00  0.00     0.160 HD
HETATM   34  H3  UNL     1      18.689  -0.552  54.327  1.00  0.00     0.170 HD
ENDBRANCH   1  28
TORSDOF 5
ENDMDL
