MODEL 1
REMARK VINA RESULT:      -7.4      0.000      0.000
REMARK  6 active torsions:
REMARK  status: ('A' for Active; 'I' for Inactive)
REMARK    1  A    between atoms: C2_2  and  C3_3 
REMARK    2  A    between atoms: C3_3  and  N1_4 
REMARK    3  A    between atoms: N1_4  and  C4_5 
REMARK    4  A    between atoms: C4_5  and  C5_6 
REMARK    5  A    between atoms: C5_6  and  C6_7 
REMARK    6  A    between atoms: C6_7  and  C7_9 
ROOT
HETATM    1  C3  UNL     1      23.864   2.116  52.081  1.00  0.00     0.063 C 
HETATM    2  C8  UNL     1      25.173   2.602  51.285  1.00  0.00     0.027 C 
HETATM    3  C9  UNL     1      26.195   3.094  50.528  1.00  0.00     0.115 C 
HETATM    4  N2  UNL     1      27.070   2.287  51.432  1.00  0.00    -0.274 NA
HETATM    5  C10 UNL     1      27.305   2.348  52.669  1.00  0.00     0.113 C 
HETATM    6  C11 UNL     1      28.265   1.163  52.679  1.00  0.00     0.033 C 
HETATM    7  C12 UNL     1      28.745   0.240  53.756  1.00  0.00    -0.014 C 
HETATM    8  C13 UNL     1      29.735  -0.943  53.829  1.00  0.00     0.017 C 
HETATM    9  C14 UNL     1      27.907  -0.007  55.107  1.00  0.00     0.132 C 
HETATM   10  N3  UNL     1      26.677   0.762  54.962  1.00  0.00    -0.357 N 
HETATM   11  C15 UNL     1      26.181   0.143  53.739  1.00  0.00     0.240 C 
HETATM   12  O1  UNL     1      26.880  -0.831  53.771  1.00  0.00    -0.269 OA
HETATM   13  C16 UNL     1      25.187   0.576  52.705  1.00  0.00     0.073 C 
HETATM   14  C17 UNL     1      24.795   1.753  53.290  1.00  0.00     0.013 C 
HETATM   15  H21 UNL     1      26.439   1.448  55.615  1.00  0.00     0.162 HD
ENDROOT
BRANCH   1  16
HETATM   16  C2  UNL     1      23.053   3.271  52.411  1.00  0.00     0.035 C 
HETATM   17  C1  UNL     1      23.874   4.379  53.066  1.00  0.00     0.008 C 
ENDBRANCH   1  16
BRANCH   1  18
HETATM   18  N1  UNL     1      23.253   1.028  51.606  1.00  0.00    -0.403 N 
HETATM   19  H6  UNL     1      23.840   0.262  51.225  1.00  0.00     0.154 HD
BRANCH  18  20
HETATM   20  C4  UNL     1      21.876   0.850  51.336  1.00  0.00     0.144 C 
BRANCH  20  21
HETATM   21  C5  UNL     1      21.521  -0.483  52.089  1.00  0.00     0.014 C 
BRANCH  21  22
HETATM   22  C6  UNL     1      21.590  -0.353  53.402  1.00  0.00     0.038 C 
HETATM   23 CL1  UNL     1      22.548  -0.950  54.690  1.00  0.00    -0.087 Cl
BRANCH  22  24
HETATM   24  C7  UNL     1      20.538   0.578  53.943  1.00  0.00     0.273 C 
HETATM   25  F1  UNL     1      20.770   0.538  55.337  1.00  0.00    -0.250 F 
ENDBRANCH  22  24
ENDBRANCH  21  22
ENDBRANCH  20  21
ENDBRANCH  18  20
ENDBRANCH   1  18
TORSDOF 6
ENDMDL
MODEL 2
REMARK VINA RESULT:      -6.9      2.410      2.819
REMARK  6 active torsions:
REMARK  status: ('A' for Active; 'I' for Inactive)
REMARK    1  A    between atoms: C2_2  and  C3_3 
REMARK    2  A    between atoms: C3_3  and  N1_4 
REMARK    3  A    between atoms: N1_4  and  C4_5 
REMARK    4  A    between atoms: C4_5  and  C5_6 
REMARK    5  A    between atoms: C5_6  and  C6_7 
REMARK    6  A    between atoms: C6_7  and  C7_9 
ROOT
HETATM    1  C3  UNL     1      23.678   2.145  52.037  1.00  0.00     0.063 C 
HETATM    2  C8  UNL     1      24.971   2.540  51.168  1.00  0.00     0.027 C 
HETATM    3  C9  UNL     1      25.980   2.954  50.348  1.00  0.00     0.115 C 
HETATM    4  N2  UNL     1      26.862   2.170  51.266  1.00  0.00    -0.274 NA
HETATM    5  C10 UNL     1      27.144   2.293  52.489  1.00  0.00     0.113 C 
HETATM    6  C11 UNL     1      28.065   1.078  52.534  1.00  0.00     0.033 C 
HETATM    7  C12 UNL     1      28.555   0.202  53.645  1.00  0.00    -0.014 C 
HETATM    8  C13 UNL     1      29.508  -1.008  53.752  1.00  0.00     0.017 C 
HETATM    9  C14 UNL     1      27.759   0.062  55.037  1.00  0.00     0.132 C 
HETATM   10  N3  UNL     1      26.551   0.863  54.891  1.00  0.00    -0.357 N 
HETATM   11  C15 UNL     1      25.990   0.192  53.724  1.00  0.00     0.240 C 
HETATM   12  O1  UNL     1      26.659  -0.801  53.788  1.00  0.00    -0.269 OA
HETATM   13  C16 UNL     1      24.973   0.599  52.702  1.00  0.00     0.073 C 
HETATM   14  C17 UNL     1      24.641   1.820  53.231  1.00  0.00     0.013 C 
HETATM   15  H21 UNL     1      26.359   1.593  55.511  1.00  0.00     0.162 HD
ENDROOT
BRANCH   1  16
HETATM   16  C2  UNL     1      22.917   3.345  52.327  1.00  0.00     0.035 C 
HETATM   17  C1  UNL     1      23.781   4.432  52.961  1.00  0.00     0.008 C 
ENDBRANCH   1  16
BRANCH   1  18
HETATM   18  N1  UNL     1      23.015   1.054  51.647  1.00  0.00    -0.403 N 
HETATM   19  H6  UNL     1      23.565   0.235  51.325  1.00  0.00     0.154 HD
BRANCH  18  20
HETATM   20  C4  UNL     1      21.630   0.919  51.394  1.00  0.00     0.144 C 
BRANCH  20  21
HETATM   21  C5  UNL     1      21.553   0.766  49.832  1.00  0.00     0.014 C 
BRANCH  21  22
HETATM   22  C6  UNL     1      21.436   1.930  49.216  1.00  0.00     0.038 C 
HETATM   23 CL1  UNL     1      20.624   3.418  49.454  1.00  0.00    -0.087 Cl
BRANCH  22  24
HETATM   24  C7  UNL     1      22.235   1.987  47.941  1.00  0.00     0.273 C 
HETATM   25  F1  UNL     1      23.330   2.807  48.293  1.00  0.00    -0.250 F 
ENDBRANCH  22  24
ENDBRANCH  21  22
ENDBRANCH  20  21
ENDBRANCH  18  20
ENDBRANCH   1  18
TORSDOF 6
ENDMDL
MODEL 3
REMARK VINA RESULT:      -6.7      1.585      1.780
REMARK  6 active torsions:
REMARK  status: ('A' for Active; 'I' for Inactive)
REMARK    1  A    between atoms: C2_2  and  C3_3 
REMARK    2  A    between atoms: C3_3  and  N1_4 
REMARK    3  A    between atoms: N1_4  and  C4_5 
REMARK    4  A    between atoms: C4_5  and  C5_6 
REMARK    5  A    between atoms: C5_6  and  C6_7 
REMARK    6  A    between atoms: C6_7  and  C7_9 
ROOT
HETATM    1  C3  UNL     1      23.576   3.567  52.357  1.00  0.00     0.063 C 
HETATM    2  C8  UNL     1      24.627   3.383  51.154  1.00  0.00     0.027 C 
HETATM    3  C9  UNL     1      25.447   3.331  50.065  1.00  0.00     0.115 C 
HETATM    4  N2  UNL     1      26.183   2.287  50.842  1.00  0.00    -0.274 NA
HETATM    5  C10 UNL     1      26.819   2.323  51.930  1.00  0.00     0.113 C 
HETATM    6  C11 UNL     1      27.185   0.843  51.918  1.00  0.00     0.033 C 
HETATM    7  C12 UNL     1      27.594  -0.122  52.987  1.00  0.00    -0.014 C 
HETATM    8  C13 UNL     1      28.007  -1.609  53.026  1.00  0.00     0.017 C 
HETATM    9  C14 UNL     1      27.225   0.111  54.536  1.00  0.00     0.132 C 
HETATM   10  N3  UNL     1      26.420   1.326  54.578  1.00  0.00    -0.357 N 
HETATM   11  C15 UNL     1      25.347   0.901  53.687  1.00  0.00     0.240 C 
HETATM   12  O1  UNL     1      25.579  -0.275  53.723  1.00  0.00    -0.269 OA
HETATM   13  C16 UNL     1      24.319   1.651  52.895  1.00  0.00     0.073 C 
HETATM   14  C17 UNL     1      24.635   2.918  53.315  1.00  0.00     0.013 C 
HETATM   15  H21 UNL     1      26.699   2.089  55.119  1.00  0.00     0.162 HD
ENDROOT
BRANCH   1  16
HETATM   16  C2  UNL     1      23.438   4.979  52.654  1.00  0.00     0.035 C 
HETATM   17  C1  UNL     1      23.554   5.842  51.400  1.00  0.00     0.008 C 
ENDBRANCH   1  16
BRANCH   1  18
HETATM   18  N1  UNL     1      22.470   2.822  52.294  1.00  0.00    -0.403 N 
HETATM   19  H6  UNL     1      22.574   1.796  52.186  1.00  0.00     0.154 HD
BRANCH  18  20
HETATM   20  C4  UNL     1      21.134   3.258  52.129  1.00  0.00     0.144 C 
BRANCH  20  21
HETATM   21  C5  UNL     1      20.286   2.102  52.773  1.00  0.00     0.014 C 
BRANCH  21  22
HETATM   22  C6  UNL     1      20.680   0.906  52.374  1.00  0.00     0.038 C 
HETATM   23 CL1  UNL     1      21.185   0.152  50.923  1.00  0.00    -0.087 Cl
BRANCH  22  24
HETATM   24  C7  UNL     1      20.696  -0.097  53.498  1.00  0.00     0.273 C 
HETATM   25  F1  UNL     1      21.599   0.479  54.419  1.00  0.00    -0.250 F 
ENDBRANCH  22  24
ENDBRANCH  21  22
ENDBRANCH  20  21
ENDBRANCH  18  20
ENDBRANCH   1  18
TORSDOF 6
ENDMDL
MODEL 4
REMARK VINA RESULT:      -6.6      2.619      4.392
REMARK  6 active torsions:
REMARK  status: ('A' for Active; 'I' for Inactive)
REMARK    1  A    between atoms: C2_2  and  C3_3 
REMARK    2  A    between atoms: C3_3  and  N1_4 
REMARK    3  A    between atoms: N1_4  and  C4_5 
REMARK    4  A    between atoms: C4_5  and  C5_6 
REMARK    5  A    between atoms: C5_6  and  C6_7 
REMARK    6  A    between atoms: C6_7  and  C7_9 
ROOT
HETATM    1  C3  UNL     1      21.662   1.387  52.087  1.00  0.00     0.063 C 
HETATM    2  C8  UNL     1      21.725   0.281  53.251  1.00  0.00     0.027 C 
HETATM    3  C9  UNL     1      21.634  -0.665  54.229  1.00  0.00     0.115 C 
HETATM    4  N2  UNL     1      23.127  -0.579  54.259  1.00  0.00    -0.274 NA
HETATM    5  C10 UNL     1      24.014  -0.844  53.403  1.00  0.00     0.113 C 
HETATM    6  C11 UNL     1      25.183  -0.445  54.297  1.00  0.00     0.033 C 
HETATM    7  C12 UNL     1      26.598  -0.045  54.019  1.00  0.00    -0.014 C 
HETATM    8  C13 UNL     1      27.824   0.331  54.879  1.00  0.00     0.017 C 
HETATM    9  C14 UNL     1      27.053   0.557  52.597  1.00  0.00     0.132 C 
HETATM   10  N3  UNL     1      25.838   0.660  51.798  1.00  0.00    -0.357 N 
HETATM   11  C15 UNL     1      25.073   1.530  52.685  1.00  0.00     0.240 C 
HETATM   12  O1  UNL     1      25.994   1.908  53.353  1.00  0.00    -0.269 OA
HETATM   13  C16 UNL     1      23.609   1.824  52.815  1.00  0.00     0.073 C 
HETATM   14  C17 UNL     1      23.162   1.062  51.765  1.00  0.00     0.013 C 
HETATM   15  H21 UNL     1      25.766   0.202  50.940  1.00  0.00     0.162 HD
ENDROOT
BRANCH   1  16
HETATM   16  C2  UNL     1      20.811   0.904  51.018  1.00  0.00     0.035 C 
HETATM   17  C1  UNL     1      21.544   0.855  49.680  1.00  0.00     0.008 C 
ENDBRANCH   1  16
BRANCH   1  18
HETATM   18  N1  UNL     1      21.524   2.655  52.483  1.00  0.00    -0.403 N 
HETATM   19  H6  UNL     1      21.981   2.946  53.367  1.00  0.00     0.154 HD
BRANCH  18  20
HETATM   20  C4  UNL     1      20.638   3.635  51.975  1.00  0.00     0.144 C 
BRANCH  20  21
HETATM   21  C5  UNL     1      21.522   4.932  51.909  1.00  0.00     0.014 C 
BRANCH  21  22
HETATM   22  C6  UNL     1      22.521   4.819  51.051  1.00  0.00     0.038 C 
HETATM   23 CL1  UNL     1      22.786   4.183  49.484  1.00  0.00    -0.087 Cl
BRANCH  22  24
HETATM   24  C7  UNL     1      23.801   5.410  51.581  1.00  0.00     0.273 C 
HETATM   25  F1  UNL     1      23.718   5.148  52.967  1.00  0.00    -0.250 F 
ENDBRANCH  22  24
ENDBRANCH  21  22
ENDBRANCH  20  21
ENDBRANCH  18  20
ENDBRANCH   1  18
TORSDOF 6
ENDMDL
MODEL 5
REMARK VINA RESULT:      -6.5      3.249      5.829
REMARK  6 active torsions:
REMARK  status: ('A' for Active; 'I' for Inactive)
REMARK    1  A    between atoms: C2_2  and  C3_3 
REMARK    2  A    between atoms: C3_3  and  N1_4 
REMARK    3  A    between atoms: N1_4  and  C4_5 
REMARK    4  A    between atoms: C4_5  and  C5_6 
REMARK    5  A    between atoms: C5_6  and  C6_7 
REMARK    6  A    between atoms: C6_7  and  C7_9 
ROOT
HETATM    1  C3  UNL     1      23.383   0.842  52.540  1.00  0.00     0.063 C 
HETATM    2  C8  UNL     1      22.445   0.948  51.239  1.00  0.00     0.027 C 
HETATM    3  C9  UNL     1      21.596   0.909  50.172  1.00  0.00     0.115 C 
HETATM    4  N2  UNL     1      22.149   2.262  49.858  1.00  0.00    -0.274 NA
HETATM    5  C10 UNL     1      22.110   3.363  50.473  1.00  0.00     0.113 C 
HETATM    6  C11 UNL     1      22.924   4.123  49.432  1.00  0.00     0.033 C 
HETATM    7  C12 UNL     1      23.725   5.387  49.478  1.00  0.00    -0.014 C 
HETATM    8  C13 UNL     1      24.532   6.216  48.455  1.00  0.00     0.017 C 
HETATM    9  C14 UNL     1      24.328   5.967  50.853  1.00  0.00     0.132 C 
HETATM   10  N3  UNL     1      23.983   4.996  51.884  1.00  0.00    -0.357 N 
HETATM   11  C15 UNL     1      24.634   3.828  51.302  1.00  0.00     0.240 C 
HETATM   12  O1  UNL     1      25.332   4.417  50.526  1.00  0.00    -0.269 OA
HETATM   13  C16 UNL     1      24.463   2.354  51.510  1.00  0.00     0.073 C 
HETATM   14  C17 UNL     1      23.521   2.404  52.506  1.00  0.00     0.013 C 
HETATM   15  H21 UNL     1      23.461   5.263  52.664  1.00  0.00     0.162 HD
ENDROOT
BRANCH   1  16
HETATM   16  C2  UNL     1      22.576   0.441  53.675  1.00  0.00     0.035 C 
HETATM   17  C1  UNL     1      21.775  -0.827  53.388  1.00  0.00     0.008 C 
ENDBRANCH   1  16
BRANCH   1  18
HETATM   18  N1  UNL     1      24.570   0.255  52.367  1.00  0.00    -0.403 N 
HETATM   19  H6  UNL     1      24.913   0.118  51.398  1.00  0.00     0.154 HD
BRANCH  18  20
HETATM   20  C4  UNL     1      25.353  -0.427  53.329  1.00  0.00     0.144 C 
BRANCH  20  21
HETATM   21  C5  UNL     1      26.668  -0.785  52.547  1.00  0.00     0.014 C 
BRANCH  21  22
HETATM   22  C6  UNL     1      27.748  -0.676  53.300  1.00  0.00     0.038 C 
HETATM   23 CL1  UNL     1      29.364  -1.239  53.294  1.00  0.00    -0.087 Cl
BRANCH  22  24
HETATM   24  C7  UNL     1      27.516   0.183  54.516  1.00  0.00     0.273 C 
HETATM   25  F1  UNL     1      28.669  -0.060  55.296  1.00  0.00    -0.250 F 
ENDBRANCH  22  24
ENDBRANCH  21  22
ENDBRANCH  20  21
ENDBRANCH  18  20
ENDBRANCH   1  18
TORSDOF 6
ENDMDL
MODEL 6
REMARK VINA RESULT:      -6.5      3.554      6.062
REMARK  6 active torsions:
REMARK  status: ('A' for Active; 'I' for Inactive)
REMARK    1  A    between atoms: C2_2  and  C3_3 
REMARK    2  A    between atoms: C3_3  and  N1_4 
REMARK    3  A    between atoms: N1_4  and  C4_5 
REMARK    4  A    between atoms: C4_5  and  C5_6 
REMARK    5  A    between atoms: C5_6  and  C6_7 
REMARK    6  A    between atoms: C6_7  and  C7_9 
ROOT
HETATM    1  C3  UNL     1      23.627   1.321  52.104  1.00  0.00     0.063 C 
HETATM    2  C8  UNL     1      22.765   1.442  50.753  1.00  0.00     0.027 C 
HETATM    3  C9  UNL     1      21.977   1.417  49.640  1.00  0.00     0.115 C 
HETATM    4  N2  UNL     1      22.561   2.765  49.364  1.00  0.00    -0.274 NA
HETATM    5  C10 UNL     1      22.501   3.864  49.980  1.00  0.00     0.113 C 
HETATM    6  C11 UNL     1      23.381   4.619  48.990  1.00  0.00     0.033 C 
HETATM    7  C12 UNL     1      24.192   5.873  49.086  1.00  0.00    -0.014 C 
HETATM    8  C13 UNL     1      25.064   6.696  48.114  1.00  0.00     0.017 C 
HETATM    9  C14 UNL     1      24.723   6.441  50.496  1.00  0.00     0.132 C 
HETATM   10  N3  UNL     1      24.310   5.470  51.501  1.00  0.00    -0.357 N 
HETATM   11  C15 UNL     1      24.979   4.296  50.952  1.00  0.00     0.240 C 
HETATM   12  O1  UNL     1      25.727   4.881  50.219  1.00  0.00    -0.269 OA
HETATM   13  C16 UNL     1      24.781   2.824  51.144  1.00  0.00     0.073 C 
HETATM   14  C17 UNL     1      23.785   2.881  52.085  1.00  0.00     0.013 C 
HETATM   15  H21 UNL     1      23.748   5.740  52.252  1.00  0.00     0.162 HD
ENDROOT
BRANCH   1  16
HETATM   16  C2  UNL     1      22.753   0.925  53.191  1.00  0.00     0.035 C 
HETATM   17  C1  UNL     1      21.945  -0.325  52.848  1.00  0.00     0.008 C 
ENDBRANCH   1  16
BRANCH   1  18
HETATM   18  N1  UNL     1      24.815   0.720  51.996  1.00  0.00    -0.403 N 
HETATM   19  H6  UNL     1      25.211   0.583  51.047  1.00  0.00     0.154 HD
BRANCH  18  20
HETATM   20  C4  UNL     1      25.535   0.026  52.996  1.00  0.00     0.144 C 
BRANCH  20  21
HETATM   21  C5  UNL     1      27.000  -0.020  52.432  1.00  0.00     0.014 C 
BRANCH  21  22
HETATM   22  C6  UNL     1      27.839   0.711  53.145  1.00  0.00     0.038 C 
HETATM   23 CL1  UNL     1      28.180   2.369  53.402  1.00  0.00    -0.087 Cl
BRANCH  22  24
HETATM   24  C7  UNL     1      28.770  -0.132  53.977  1.00  0.00     0.273 C 
HETATM   25  F1  UNL     1      30.038   0.173  53.434  1.00  0.00    -0.250 F 
ENDBRANCH  22  24
ENDBRANCH  21  22
ENDBRANCH  20  21
ENDBRANCH  18  20
ENDBRANCH   1  18
TORSDOF 6
ENDMDL
MODEL 7
REMARK VINA RESULT:      -6.4      7.426      9.247
REMARK  6 active torsions:
REMARK  status: ('A' for Active; 'I' for Inactive)
REMARK    1  A    between atoms: C2_2  and  C3_3 
REMARK    2  A    between atoms: C3_3  and  N1_4 
REMARK    3  A    between atoms: N1_4  and  C4_5 
REMARK    4  A    between atoms: C4_5  and  C5_6 
REMARK    5  A    between atoms: C5_6  and  C6_7 
REMARK    6  A    between atoms: C6_7  and  C7_9 
ROOT
HETATM    1  C3  UNL     1      30.121   7.401  48.518  1.00  0.00     0.063 C 
HETATM    2  C8  UNL     1      30.522   7.615  46.977  1.00  0.00     0.027 C 
HETATM    3  C9  UNL     1      30.753   7.891  45.661  1.00  0.00     0.115 C 
HETATM    4  N2  UNL     1      31.897   6.939  45.805  1.00  0.00    -0.274 NA
HETATM    5  C10 UNL     1      32.948   6.968  46.502  1.00  0.00     0.113 C 
HETATM    6  C11 UNL     1      33.466   5.619  46.014  1.00  0.00     0.033 C 
HETATM    7  C12 UNL     1      34.445   4.633  46.571  1.00  0.00    -0.014 C 
HETATM    8  C13 UNL     1      35.030   3.282  46.106  1.00  0.00     0.017 C 
HETATM    9  C14 UNL     1      34.795   4.570  48.141  1.00  0.00     0.132 C 
HETATM   10  N3  UNL     1      33.941   5.561  48.783  1.00  0.00    -0.357 N 
HETATM   11  C15 UNL     1      32.649   5.036  48.359  1.00  0.00     0.240 C 
HETATM   12  O1  UNL     1      33.030   3.945  48.037  1.00  0.00    -0.269 OA
HETATM   13  C16 UNL     1      31.282   5.641  48.261  1.00  0.00     0.073 C 
HETATM   14  C17 UNL     1      31.578   6.878  48.773  1.00  0.00     0.013 C 
HETATM   15  H21 UNL     1      34.329   6.288  49.307  1.00  0.00     0.162 HD
ENDROOT
BRANCH   1  16
HETATM   16  C2  UNL     1      29.943   8.696  49.146  1.00  0.00     0.035 C 
HETATM   17  C1  UNL     1      31.161   9.597  48.954  1.00  0.00     0.008 C 
ENDBRANCH   1  16
BRANCH   1  18
HETATM   18  N1  UNL     1      29.222   6.447  48.769  1.00  0.00    -0.403 N 
HETATM   19  H6  UNL     1      29.554   5.553  49.177  1.00  0.00     0.154 HD
BRANCH  18  20
HETATM   20  C4  UNL     1      27.873   6.388  48.345  1.00  0.00     0.144 C 
BRANCH  20  21
HETATM   21  C5  UNL     1      27.459   4.901  48.639  1.00  0.00     0.014 C 
BRANCH  21  22
HETATM   22  C6  UNL     1      26.244   4.808  49.151  1.00  0.00     0.038 C 
HETATM   23 CL1  UNL     1      24.727   5.582  48.975  1.00  0.00    -0.087 Cl
BRANCH  22  24
HETATM   24  C7  UNL     1      26.138   3.718  50.184  1.00  0.00     0.273 C 
HETATM   25  F1  UNL     1      26.700   2.603  49.522  1.00  0.00    -0.250 F 
ENDBRANCH  22  24
ENDBRANCH  21  22
ENDBRANCH  20  21
ENDBRANCH  18  20
ENDBRANCH   1  18
TORSDOF 6
ENDMDL
MODEL 8
REMARK VINA RESULT:      -5.8      4.096      6.262
REMARK  6 active torsions:
REMARK  status: ('A' for Active; 'I' for Inactive)
REMARK    1  A    between atoms: C2_2  and  C3_3 
REMARK    2  A    between atoms: C3_3  and  N1_4 
REMARK    3  A    between atoms: N1_4  and  C4_5 
REMARK    4  A    between atoms: C4_5  and  C5_6 
REMARK    5  A    between atoms: C5_6  and  C6_7 
REMARK    6  A    between atoms: C6_7  and  C7_9 
ROOT
HETATM    1  C3  UNL     1      23.679   3.079  50.754  1.00  0.00     0.063 C 
HETATM    2  C8  UNL     1      25.154   3.192  50.126  1.00  0.00     0.027 C 
HETATM    3  C9  UNL     1      26.411   3.144  49.599  1.00  0.00     0.115 C 
HETATM    4  N2  UNL     1      26.282   4.631  49.512  1.00  0.00    -0.274 NA
HETATM    5  C10 UNL     1      25.508   5.383  48.861  1.00  0.00     0.113 C 
HETATM    6  C11 UNL     1      26.097   6.680  49.406  1.00  0.00     0.033 C 
HETATM    7  C12 UNL     1      25.575   8.080  49.511  1.00  0.00    -0.014 C 
HETATM    8  C13 UNL     1      26.136   9.427  50.016  1.00  0.00     0.017 C 
HETATM    9  C14 UNL     1      23.999   8.406  49.520  1.00  0.00     0.132 C 
HETATM   10  N3  UNL     1      23.322   7.116  49.481  1.00  0.00    -0.357 N 
HETATM   11  C15 UNL     1      23.897   6.537  50.690  1.00  0.00     0.240 C 
HETATM   12  O1  UNL     1      24.304   7.560  51.166  1.00  0.00    -0.269 OA
HETATM   13  C16 UNL     1      24.034   5.129  51.183  1.00  0.00     0.073 C 
HETATM   14  C17 UNL     1      23.371   4.498  50.161  1.00  0.00     0.013 C 
HETATM   15  H21 UNL     1      22.695   6.904  48.764  1.00  0.00     0.162 HD
ENDROOT
BRANCH   1  16
HETATM   16  C2  UNL     1      22.931   2.068  50.033  1.00  0.00     0.035 C 
HETATM   17  C1  UNL     1      22.694   2.462  48.577  1.00  0.00     0.008 C 
ENDBRANCH   1  16
BRANCH   1  18
HETATM   18  N1  UNL     1      23.601   3.092  52.087  1.00  0.00    -0.403 N 
HETATM   19  H6  UNL     1      23.470   4.006  52.562  1.00  0.00     0.154 HD
BRANCH  18  20
HETATM   20  C4  UNL     1      23.900   2.043  52.988  1.00  0.00     0.144 C 
BRANCH  20  21
HETATM   21  C5  UNL     1      25.299   2.449  53.577  1.00  0.00     0.014 C 
BRANCH  21  22
HETATM   22  C6  UNL     1      26.221   1.526  53.367  1.00  0.00     0.038 C 
HETATM   23 CL1  UNL     1      27.864   1.255  53.767  1.00  0.00    -0.087 Cl
BRANCH  22  24
HETATM   24  C7  UNL     1      25.704   0.375  52.545  1.00  0.00     0.273 C 
HETATM   25  F1  UNL     1      26.707   0.216  51.562  1.00  0.00    -0.250 F 
ENDBRANCH  22  24
ENDBRANCH  21  22
ENDBRANCH  20  21
ENDBRANCH  18  20
ENDBRANCH   1  18
TORSDOF 6
ENDMDL
MODEL 9
REMARK VINA RESULT:      -5.7      3.040      6.012
REMARK  6 active torsions:
REMARK  status: ('A' for Active; 'I' for Inactive)
REMARK    1  A    between atoms: C2_2  and  C3_3 
REMARK    2  A    between atoms: C3_3  and  N1_4 
REMARK    3  A    between atoms: N1_4  and  C4_5 
REMARK    4  A    between atoms: C4_5  and  C5_6 
REMARK    5  A    between atoms: C5_6  and  C6_7 
REMARK    6  A    between atoms: C6_7  and  C7_9 
ROOT
HETATM    1  C3  UNL     1      24.726   2.360  51.328  1.00  0.00     0.063 C 
HETATM    2  C8  UNL     1      23.857   3.572  51.928  1.00  0.00     0.027 C 
HETATM    3  C9  UNL     1      23.226   4.619  52.532  1.00  0.00     0.115 C 
HETATM    4  N2  UNL     1      22.172   4.405  51.493  1.00  0.00    -0.274 NA
HETATM    5  C10 UNL     1      22.182   4.500  50.236  1.00  0.00     0.113 C 
HETATM    6  C11 UNL     1      20.723   4.094  50.062  1.00  0.00     0.033 C 
HETATM    7  C12 UNL     1      19.941   3.544  48.909  1.00  0.00    -0.014 C 
HETATM    8  C13 UNL     1      18.467   3.152  48.668  1.00  0.00     0.017 C 
HETATM    9  C14 UNL     1      20.647   2.759  47.694  1.00  0.00     0.132 C 
HETATM   10  N3  UNL     1      22.062   2.681  48.035  1.00  0.00    -0.357 N 
HETATM   11  C15 UNL     1      21.936   1.980  49.307  1.00  0.00     0.240 C 
HETATM   12  O1  UNL     1      20.812   1.593  49.154  1.00  0.00    -0.269 OA
HETATM   13  C16 UNL     1      22.849   1.831  50.486  1.00  0.00     0.073 C 
HETATM   14  C17 UNL     1      23.927   2.516  49.987  1.00  0.00     0.013 C 
HETATM   15  H21 UNL     1      22.738   3.052  47.437  1.00  0.00     0.162 HD
ENDROOT
BRANCH   1  16
HETATM   16  C2  UNL     1      26.094   2.804  51.143  1.00  0.00     0.035 C 
HETATM   17  C1  UNL     1      26.323   3.389  49.752  1.00  0.00     0.008 C 
ENDBRANCH   1  16
BRANCH   1  18
HETATM   18  N1  UNL     1      24.518   1.158  51.870  1.00  0.00    -0.403 N 
HETATM   19  H6  UNL     1      24.000   0.452  51.313  1.00  0.00     0.154 HD
BRANCH  18  20
HETATM   20  C4  UNL     1      24.712   0.762  53.214  1.00  0.00     0.144 C 
BRANCH  20  21
HETATM   21  C5  UNL     1      23.852  -0.547  53.342  1.00  0.00     0.014 C 
BRANCH  21  22
HETATM   22  C6  UNL     1      22.651  -0.314  53.841  1.00  0.00     0.038 C 
HETATM   23 CL1  UNL     1      21.384   0.817  53.630  1.00  0.00    -0.087 Cl
BRANCH  22  24
HETATM   24  C7  UNL     1      22.265  -1.316  54.897  1.00  0.00     0.273 C 
HETATM   25  F1  UNL     1      23.387  -1.314  55.756  1.00  0.00    -0.250 F 
ENDBRANCH  22  24
ENDBRANCH  21  22
ENDBRANCH  20  21
ENDBRANCH  18  20
ENDBRANCH   1  18
TORSDOF 6
ENDMDL
