MODEL 1
REMARK VINA RESULT:      -9.3      0.000      0.000
REMARK  1 active torsions:
REMARK  status: ('A' for Active; 'I' for Inactive)
REMARK    1  A    between atoms: C5_6  and  N1_7 
ROOT
HETATM    1  N1  UNL     1      23.634   0.943  52.572  1.00  0.00    -0.254 N 
HETATM    2  N2  UNL     1      23.437   1.848  51.493  1.00  0.00    -0.287 N 
HETATM    3  C6  UNL     1      24.437   2.621  50.873  1.00  0.00     0.226 A 
HETATM    4  N3  UNL     1      25.634   2.490  51.332  1.00  0.00    -0.217 NA
HETATM    5  C7  UNL     1      25.891   1.598  52.410  1.00  0.00     0.193 A 
HETATM    6  C8  UNL     1      24.991   0.824  53.057  1.00  0.00     0.104 A 
HETATM    7  C9  UNL     1      25.006  -0.147  54.145  1.00  0.00     0.178 C 
HETATM    8  N4  UNL     1      26.220  -0.912  54.320  1.00  0.00    -0.406 N 
HETATM    9  C10 UNL     1      27.251  -0.622  53.407  1.00  0.00     0.133 A 
HETATM   10  C11 UNL     1      28.237  -1.706  53.263  1.00  0.00     0.000 A 
HETATM   11  C12 UNL     1      29.568  -1.652  53.278  1.00  0.00    -0.002 A 
HETATM   12  C13 UNL     1      30.140  -0.330  53.473  1.00  0.00    -0.002 A 
HETATM   13  C14 UNL     1      29.315   0.700  53.636  1.00  0.00     0.008 A 
HETATM   14  C15 UNL     1      27.868   0.724  53.662  1.00  0.00     0.179 A 
HETATM   15  O1  UNL     1      27.278   1.628  52.733  1.00  0.00    -0.321 OA
HETATM   16  H4  UNL     1      22.480   2.006  51.067  1.00  0.00     0.188 HD
HETATM   17  H8  UNL     1      26.458  -1.106  55.293  1.00  0.00     0.154 HD
ENDROOT
BRANCH   1  18
HETATM   18  C5  UNL     1      22.450   0.295  52.986  1.00  0.00     0.058 A 
HETATM   19  C4  UNL     1      22.199  -0.574  54.019  1.00  0.00     0.031 A 
HETATM   20  C3  UNL     1      20.979  -1.153  54.280  1.00  0.00     0.004 A 
HETATM   21  C2  UNL     1      19.905  -0.861  53.467  1.00  0.00     0.019 A 
HETATM   22  C1  UNL     1      20.051  -0.001  52.404  1.00  0.00     0.013 A 
HETATM   23 BR1  UNL     1      18.592   0.412  51.277  1.00  0.00    -0.051 Br
HETATM   24  C16 UNL     1      21.304   0.535  52.211  1.00  0.00     0.050 A 
ENDBRANCH   1  18
TORSDOF 1
ENDMDL
MODEL 2
REMARK VINA RESULT:      -8.8      1.640      3.140
REMARK  1 active torsions:
REMARK  status: ('A' for Active; 'I' for Inactive)
REMARK    1  A    between atoms: C5_6  and  N1_7 
ROOT
HETATM    1  N1  UNL     1      22.709   0.297  53.522  1.00  0.00    -0.254 N 
HETATM    2  N2  UNL     1      22.190  -0.470  54.601  1.00  0.00    -0.287 N 
HETATM    3  C6  UNL     1      22.938  -1.306  55.452  1.00  0.00     0.226 A 
HETATM    4  N3  UNL     1      24.205  -1.376  55.223  1.00  0.00    -0.217 NA
HETATM    5  C7  UNL     1      24.779  -0.630  54.157  1.00  0.00     0.193 A 
HETATM    6  C8  UNL     1      24.134   0.192  53.300  1.00  0.00     0.104 A 
HETATM    7  C9  UNL     1      24.487   1.046  52.172  1.00  0.00     0.178 C 
HETATM    8  N4  UNL     1      25.811   1.626  52.182  1.00  0.00    -0.406 N 
HETATM    9  C10 UNL     1      26.607   1.289  53.294  1.00  0.00     0.133 A 
HETATM   10  C11 UNL     1      27.699   2.244  53.551  1.00  0.00     0.000 A 
HETATM   11  C12 UNL     1      28.988   2.015  53.795  1.00  0.00    -0.002 A 
HETATM   12  C13 UNL     1      29.386   0.617  53.802  1.00  0.00    -0.002 A 
HETATM   13  C14 UNL     1      28.463  -0.307  53.554  1.00  0.00     0.008 A 
HETATM   14  C15 UNL     1      27.056  -0.144  53.252  1.00  0.00     0.179 A 
HETATM   15  O1  UNL     1      26.182  -0.872  54.109  1.00  0.00    -0.321 OA
HETATM   16  H4  UNL     1      21.160  -0.461  54.846  1.00  0.00     0.188 HD
HETATM   17  H8  UNL     1      26.246   1.696  51.262  1.00  0.00     0.154 HD
ENDROOT
BRANCH   1  18
HETATM   18  C5  UNL     1      21.727   1.054  52.847  1.00  0.00     0.058 A 
HETATM   19  C4  UNL     1      21.671   2.385  52.512  1.00  0.00     0.031 A 
HETATM   20  C3  UNL     1      20.616   2.989  51.869  1.00  0.00     0.004 A 
HETATM   21  C2  UNL     1      19.517   2.234  51.516  1.00  0.00     0.019 A 
HETATM   22  C1  UNL     1      19.475   0.890  51.806  1.00  0.00     0.013 A 
HETATM   23 BR1  UNL     1      17.979  -0.162  51.332  1.00  0.00    -0.051 Br
HETATM   24  C16 UNL     1      20.571   0.364  52.452  1.00  0.00     0.050 A 
ENDBRANCH   1  18
TORSDOF 1
ENDMDL
MODEL 3
REMARK VINA RESULT:      -8.8      2.846      5.066
REMARK  1 active torsions:
REMARK  status: ('A' for Active; 'I' for Inactive)
REMARK    1  A    between atoms: C5_6  and  N1_7 
ROOT
HETATM    1  N1  UNL     1      24.427   1.990  52.357  1.00  0.00    -0.254 N 
HETATM    2  N2  UNL     1      25.264   1.524  53.407  1.00  0.00    -0.287 N 
HETATM    3  C6  UNL     1      26.667   1.643  53.458  1.00  0.00     0.226 A 
HETATM    4  N3  UNL     1      27.231   2.228  52.458  1.00  0.00    -0.217 NA
HETATM    5  C7  UNL     1      26.443   2.715  51.378  1.00  0.00     0.193 A 
HETATM    6  C8  UNL     1      25.100   2.640  51.255  1.00  0.00     0.104 A 
HETATM    7  C9  UNL     1      24.093   3.059  50.285  1.00  0.00     0.178 C 
HETATM    8  N4  UNL     1      24.387   4.242  49.509  1.00  0.00    -0.406 N 
HETATM    9  C10 UNL     1      25.625   4.853  49.788  1.00  0.00     0.133 A 
HETATM   10  C11 UNL     1      25.687   6.271  49.396  1.00  0.00     0.000 A 
HETATM   11  C12 UNL     1      26.629   6.924  48.717  1.00  0.00    -0.002 A 
HETATM   12  C13 UNL     1      27.763   6.123  48.288  1.00  0.00    -0.002 A 
HETATM   13  C14 UNL     1      27.771   4.826  48.583  1.00  0.00     0.008 A 
HETATM   14  C15 UNL     1      26.782   4.037  49.286  1.00  0.00     0.179 A 
HETATM   15  O1  UNL     1      27.291   3.316  50.404  1.00  0.00    -0.321 OA
HETATM   16  H4  UNL     1      24.868   1.034  54.259  1.00  0.00     0.188 HD
HETATM   17  H8  UNL     1      24.058   4.205  48.545  1.00  0.00     0.154 HD
ENDROOT
BRANCH   1  18
HETATM   18  C5  UNL     1      23.055   1.742  52.579  1.00  0.00     0.058 A 
HETATM   19  C4  UNL     1      21.939   2.504  52.334  1.00  0.00     0.031 A 
HETATM   20  C3  UNL     1      20.651   2.131  52.637  1.00  0.00     0.004 A 
HETATM   21  C2  UNL     1      20.424   0.908  53.231  1.00  0.00     0.019 A 
HETATM   22  C1  UNL     1      21.475   0.068  53.519  1.00  0.00     0.013 A 
HETATM   23 BR1  UNL     1      21.186  -1.612  54.332  1.00  0.00    -0.051 Br
HETATM   24  C16 UNL     1      22.733   0.517  53.183  1.00  0.00     0.050 A 
ENDBRANCH   1  18
TORSDOF 1
ENDMDL
MODEL 4
REMARK VINA RESULT:      -8.6      2.266      3.799
REMARK  1 active torsions:
REMARK  status: ('A' for Active; 'I' for Inactive)
REMARK    1  A    between atoms: C5_6  and  N1_7 
ROOT
HETATM    1  N1  UNL     1      23.181   1.940  52.336  1.00  0.00    -0.254 N 
HETATM    2  N2  UNL     1      22.231   1.149  53.038  1.00  0.00    -0.287 N 
HETATM    3  C6  UNL     1      22.504  -0.050  53.725  1.00  0.00     0.226 A 
HETATM    4  N3  UNL     1      23.726  -0.457  53.709  1.00  0.00    -0.217 NA
HETATM    5  C7  UNL     1      24.720   0.295  53.023  1.00  0.00     0.193 A 
HETATM    6  C8  UNL     1      24.541   1.449  52.343  1.00  0.00     0.104 A 
HETATM    7  C9  UNL     1      25.371   2.384  51.592  1.00  0.00     0.178 C 
HETATM    8  N4  UNL     1      26.753   2.503  52.000  1.00  0.00    -0.406 N 
HETATM    9  C10 UNL     1      27.132   1.691  53.086  1.00  0.00     0.133 A 
HETATM   10  C11 UNL     1      28.329   2.173  53.795  1.00  0.00     0.000 A 
HETATM   11  C12 UNL     1      29.414   1.503  54.182  1.00  0.00    -0.002 A 
HETATM   12  C13 UNL     1      29.429   0.088  53.851  1.00  0.00    -0.002 A 
HETATM   13  C14 UNL     1      28.394  -0.419  53.188  1.00  0.00     0.008 A 
HETATM   14  C15 UNL     1      27.197   0.239  52.708  1.00  0.00     0.179 A 
HETATM   15  O1  UNL     1      25.981  -0.355  53.150  1.00  0.00    -0.321 OA
HETATM   16  H4  UNL     1      21.210   1.423  53.092  1.00  0.00     0.188 HD
HETATM   17  H8  UNL     1      27.408   2.641  51.230  1.00  0.00     0.154 HD
ENDROOT
BRANCH   1  18
HETATM   18  C5  UNL     1      22.625   3.098  51.750  1.00  0.00     0.058 A 
HETATM   19  C4  UNL     1      22.468   4.376  52.228  1.00  0.00     0.031 A 
HETATM   20  C3  UNL     1      21.872   5.405  51.537  1.00  0.00     0.004 A 
HETATM   21  C2  UNL     1      21.385   5.174  50.268  1.00  0.00     0.019 A 
HETATM   22  C1  UNL     1      21.494   3.927  49.698  1.00  0.00     0.013 A 
HETATM   23 BR1  UNL     1      20.833   3.589  47.960  1.00  0.00    -0.051 Br
HETATM   24  C16 UNL     1      22.103   2.953  50.456  1.00  0.00     0.050 A 
ENDBRANCH   1  18
TORSDOF 1
ENDMDL
MODEL 5
REMARK VINA RESULT:      -8.4      2.862      4.929
REMARK  1 active torsions:
REMARK  status: ('A' for Active; 'I' for Inactive)
REMARK    1  A    between atoms: C5_6  and  N1_7 
ROOT
HETATM    1  N1  UNL     1      23.580   3.465  51.420  1.00  0.00    -0.254 N 
HETATM    2  N2  UNL     1      22.340   3.004  51.940  1.00  0.00    -0.287 N 
HETATM    3  C6  UNL     1      22.123   1.769  52.583  1.00  0.00     0.226 A 
HETATM    4  N3  UNL     1      23.147   0.996  52.705  1.00  0.00    -0.217 NA
HETATM    5  C7  UNL     1      24.414   1.405  52.203  1.00  0.00     0.193 A 
HETATM    6  C8  UNL     1      24.703   2.568  51.578  1.00  0.00     0.104 A 
HETATM    7  C9  UNL     1      25.883   3.204  51.001  1.00  0.00     0.178 C 
HETATM    8  N4  UNL     1      27.159   2.873  51.595  1.00  0.00    -0.406 N 
HETATM    9  C10 UNL     1      27.104   1.966  52.671  1.00  0.00     0.133 A 
HETATM   10  C11 UNL     1      28.276   2.032  53.560  1.00  0.00     0.000 A 
HETATM   11  C12 UNL     1      29.030   1.047  54.046  1.00  0.00    -0.002 A 
HETATM   12  C13 UNL     1      28.652  -0.295  53.635  1.00  0.00    -0.002 A 
HETATM   13  C14 UNL     1      27.619  -0.438  52.811  1.00  0.00     0.008 A 
HETATM   14  C15 UNL     1      26.769   0.573  52.217  1.00  0.00     0.179 A 
HETATM   15  O1  UNL     1      25.377   0.388  52.457  1.00  0.00    -0.321 OA
HETATM   16  H4  UNL     1      21.458   3.586  51.875  1.00  0.00     0.188 HD
HETATM   17  H8  UNL     1      27.928   2.808  50.929  1.00  0.00     0.154 HD
ENDROOT
BRANCH   1  18
HETATM   18  C5  UNL     1      23.503   4.748  50.837  1.00  0.00     0.058 A 
HETATM   19  C4  UNL     1      23.739   5.999  51.352  1.00  0.00     0.031 A 
HETATM   20  C3  UNL     1      23.592   7.175  50.655  1.00  0.00     0.004 A 
HETATM   21  C2  UNL     1      23.178   7.135  49.341  1.00  0.00     0.019 A 
HETATM   22  C1  UNL     1      22.916   5.930  48.731  1.00  0.00     0.013 A 
HETATM   23 BR1  UNL     1      22.349   5.853  46.930  1.00  0.00    -0.051 Br
HETATM   24  C16 UNL     1      23.088   4.801  49.498  1.00  0.00     0.050 A 
ENDBRANCH   1  18
TORSDOF 1
ENDMDL
MODEL 6
REMARK VINA RESULT:      -8.4      3.384      5.820
REMARK  1 active torsions:
REMARK  status: ('A' for Active; 'I' for Inactive)
REMARK    1  A    between atoms: C5_6  and  N1_7 
ROOT
HETATM    1  N1  UNL     1      23.193   2.040  50.504  1.00  0.00    -0.254 N 
HETATM    2  N2  UNL     1      22.270   1.446  49.601  1.00  0.00    -0.287 N 
HETATM    3  C6  UNL     1      21.804   2.020  48.402  1.00  0.00     0.226 A 
HETATM    4  N3  UNL     1      22.260   3.189  48.108  1.00  0.00    -0.217 NA
HETATM    5  C7  UNL     1      23.187   3.832  48.976  1.00  0.00     0.193 A 
HETATM    6  C8  UNL     1      23.681   3.351  50.137  1.00  0.00     0.104 A 
HETATM    7  C9  UNL     1      24.618   3.796  51.164  1.00  0.00     0.178 C 
HETATM    8  N4  UNL     1      25.688   4.668  50.737  1.00  0.00    -0.406 N 
HETATM    9  C10 UNL     1      25.695   4.985  49.365  1.00  0.00     0.133 A 
HETATM   10  C11 UNL     1      27.010   5.421  48.864  1.00  0.00     0.000 A 
HETATM   11  C12 UNL     1      27.325   6.470  48.106  1.00  0.00    -0.002 A 
HETATM   12  C13 UNL     1      26.212   7.320  47.717  1.00  0.00    -0.002 A 
HETATM   13  C14 UNL     1      24.994   7.008  48.149  1.00  0.00     0.008 A 
HETATM   14  C15 UNL     1      24.571   5.911  48.995  1.00  0.00     0.179 A 
HETATM   15  O1  UNL     1      23.540   5.102  48.436  1.00  0.00    -0.321 OA
HETATM   16  H4  UNL     1      21.854   0.488  49.779  1.00  0.00     0.188 HD
HETATM   17  H8  UNL     1      25.939   5.388  51.414  1.00  0.00     0.154 HD
ENDROOT
BRANCH   1  18
HETATM   18  C5  UNL     1      23.488   1.228  51.621  1.00  0.00     0.058 A 
HETATM   19  C4  UNL     1      24.681   0.892  52.214  1.00  0.00     0.031 A 
HETATM   20  C3  UNL     1      24.810   0.054  53.297  1.00  0.00     0.004 A 
HETATM   21  C2  UNL     1      23.682  -0.508  53.856  1.00  0.00     0.019 A 
HETATM   22  C1  UNL     1      22.438  -0.233  53.336  1.00  0.00     0.013 A 
HETATM   23 BR1  UNL     1      20.879  -0.992  54.087  1.00  0.00    -0.051 Br
HETATM   24  C16 UNL     1      22.396   0.615  52.252  1.00  0.00     0.050 A 
ENDBRANCH   1  18
TORSDOF 1
ENDMDL
MODEL 7
REMARK VINA RESULT:      -8.4      3.284      7.040
REMARK  1 active torsions:
REMARK  status: ('A' for Active; 'I' for Inactive)
REMARK    1  A    between atoms: C5_6  and  N1_7 
ROOT
HETATM    1  N1  UNL     1      24.914   0.441  53.805  1.00  0.00    -0.254 N 
HETATM    2  N2  UNL     1      24.676  -0.643  54.694  1.00  0.00    -0.287 N 
HETATM    3  C6  UNL     1      23.424  -1.234  54.955  1.00  0.00     0.226 A 
HETATM    4  N3  UNL     1      22.412  -0.740  54.330  1.00  0.00    -0.217 NA
HETATM    5  C7  UNL     1      22.591   0.346  53.428  1.00  0.00     0.193 A 
HETATM    6  C8  UNL     1      23.752   0.966  53.123  1.00  0.00     0.104 A 
HETATM    7  C9  UNL     1      24.183   2.055  52.253  1.00  0.00     0.178 C 
HETATM    8  N4  UNL     1      23.420   2.267  51.044  1.00  0.00    -0.406 N 
HETATM    9  C10 UNL     1      22.340   1.383  50.853  1.00  0.00     0.133 A 
HETATM   10  C11 UNL     1      21.910   1.269  49.449  1.00  0.00     0.000 A 
HETATM   11  C12 UNL     1      20.686   1.323  48.928  1.00  0.00    -0.002 A 
HETATM   12  C13 UNL     1      19.607   1.535  49.880  1.00  0.00    -0.002 A 
HETATM   13  C14 UNL     1      19.915   1.672  51.166  1.00  0.00     0.008 A 
HETATM   14  C15 UNL     1      21.213   1.656  51.808  1.00  0.00     0.179 A 
HETATM   15  O1  UNL     1      21.334   0.709  52.866  1.00  0.00    -0.321 OA
HETATM   16  H4  UNL     1      25.461  -1.097  55.240  1.00  0.00     0.188 HD
HETATM   17  H8  UNL     1      23.313   3.246  50.780  1.00  0.00     0.154 HD
ENDROOT
BRANCH   1  18
HETATM   18  C5  UNL     1      26.272   0.820  53.733  1.00  0.00     0.058 A 
HETATM   19  C4  UNL     1      26.873   2.055  53.695  1.00  0.00     0.031 A 
HETATM   20  C3  UNL     1      28.229   2.265  53.594  1.00  0.00     0.004 A 
HETATM   21  C2  UNL     1      29.078   1.181  53.524  1.00  0.00     0.019 A 
HETATM   22  C1  UNL     1      28.574  -0.099  53.554  1.00  0.00     0.013 A 
HETATM   23 BR1  UNL     1      29.720  -1.599  53.459  1.00  0.00    -0.051 Br
HETATM   24  C16 UNL     1      27.207  -0.222  53.656  1.00  0.00     0.050 A 
ENDBRANCH   1  18
TORSDOF 1
ENDMDL
MODEL 8
REMARK VINA RESULT:      -8.3      3.996      6.555
REMARK  1 active torsions:
REMARK  status: ('A' for Active; 'I' for Inactive)
REMARK    1  A    between atoms: C5_6  and  N1_7 
ROOT
HETATM    1  N1  UNL     1      24.993   4.602  50.444  1.00  0.00    -0.254 N 
HETATM    2  N2  UNL     1      23.772   5.315  50.598  1.00  0.00    -0.287 N 
HETATM    3  C6  UNL     1      22.631   4.856  51.283  1.00  0.00     0.226 A 
HETATM    4  N3  UNL     1      22.710   3.684  51.813  1.00  0.00    -0.217 NA
HETATM    5  C7  UNL     1      23.907   2.925  51.691  1.00  0.00     0.193 A 
HETATM    6  C8  UNL     1      25.041   3.292  51.054  1.00  0.00     0.104 A 
HETATM    7  C9  UNL     1      26.359   2.718  50.807  1.00  0.00     0.178 C 
HETATM    8  N4  UNL     1      26.874   1.812  51.808  1.00  0.00    -0.406 N 
HETATM    9  C10 UNL     1      26.028   1.591  52.912  1.00  0.00     0.133 A 
HETATM   10  C11 UNL     1      26.734   1.109  54.112  1.00  0.00     0.000 A 
HETATM   11  C12 UNL     1      26.434   0.098  54.925  1.00  0.00    -0.002 A 
HETATM   12  C13 UNL     1      25.237  -0.652  54.579  1.00  0.00    -0.002 A 
HETATM   13  C14 UNL     1      24.556  -0.294  53.495  1.00  0.00     0.008 A 
HETATM   14  C15 UNL     1      24.827   0.766  52.547  1.00  0.00     0.179 A 
HETATM   15  O1  UNL     1      23.748   1.676  52.357  1.00  0.00    -0.321 OA
HETATM   16  H4  UNL     1      23.637   6.282  50.188  1.00  0.00     0.188 HD
HETATM   17  H8  UNL     1      27.412   1.032  51.432  1.00  0.00     0.154 HD
ENDROOT
BRANCH   1  18
HETATM   18  C5  UNL     1      25.972   5.314  49.717  1.00  0.00     0.058 A 
HETATM   19  C4  UNL     1      27.009   4.886  48.924  1.00  0.00     0.031 A 
HETATM   20  C3  UNL     1      27.909   5.714  48.295  1.00  0.00     0.004 A 
HETATM   21  C2  UNL     1      27.793   7.079  48.448  1.00  0.00     0.019 A 
HETATM   22  C1  UNL     1      26.787   7.609  49.223  1.00  0.00     0.013 A 
HETATM   23 BR1  UNL     1      26.610   9.477  49.445  1.00  0.00    -0.051 Br
HETATM   24  C16 UNL     1      25.929   6.712  49.817  1.00  0.00     0.050 A 
ENDBRANCH   1  18
TORSDOF 1
ENDMDL
MODEL 9
REMARK VINA RESULT:      -8.1      3.627      6.408
REMARK  1 active torsions:
REMARK  status: ('A' for Active; 'I' for Inactive)
REMARK    1  A    between atoms: C5_6  and  N1_7 
ROOT
HETATM    1  N1  UNL     1      22.878   2.095  51.009  1.00  0.00    -0.254 N 
HETATM    2  N2  UNL     1      22.323   1.413  49.892  1.00  0.00    -0.287 N 
HETATM    3  C6  UNL     1      21.703   2.019  48.781  1.00  0.00     0.226 A 
HETATM    4  N3  UNL     1      21.638   3.305  48.789  1.00  0.00    -0.217 NA
HETATM    5  C7  UNL     1      22.178   4.041  49.881  1.00  0.00     0.193 A 
HETATM    6  C8  UNL     1      22.785   3.538  50.978  1.00  0.00     0.104 A 
HETATM    7  C9  UNL     1      23.411   4.064  52.187  1.00  0.00     0.178 C 
HETATM    8  N4  UNL     1      24.031   5.365  52.087  1.00  0.00    -0.406 N 
HETATM    9  C10 UNL     1      23.955   5.973  50.819  1.00  0.00     0.133 A 
HETATM   10  C11 UNL     1      24.983   7.003  50.592  1.00  0.00     0.000 A 
HETATM   11  C12 UNL     1      24.857   8.236  50.107  1.00  0.00    -0.002 A 
HETATM   12  C13 UNL     1      23.505   8.637  49.753  1.00  0.00    -0.002 A 
HETATM   13  C14 UNL     1      22.515   7.771  49.951  1.00  0.00     0.008 A 
HETATM   14  C15 UNL     1      22.561   6.431  50.497  1.00  0.00     0.179 A 
HETATM   15  O1  UNL     1      21.985   5.434  49.658  1.00  0.00    -0.321 OA
HETATM   16  H4  UNL     1      22.341   0.357  49.819  1.00  0.00     0.188 HD
HETATM   17  H8  UNL     1      23.932   5.943  52.921  1.00  0.00     0.154 HD
ENDROOT
BRANCH   1  18
HETATM   18  C5  UNL     1      23.446   1.230  51.970  1.00  0.00     0.058 A 
HETATM   19  C4  UNL     1      24.752   0.990  52.322  1.00  0.00     0.031 A 
HETATM   20  C3  UNL     1      25.153   0.083  53.274  1.00  0.00     0.004 A 
HETATM   21  C2  UNL     1      24.204  -0.658  53.945  1.00  0.00     0.019 A 
HETATM   22  C1  UNL     1      22.867  -0.492  53.666  1.00  0.00     0.013 A 
HETATM   23 BR1  UNL     1      21.550  -1.497  54.574  1.00  0.00    -0.051 Br
HETATM   24  C16 UNL     1      22.550   0.436  52.700  1.00  0.00     0.050 A 
ENDBRANCH   1  18
TORSDOF 1
ENDMDL
