MODEL 1
REMARK VINA RESULT:      -8.2      0.000      0.000
REMARK  5 active torsions:
REMARK  status: ('A' for Active; 'I' for Inactive)
REMARK    1  A    between atoms: C7_7  and  S1_8 
REMARK    2  A    between atoms: S1_8  and  C8_9 
REMARK    3  A    between atoms: C8_9  and  C9_10 
REMARK    4  A    between atoms: C8_9  and  C12_14 
REMARK    5  A    between atoms: C9_10  and  N1_11 
ROOT
HETATM    1  C12 UNL     1      25.024   2.076  52.609  1.00  0.00     0.152 A 
HETATM    2  O1  UNL     1      25.047   3.014  53.452  1.00  0.00    -0.348 OA
HETATM    3  C13 UNL     1      24.135   3.000  52.136  1.00  0.00     0.143 A 
HETATM    4  C14 UNL     1      24.356   2.493  50.885  1.00  0.00    -0.007 C 
HETATM    5  C15 UNL     1      24.914   3.361  50.012  1.00  0.00     0.011 C 
HETATM    6  C16 UNL     1      24.783   4.806  50.208  1.00  0.00    -0.003 C 
HETATM    7  C17 UNL     1      24.831   6.095  50.444  1.00  0.00    -0.025 C 
HETATM    8  C18 UNL     1      24.564   7.553  50.597  1.00  0.00     0.053 C 
HETATM    9  C19 UNL     1      23.026   7.743  50.193  1.00  0.00     0.171 C 
HETATM   10  O2  UNL     1      22.431   6.804  50.762  1.00  0.00    -0.387 OA
HETATM   11  C20 UNL     1      21.833   5.861  51.345  1.00  0.00     0.194 C 
HETATM   12  C21 UNL     1      23.002   5.302  52.264  1.00  0.00    -0.002 C 
HETATM   13  C22 UNL     1      23.322   4.085  51.908  1.00  0.00     0.017 C 
ENDROOT
BRANCH   1  14
HETATM   14  C8  UNL     1      25.647   0.795  52.403  1.00  0.00     0.122 C 
BRANCH  14  15
HETATM   15  S1  UNL     1      24.850  -0.583  53.228  1.00  0.00    -0.119 SA
BRANCH  15  16
HETATM   16  C7  UNL     1      23.094  -0.517  53.276  1.00  0.00     0.007 A 
HETATM   17  C2  UNL     1      22.574  -0.941  54.494  1.00  0.00    -0.045 A 
HETATM   18  C1  UNL     1      23.391  -1.398  55.644  1.00  0.00     0.049 C 
HETATM   19  C3  UNL     1      21.215  -0.954  54.735  1.00  0.00     0.008 A 
HETATM   20  C4  UNL     1      20.332  -0.532  53.735  1.00  0.00     0.001 A 
HETATM   21  C5  UNL     1      20.873  -0.107  52.522  1.00  0.00     0.001 A 
HETATM   22  C6  UNL     1      22.222  -0.101  52.300  1.00  0.00     0.019 A 
ENDBRANCH  15  16
ENDBRANCH  14  15
BRANCH  14  23
HETATM   23  C9  UNL     1      27.118   0.802  52.650  1.00  0.00     0.290 C 
BRANCH  23  24
HETATM   24  N1  UNL     1      27.537   1.347  53.905  1.00  0.00     0.081 N 
HETATM   25  C10 UNL     1      28.292   0.260  54.577  1.00  0.00     0.309 C 
HETATM   26  C11 UNL     1      28.593   2.359  53.656  1.00  0.00     0.309 C 
ENDBRANCH  23  24
ENDBRANCH  14  23
ENDBRANCH   1  14
TORSDOF 5
ENDMDL
MODEL 2
REMARK VINA RESULT:      -8.2      2.706      5.934
REMARK  5 active torsions:
REMARK  status: ('A' for Active; 'I' for Inactive)
REMARK    1  A    between atoms: C7_7  and  S1_8 
REMARK    2  A    between atoms: S1_8  and  C8_9 
REMARK    3  A    between atoms: C8_9  and  C9_10 
REMARK    4  A    between atoms: C8_9  and  C12_14 
REMARK    5  A    between atoms: C9_10  and  N1_11 
ROOT
HETATM    1  C12 UNL     1      24.671   3.236  50.984  1.00  0.00     0.152 A 
HETATM    2  O1  UNL     1      25.582   2.760  50.254  1.00  0.00    -0.348 OA
HETATM    3  C13 UNL     1      25.078   2.098  51.621  1.00  0.00     0.143 A 
HETATM    4  C14 UNL     1      24.631   2.657  52.787  1.00  0.00    -0.007 C 
HETATM    5  C15 UNL     1      25.591   2.886  53.711  1.00  0.00     0.011 C 
HETATM    6  C16 UNL     1      26.843   2.128  53.691  1.00  0.00    -0.003 C 
HETATM    7  C17 UNL     1      28.038   1.594  53.600  1.00  0.00    -0.025 C 
HETATM    8  C18 UNL     1      29.239   0.713  53.634  1.00  0.00     0.053 C 
HETATM    9  C19 UNL     1      28.709  -0.701  54.167  1.00  0.00     0.171 C 
HETATM   10  O2  UNL     1      27.648  -0.898  53.539  1.00  0.00    -0.387 OA
HETATM   11  C20 UNL     1      26.583  -1.099  52.897  1.00  0.00     0.194 C 
HETATM   12  C21 UNL     1      26.657   0.084  51.838  1.00  0.00    -0.002 C 
HETATM   13  C22 UNL     1      25.680   0.931  52.030  1.00  0.00     0.017 C 
ENDROOT
BRANCH   1  14
HETATM   14  C8  UNL     1      23.780   4.366  50.996  1.00  0.00     0.122 C 
BRANCH  14  15
HETATM   15  S1  UNL     1      22.074   3.997  50.585  1.00  0.00    -0.119 SA
BRANCH  15  16
HETATM   16  C7  UNL     1      21.406   2.567  51.356  1.00  0.00     0.007 A 
HETATM   17  C2  UNL     1      21.445   1.446  50.534  1.00  0.00    -0.045 A 
HETATM   18  C1  UNL     1      21.990   1.432  49.155  1.00  0.00     0.049 C 
HETATM   19  C3  UNL     1      20.976   0.220  50.960  1.00  0.00     0.008 A 
HETATM   20  C4  UNL     1      20.447   0.092  52.250  1.00  0.00     0.001 A 
HETATM   21  C5  UNL     1      20.421   1.227  53.061  1.00  0.00     0.001 A 
HETATM   22  C6  UNL     1      20.889   2.434  52.621  1.00  0.00     0.019 A 
ENDBRANCH  15  16
ENDBRANCH  14  15
BRANCH  14  23
HETATM   23  C9  UNL     1      24.289   5.535  50.221  1.00  0.00     0.290 C 
BRANCH  23  24
HETATM   24  N1  UNL     1      24.536   6.724  50.979  1.00  0.00     0.081 N 
HETATM   25  C10 UNL     1      25.695   7.378  50.322  1.00  0.00     0.309 C 
HETATM   26  C11 UNL     1      23.440   7.689  50.720  1.00  0.00     0.309 C 
ENDBRANCH  23  24
ENDBRANCH  14  23
ENDBRANCH   1  14
TORSDOF 5
ENDMDL
MODEL 3
REMARK VINA RESULT:      -7.5      2.978      7.603
REMARK  5 active torsions:
REMARK  status: ('A' for Active; 'I' for Inactive)
REMARK    1  A    between atoms: C7_7  and  S1_8 
REMARK    2  A    between atoms: S1_8  and  C8_9 
REMARK    3  A    between atoms: C8_9  and  C9_10 
REMARK    4  A    between atoms: C8_9  and  C12_14 
REMARK    5  A    between atoms: C9_10  and  N1_11 
ROOT
HETATM    1  C12 UNL     1      23.563   4.184  51.595  1.00  0.00     0.152 A 
HETATM    2  O1  UNL     1      23.856   4.128  52.820  1.00  0.00    -0.348 OA
HETATM    3  C13 UNL     1      23.652   2.851  51.877  1.00  0.00     0.143 A 
HETATM    4  C14 UNL     1      22.808   2.627  50.825  1.00  0.00    -0.007 C 
HETATM    5  C15 UNL     1      21.617   2.080  51.158  1.00  0.00     0.011 C 
HETATM    6  C16 UNL     1      21.468   1.314  52.397  1.00  0.00    -0.003 C 
HETATM    7  C17 UNL     1      21.257   0.772  53.573  1.00  0.00    -0.025 C 
HETATM    8  C18 UNL     1      21.174  -0.114  54.767  1.00  0.00     0.053 C 
HETATM    9  C19 UNL     1      21.958  -1.449  54.356  1.00  0.00     0.171 C 
HETATM   10  O2  UNL     1      22.994  -1.045  53.790  1.00  0.00    -0.387 OA
HETATM   11  C20 UNL     1      24.043  -0.634  53.225  1.00  0.00     0.194 C 
HETATM   12  C21 UNL     1      23.953   0.920  53.545  1.00  0.00    -0.002 C 
HETATM   13  C22 UNL     1      23.804   1.606  52.442  1.00  0.00     0.017 C 
ENDROOT
BRANCH   1  14
HETATM   14  C8  UNL     1      23.313   5.185  50.591  1.00  0.00     0.122 C 
BRANCH  14  15
HETATM   15  S1  UNL     1      24.008   4.835  48.975  1.00  0.00    -0.119 SA
BRANCH  15  16
HETATM   16  C7  UNL     1      25.584   5.547  48.664  1.00  0.00     0.007 A 
HETATM   17  C2  UNL     1      26.632   4.683  48.963  1.00  0.00    -0.045 A 
HETATM   18  C1  UNL     1      26.464   3.305  49.483  1.00  0.00     0.049 C 
HETATM   19  C3  UNL     1      27.949   5.052  48.778  1.00  0.00     0.008 A 
HETATM   20  C4  UNL     1      28.246   6.325  48.277  1.00  0.00     0.001 A 
HETATM   21  C5  UNL     1      27.182   7.175  47.980  1.00  0.00     0.001 A 
HETATM   22  C6  UNL     1      25.883   6.793  48.171  1.00  0.00     0.019 A 
ENDBRANCH  15  16
ENDBRANCH  14  15
BRANCH  14  23
HETATM   23  C9  UNL     1      23.638   6.571  51.037  1.00  0.00     0.290 C 
BRANCH  23  24
HETATM   24  N1  UNL     1      22.577   7.526  50.926  1.00  0.00     0.081 N 
HETATM   25  C10 UNL     1      22.908   8.348  49.736  1.00  0.00     0.309 C 
HETATM   26  C11 UNL     1      21.347   6.820  50.491  1.00  0.00     0.309 C 
ENDBRANCH  23  24
ENDBRANCH  14  23
ENDBRANCH   1  14
TORSDOF 5
ENDMDL
MODEL 4
REMARK VINA RESULT:      -7.5      3.490      8.062
REMARK  5 active torsions:
REMARK  status: ('A' for Active; 'I' for Inactive)
REMARK    1  A    between atoms: C7_7  and  S1_8 
REMARK    2  A    between atoms: S1_8  and  C8_9 
REMARK    3  A    between atoms: C8_9  and  C9_10 
REMARK    4  A    between atoms: C8_9  and  C12_14 
REMARK    5  A    between atoms: C9_10  and  N1_11 
ROOT
HETATM    1  C12 UNL     1      23.151   4.675  50.311  1.00  0.00     0.152 A 
HETATM    2  O1  UNL     1      22.851   4.764  51.532  1.00  0.00    -0.348 OA
HETATM    3  C13 UNL     1      23.556   3.493  50.862  1.00  0.00     0.143 A 
HETATM    4  C14 UNL     1      23.423   2.932  49.621  1.00  0.00    -0.007 C 
HETATM    5  C15 UNL     1      22.485   1.962  49.535  1.00  0.00     0.011 C 
HETATM    6  C16 UNL     1      22.062   1.224  50.727  1.00  0.00    -0.003 C 
HETATM    7  C17 UNL     1      21.540   0.665  51.793  1.00  0.00    -0.025 C 
HETATM    8  C18 UNL     1      21.233  -0.158  52.996  1.00  0.00     0.053 C 
HETATM    9  C19 UNL     1      22.526  -1.078  53.217  1.00  0.00     0.171 C 
HETATM   10  O2  UNL     1      23.494  -0.305  53.061  1.00  0.00    -0.387 OA
HETATM   11  C20 UNL     1      24.469   0.479  52.910  1.00  0.00     0.194 C 
HETATM   12  C21 UNL     1      23.710   1.874  52.850  1.00  0.00    -0.002 C 
HETATM   13  C22 UNL     1      23.855   2.423  51.672  1.00  0.00     0.017 C 
ENDROOT
BRANCH   1  14
HETATM   14  C8  UNL     1      23.058   5.474  49.117  1.00  0.00     0.122 C 
BRANCH  14  15
HETATM   15  S1  UNL     1      24.308   6.749  48.953  1.00  0.00    -0.119 SA
BRANCH  15  16
HETATM   16  C7  UNL     1      25.950   6.169  48.720  1.00  0.00     0.007 A 
HETATM   17  C2  UNL     1      26.792   7.137  48.185  1.00  0.00    -0.045 A 
HETATM   18  C1  UNL     1      26.375   8.519  47.845  1.00  0.00     0.049 C 
HETATM   19  C3  UNL     1      28.125   6.880  47.936  1.00  0.00     0.008 A 
HETATM   20  C4  UNL     1      28.650   5.616  48.227  1.00  0.00     0.001 A 
HETATM   21  C5  UNL     1      27.791   4.659  48.766  1.00  0.00     0.001 A 
HETATM   22  C6  UNL     1      26.473   4.931  49.005  1.00  0.00     0.019 A 
ENDBRANCH  15  16
ENDBRANCH  14  15
BRANCH  14  23
HETATM   23  C9  UNL     1      21.690   6.014  48.866  1.00  0.00     0.290 C 
BRANCH  23  24
HETATM   24  N1  UNL     1      20.629   5.054  48.886  1.00  0.00     0.081 N 
HETATM   25  C10 UNL     1      19.558   5.664  49.713  1.00  0.00     0.309 C 
HETATM   26  C11 UNL     1      20.003   5.010  47.541  1.00  0.00     0.309 C 
ENDBRANCH  23  24
ENDBRANCH  14  23
ENDBRANCH   1  14
TORSDOF 5
ENDMDL
MODEL 5
REMARK VINA RESULT:      -7.4      2.763      4.700
REMARK  5 active torsions:
REMARK  status: ('A' for Active; 'I' for Inactive)
REMARK    1  A    between atoms: C7_7  and  S1_8 
REMARK    2  A    between atoms: S1_8  and  C8_9 
REMARK    3  A    between atoms: C8_9  and  C9_10 
REMARK    4  A    between atoms: C8_9  and  C12_14 
REMARK    5  A    between atoms: C9_10  and  N1_11 
ROOT
HETATM    1  C12 UNL     1      21.969   2.602  51.018  1.00  0.00     0.152 A 
HETATM    2  O1  UNL     1      21.766   3.180  49.915  1.00  0.00    -0.348 OA
HETATM    3  C13 UNL     1      23.139   3.249  50.735  1.00  0.00     0.143 A 
HETATM    4  C14 UNL     1      23.392   3.264  52.079  1.00  0.00    -0.007 C 
HETATM    5  C15 UNL     1      23.458   4.498  52.630  1.00  0.00     0.011 C 
HETATM    6  C16 UNL     1      23.774   5.667  51.808  1.00  0.00    -0.003 C 
HETATM    7  C17 UNL     1      23.884   6.750  51.077  1.00  0.00    -0.025 C 
HETATM    8  C18 UNL     1      24.340   7.896  50.242  1.00  0.00     0.053 C 
HETATM    9  C19 UNL     1      25.904   7.644  50.001  1.00  0.00     0.171 C 
HETATM   10  O2  UNL     1      25.989   6.430  49.724  1.00  0.00    -0.387 OA
HETATM   11  C20 UNL     1      26.072   5.206  49.438  1.00  0.00     0.194 C 
HETATM   12  C21 UNL     1      24.533   4.843  49.280  1.00  0.00    -0.002 C 
HETATM   13  C22 UNL     1      24.167   3.990  50.202  1.00  0.00     0.017 C 
ENDROOT
BRANCH   1  14
HETATM   14  C8  UNL     1      21.259   1.754  51.938  1.00  0.00     0.122 C 
BRANCH  14  15
HETATM   15  S1  UNL     1      21.794   0.043  51.969  1.00  0.00    -0.119 SA
BRANCH  15  16
HETATM   16  C7  UNL     1      22.951  -0.361  53.228  1.00  0.00     0.007 A 
HETATM   17  C2  UNL     1      22.368  -1.029  54.299  1.00  0.00    -0.045 A 
HETATM   18  C1  UNL     1      20.930  -1.379  54.390  1.00  0.00     0.049 C 
HETATM   19  C3  UNL     1      23.112  -1.442  55.386  1.00  0.00     0.008 A 
HETATM   20  C4  UNL     1      24.488  -1.186  55.418  1.00  0.00     0.001 A 
HETATM   21  C5  UNL     1      25.055  -0.518  54.333  1.00  0.00     0.001 A 
HETATM   22  C6  UNL     1      24.302  -0.116  53.265  1.00  0.00     0.019 A 
ENDBRANCH  15  16
ENDBRANCH  14  15
BRANCH  14  23
HETATM   23  C9  UNL     1      19.775   1.861  51.823  1.00  0.00     0.290 C 
BRANCH  23  24
HETATM   24  N1  UNL     1      19.154   0.946  50.914  1.00  0.00     0.081 N 
HETATM   25  C10 UNL     1      18.019   0.353  51.663  1.00  0.00     0.309 C 
HETATM   26  C11 UNL     1      18.463   1.723  49.856  1.00  0.00     0.309 C 
ENDBRANCH  23  24
ENDBRANCH  14  23
ENDBRANCH   1  14
TORSDOF 5
ENDMDL
MODEL 6
REMARK VINA RESULT:      -7.3      3.261      7.578
REMARK  5 active torsions:
REMARK  status: ('A' for Active; 'I' for Inactive)
REMARK    1  A    between atoms: C7_7  and  S1_8 
REMARK    2  A    between atoms: S1_8  and  C8_9 
REMARK    3  A    between atoms: C8_9  and  C9_10 
REMARK    4  A    between atoms: C8_9  and  C12_14 
REMARK    5  A    between atoms: C9_10  and  N1_11 
ROOT
HETATM    1  C12 UNL     1      24.035   2.790  52.426  1.00  0.00     0.152 A 
HETATM    2  O1  UNL     1      23.647   1.877  53.205  1.00  0.00    -0.348 OA
HETATM    3  C13 UNL     1      25.180   2.262  52.951  1.00  0.00     0.143 A 
HETATM    4  C14 UNL     1      25.831   2.700  51.831  1.00  0.00    -0.007 C 
HETATM    5  C15 UNL     1      26.360   1.720  51.063  1.00  0.00     0.011 C 
HETATM    6  C16 UNL     1      26.679   0.412  51.636  1.00  0.00    -0.003 C 
HETATM    7  C17 UNL     1      26.817  -0.817  52.074  1.00  0.00    -0.025 C 
HETATM    8  C18 UNL     1      27.256  -2.088  52.716  1.00  0.00     0.053 C 
HETATM    9  C19 UNL     1      28.560  -1.701  53.563  1.00  0.00     0.171 C 
HETATM   10  O2  UNL     1      28.260  -0.633  54.135  1.00  0.00    -0.387 OA
HETATM   11  C20 UNL     1      27.951   0.441  54.717  1.00  0.00     0.194 C 
HETATM   12  C21 UNL     1      26.399   0.513  54.385  1.00  0.00    -0.002 C 
HETATM   13  C22 UNL     1      26.141   1.547  53.628  1.00  0.00     0.017 C 
ENDROOT
BRANCH   1  14
HETATM   14  C8  UNL     1      23.460   3.770  51.542  1.00  0.00     0.122 C 
BRANCH  14  15
HETATM   15  S1  UNL     1      23.423   5.445  52.181  1.00  0.00    -0.119 SA
BRANCH  15  16
HETATM   16  C7  UNL     1      23.919   6.693  51.048  1.00  0.00     0.007 A 
HETATM   17  C2  UNL     1      22.841   7.382  50.502  1.00  0.00    -0.045 A 
HETATM   18  C1  UNL     1      21.420   7.114  50.827  1.00  0.00     0.049 C 
HETATM   19  C3  UNL     1      23.022   8.408  49.597  1.00  0.00     0.008 A 
HETATM   20  C4  UNL     1      24.319   8.772  49.215  1.00  0.00     0.001 A 
HETATM   21  C5  UNL     1      25.387   8.072  49.777  1.00  0.00     0.001 A 
HETATM   22  C6  UNL     1      25.188   7.057  50.671  1.00  0.00     0.019 A 
ENDBRANCH  15  16
ENDBRANCH  14  15
BRANCH  14  23
HETATM   23  C9  UNL     1      22.136   3.367  50.987  1.00  0.00     0.290 C 
BRANCH  23  24
HETATM   24  N1  UNL     1      22.117   3.044  49.593  1.00  0.00     0.081 N 
HETATM   25  C10 UNL     1      21.062   3.902  49.000  1.00  0.00     0.309 C 
HETATM   26  C11 UNL     1      23.350   3.578  48.964  1.00  0.00     0.309 C 
ENDBRANCH  23  24
ENDBRANCH  14  23
ENDBRANCH   1  14
TORSDOF 5
ENDMDL
MODEL 7
REMARK VINA RESULT:      -7.2      2.861      6.405
REMARK  5 active torsions:
REMARK  status: ('A' for Active; 'I' for Inactive)
REMARK    1  A    between atoms: C7_7  and  S1_8 
REMARK    2  A    between atoms: S1_8  and  C8_9 
REMARK    3  A    between atoms: C8_9  and  C9_10 
REMARK    4  A    between atoms: C8_9  and  C12_14 
REMARK    5  A    between atoms: C9_10  and  N1_11 
ROOT
HETATM    1  C12 UNL     1      22.477   0.662  52.067  1.00  0.00     0.152 A 
HETATM    2  O1  UNL     1      22.051  -0.073  51.135  1.00  0.00    -0.348 OA
HETATM    3  C13 UNL     1      21.125   0.859  52.049  1.00  0.00     0.143 A 
HETATM    4  C14 UNL     1      21.213   1.209  53.368  1.00  0.00    -0.007 C 
HETATM    5  C15 UNL     1      20.551   0.390  54.218  1.00  0.00     0.011 C 
HETATM    6  C16 UNL     1      19.433  -0.429  53.746  1.00  0.00    -0.003 C 
HETATM    7  C17 UNL     1      18.545  -1.297  53.324  1.00  0.00    -0.025 C 
HETATM    8  C18 UNL     1      17.329  -2.012  52.845  1.00  0.00     0.053 C 
HETATM    9  C19 UNL     1      16.215  -0.875  52.671  1.00  0.00     0.171 C 
HETATM   10  O2  UNL     1      16.809   0.065  52.102  1.00  0.00    -0.387 OA
HETATM   11  C20 UNL     1      17.409   1.008  51.522  1.00  0.00     0.194 C 
HETATM   12  C21 UNL     1      18.782   0.297  51.159  1.00  0.00    -0.002 C 
HETATM   13  C22 UNL     1      19.772   0.857  51.803  1.00  0.00     0.017 C 
ENDROOT
BRANCH   1  14
HETATM   14  C8  UNL     1      23.731   1.002  52.684  1.00  0.00     0.122 C 
BRANCH  14  15
HETATM   15  S1  UNL     1      24.636   2.332  51.892  1.00  0.00    -0.119 SA
BRANCH  15  16
HETATM   16  C7  UNL     1      23.749   3.214  50.658  1.00  0.00     0.007 A 
HETATM   17  C2  UNL     1      23.042   4.295  51.173  1.00  0.00    -0.045 A 
HETATM   18  C1  UNL     1      23.026   4.685  52.604  1.00  0.00     0.049 C 
HETATM   19  C3  UNL     1      22.290   5.120  50.362  1.00  0.00     0.008 A 
HETATM   20  C4  UNL     1      22.232   4.871  48.986  1.00  0.00     0.001 A 
HETATM   21  C5  UNL     1      22.952   3.785  48.488  1.00  0.00     0.001 A 
HETATM   22  C6  UNL     1      23.691   2.977  49.306  1.00  0.00     0.019 A 
ENDBRANCH  15  16
ENDBRANCH  14  15
BRANCH  14  23
HETATM   23  C9  UNL     1      24.608  -0.177  52.942  1.00  0.00     0.290 C 
BRANCH  23  24
HETATM   24  N1  UNL     1      26.007   0.102  53.066  1.00  0.00     0.081 N 
HETATM   25  C10 UNL     1      26.295   0.047  54.521  1.00  0.00     0.309 C 
HETATM   26  C11 UNL     1      26.771  -1.059  52.548  1.00  0.00     0.309 C 
ENDBRANCH  23  24
ENDBRANCH  14  23
ENDBRANCH   1  14
TORSDOF 5
ENDMDL
MODEL 8
REMARK VINA RESULT:      -7.0      1.883      4.510
REMARK  5 active torsions:
REMARK  status: ('A' for Active; 'I' for Inactive)
REMARK    1  A    between atoms: C7_7  and  S1_8 
REMARK    2  A    between atoms: S1_8  and  C8_9 
REMARK    3  A    between atoms: C8_9  and  C9_10 
REMARK    4  A    between atoms: C8_9  and  C12_14 
REMARK    5  A    between atoms: C9_10  and  N1_11 
ROOT
HETATM    1  C12 UNL     1      23.890   3.237  52.572  1.00  0.00     0.152 A 
HETATM    2  O1  UNL     1      24.245   4.368  53.000  1.00  0.00    -0.348 OA
HETATM    3  C13 UNL     1      23.678   4.093  51.529  1.00  0.00     0.143 A 
HETATM    4  C14 UNL     1      23.814   3.020  50.692  1.00  0.00    -0.007 C 
HETATM    5  C15 UNL     1      24.867   3.090  49.846  1.00  0.00     0.011 C 
HETATM    6  C16 UNL     1      25.452   4.383  49.487  1.00  0.00    -0.003 C 
HETATM    7  C17 UNL     1      26.104   5.501  49.279  1.00  0.00    -0.025 C 
HETATM    8  C18 UNL     1      26.587   6.837  48.828  1.00  0.00     0.053 C 
HETATM    9  C19 UNL     1      25.443   7.389  47.852  1.00  0.00     0.171 C 
HETATM   10  O2  UNL     1      24.374   7.136  48.443  1.00  0.00    -0.387 OA
HETATM   11  C20 UNL     1      23.296   6.886  49.046  1.00  0.00     0.194 C 
HETATM   12  C21 UNL     1      23.857   6.421  50.458  1.00  0.00    -0.002 C 
HETATM   13  C22 UNL     1      23.573   5.163  50.671  1.00  0.00     0.017 C 
ENDROOT
BRANCH   1  14
HETATM   14  C8  UNL     1      23.807   1.881  53.048  1.00  0.00     0.122 C 
BRANCH  14  15
HETATM   15  S1  UNL     1      25.011   0.751  52.350  1.00  0.00    -0.119 SA
BRANCH  15  16
HETATM   16  C7  UNL     1      26.659   0.962  52.919  1.00  0.00     0.007 A 
HETATM   17  C2  UNL     1      27.345  -0.242  53.037  1.00  0.00    -0.045 A 
HETATM   18  C1  UNL     1      26.771  -1.572  52.718  1.00  0.00     0.049 C 
HETATM   19  C3  UNL     1      28.658  -0.288  53.460  1.00  0.00     0.008 A 
HETATM   20  C4  UNL     1      29.324   0.901  53.780  1.00  0.00     0.001 A 
HETATM   21  C5  UNL     1      28.620   2.098  53.651  1.00  0.00     0.001 A 
HETATM   22  C6  UNL     1      27.320   2.125  53.231  1.00  0.00     0.019 A 
ENDBRANCH  15  16
ENDBRANCH  14  15
BRANCH  14  23
HETATM   23  C9  UNL     1      22.428   1.314  52.993  1.00  0.00     0.290 C 
BRANCH  23  24
HETATM   24  N1  UNL     1      22.296   0.065  52.305  1.00  0.00     0.081 N 
HETATM   25  C10 UNL     1      21.660  -0.858  53.278  1.00  0.00     0.309 C 
HETATM   26  C11 UNL     1      21.245   0.204  51.267  1.00  0.00     0.309 C 
ENDBRANCH  23  24
ENDBRANCH  14  23
ENDBRANCH   1  14
TORSDOF 5
ENDMDL
MODEL 9
REMARK VINA RESULT:      -7.0      3.017      5.036
REMARK  5 active torsions:
REMARK  status: ('A' for Active; 'I' for Inactive)
REMARK    1  A    between atoms: C7_7  and  S1_8 
REMARK    2  A    between atoms: S1_8  and  C8_9 
REMARK    3  A    between atoms: C8_9  and  C9_10 
REMARK    4  A    between atoms: C8_9  and  C12_14 
REMARK    5  A    between atoms: C9_10  and  N1_11 
ROOT
HETATM    1  C12 UNL     1      24.745   4.672  50.427  1.00  0.00     0.152 A 
HETATM    2  O1  UNL     1      25.956   4.649  50.079  1.00  0.00    -0.348 OA
HETATM    3  C13 UNL     1      25.089   5.982  50.257  1.00  0.00     0.143 A 
HETATM    4  C14 UNL     1      23.768   6.242  50.019  1.00  0.00    -0.007 C 
HETATM    5  C15 UNL     1      23.494   6.701  48.777  1.00  0.00     0.011 C 
HETATM    6  C16 UNL     1      24.529   7.362  47.980  1.00  0.00    -0.003 C 
HETATM    7  C17 UNL     1      25.470   7.800  47.178  1.00  0.00    -0.025 C 
HETATM    8  C18 UNL     1      26.504   8.587  46.449  1.00  0.00     0.053 C 
HETATM    9  C19 UNL     1      26.589   9.988  47.222  1.00  0.00     0.171 C 
HETATM   10  O2  UNL     1      26.590   9.681  48.432  1.00  0.00    -0.387 OA
HETATM   11  C20 UNL     1      26.599   9.369  49.653  1.00  0.00     0.194 C 
HETATM   12  C21 UNL     1      26.767   7.792  49.545  1.00  0.00    -0.002 C 
HETATM   13  C22 UNL     1      25.707   7.186  50.011  1.00  0.00     0.017 C 
ENDROOT
BRANCH   1  14
HETATM   14  C8  UNL     1      23.707   3.739  50.782  1.00  0.00     0.122 C 
BRANCH  14  15
HETATM   15  S1  UNL     1      23.859   3.014  52.415  1.00  0.00    -0.119 SA
BRANCH  15  16
HETATM   16  C7  UNL     1      24.944   1.636  52.528  1.00  0.00     0.007 A 
HETATM   17  C2  UNL     1      24.314   0.494  53.010  1.00  0.00    -0.045 A 
HETATM   18  C1  UNL     1      22.882   0.420  53.388  1.00  0.00     0.049 C 
HETATM   19  C3  UNL     1      24.994  -0.697  53.163  1.00  0.00     0.008 A 
HETATM   20  C4  UNL     1      26.351  -0.766  52.826  1.00  0.00     0.001 A 
HETATM   21  C5  UNL     1      26.964   0.389  52.341  1.00  0.00     0.001 A 
HETATM   22  C6  UNL     1      26.275   1.560  52.198  1.00  0.00     0.019 A 
ENDBRANCH  15  16
ENDBRANCH  14  15
BRANCH  14  23
HETATM   23  C9  UNL     1      23.460   2.698  49.743  1.00  0.00     0.290 C 
BRANCH  23  24
HETATM   24  N1  UNL     1      22.477   3.026  48.755  1.00  0.00     0.081 N 
HETATM   25  C10 UNL     1      22.031   1.727  48.193  1.00  0.00     0.309 C 
HETATM   26  C11 UNL     1      21.255   3.510  49.442  1.00  0.00     0.309 C 
ENDBRANCH  23  24
ENDBRANCH  14  23
ENDBRANCH   1  14
TORSDOF 5
ENDMDL
