MODEL 1
REMARK VINA RESULT:      -7.7      0.000      0.000
REMARK  2 active torsions:
REMARK  status: ('A' for Active; 'I' for Inactive)
REMARK    1  A    between atoms: O1_2  and  C2_3 
REMARK    2  A    between atoms: C7_8  and  O2_9 
ROOT
HETATM    1  C2  UNL     1      25.668  -0.296  54.008  1.00  0.00     0.102 A 
HETATM    2  C3  UNL     1      24.551   0.222  53.345  1.00  0.00     0.047 A 
HETATM    3  C4  UNL     1      24.689   1.209  52.391  1.00  0.00    -0.045 A 
HETATM    4  C5  UNL     1      25.948   1.686  52.094  1.00  0.00    -0.045 A 
HETATM    5  C6  UNL     1      27.048   1.173  52.751  1.00  0.00     0.047 A 
HETATM    6  C7  UNL     1      26.940   0.191  53.703  1.00  0.00     0.102 A 
HETATM    7  C9  UNL     1      25.876   2.739  51.046  1.00  0.00     0.077 C 
HETATM    8  C10 UNL     1      24.470   3.215  51.166  1.00  0.00    -0.028 C 
HETATM    9  C11 UNL     1      23.960   4.432  51.012  1.00  0.00     0.100 C 
HETATM   10  N1  UNL     1      22.581   4.694  51.169  1.00  0.00    -0.373 N 
HETATM   11  C12 UNL     1      21.817   5.904  51.224  1.00  0.00     0.151 C 
HETATM   12  C13 UNL     1      22.439   7.055  50.549  1.00  0.00     0.032 C 
HETATM   13  C14 UNL     1      23.686   7.497  50.396  1.00  0.00     0.109 C 
HETATM   14  F1  UNL     1      23.865   8.644  49.678  1.00  0.00    -0.209 F 
HETATM   15  C15 UNL     1      24.899   6.841  50.947  1.00  0.00     0.191 C 
HETATM   16  N2  UNL     1      24.940   5.423  50.678  1.00  0.00    -0.370 N 
HETATM   17  C16 UNL     1      23.738   1.968  51.512  1.00  0.00     0.077 C 
HETATM   18  H11 UNL     1      22.023   3.817  51.262  1.00  0.00     0.161 HD
HETATM   19  H17 UNL     1      25.793   5.054  50.171  1.00  0.00     0.161 HD
ENDROOT
BRANCH   6  20
HETATM   20  O2  UNL     1      27.978  -0.390  54.417  1.00  0.00    -0.353 OA
HETATM   21  C8  UNL     1      29.300  -0.444  53.914  1.00  0.00     0.210 C 
ENDBRANCH   6  20
BRANCH   1  22
HETATM   22  O1  UNL     1      25.476  -1.277  54.947  1.00  0.00    -0.353 OA
HETATM   23  C1  UNL     1      24.234  -1.315  55.627  1.00  0.00     0.210 C 
ENDBRANCH   1  22
TORSDOF 2
ENDMDL
MODEL 2
REMARK VINA RESULT:      -7.7      4.550      7.377
REMARK  2 active torsions:
REMARK  status: ('A' for Active; 'I' for Inactive)
REMARK    1  A    between atoms: O1_2  and  C2_3 
REMARK    2  A    between atoms: C7_8  and  O2_9 
ROOT
HETATM    1  C2  UNL     1      22.188   2.672  51.289  1.00  0.00     0.102 A 
HETATM    2  C3  UNL     1      22.546   1.391  51.717  1.00  0.00     0.047 A 
HETATM    3  C4  UNL     1      23.626   1.201  52.555  1.00  0.00    -0.045 A 
HETATM    4  C5  UNL     1      24.355   2.294  52.970  1.00  0.00    -0.045 A 
HETATM    5  C6  UNL     1      23.998   3.558  52.545  1.00  0.00     0.047 A 
HETATM    6  C7  UNL     1      22.930   3.776  51.713  1.00  0.00     0.102 A 
HETATM    7  C9  UNL     1      25.468   1.873  53.862  1.00  0.00     0.077 C 
HETATM    8  C10 UNL     1      25.659   0.446  53.485  1.00  0.00    -0.028 C 
HETATM    9  C11 UNL     1      26.768  -0.283  53.416  1.00  0.00     0.100 C 
HETATM   10  N1  UNL     1      26.752  -1.642  53.033  1.00  0.00    -0.373 N 
HETATM   11  C12 UNL     1      27.787  -2.582  52.724  1.00  0.00     0.151 C 
HETATM   12  C13 UNL     1      29.091  -2.285  53.337  1.00  0.00     0.032 C 
HETATM   13  C14 UNL     1      29.771  -1.173  53.613  1.00  0.00     0.109 C 
HETATM   14  F1  UNL     1      30.993  -1.312  54.206  1.00  0.00    -0.209 F 
HETATM   15  C15 UNL     1      29.306   0.208  53.326  1.00  0.00     0.191 C 
HETATM   16  N2  UNL     1      27.952   0.445  53.766  1.00  0.00    -0.370 N 
HETATM   17  C16 UNL     1      24.271   0.003  53.190  1.00  0.00     0.077 C 
HETATM   18  H11 UNL     1      25.781  -2.020  52.967  1.00  0.00     0.161 HD
HETATM   19  H17 UNL     1      27.798   1.255  54.432  1.00  0.00     0.161 HD
ENDROOT
BRANCH   6  20
HETATM   20  O2  UNL     1      22.490   5.000  51.230  1.00  0.00    -0.353 OA
HETATM   21  C8  UNL     1      23.339   6.130  51.162  1.00  0.00     0.210 C 
ENDBRANCH   6  20
BRANCH   1  22
HETATM   22  O1  UNL     1      21.105   2.806  50.457  1.00  0.00    -0.353 OA
HETATM   23  C1  UNL     1      21.005   1.933  49.346  1.00  0.00     0.210 C 
ENDBRANCH   1  22
TORSDOF 2
ENDMDL
MODEL 3
REMARK VINA RESULT:      -7.5      5.197      6.751
REMARK  2 active torsions:
REMARK  status: ('A' for Active; 'I' for Inactive)
REMARK    1  A    between atoms: O1_2  and  C2_3 
REMARK    2  A    between atoms: C7_8  and  O2_9 
ROOT
HETATM    1  C2  UNL     1      25.388   0.550  52.565  1.00  0.00     0.102 A 
HETATM    2  C3  UNL     1      24.189   1.145  52.161  1.00  0.00     0.047 A 
HETATM    3  C4  UNL     1      23.006   0.868  52.813  1.00  0.00    -0.045 A 
HETATM    4  C5  UNL     1      23.014  -0.007  53.878  1.00  0.00    -0.045 A 
HETATM    5  C6  UNL     1      24.199  -0.593  54.274  1.00  0.00     0.047 A 
HETATM    6  C7  UNL     1      25.390  -0.336  53.644  1.00  0.00     0.102 A 
HETATM    7  C9  UNL     1      21.645  -0.166  54.436  1.00  0.00     0.077 C 
HETATM    8  C10 UNL     1      20.783   0.237  53.291  1.00  0.00    -0.028 C 
HETATM    9  C11 UNL     1      19.597  -0.224  52.905  1.00  0.00     0.100 C 
HETATM   10  N1  UNL     1      18.923   0.289  51.776  1.00  0.00    -0.373 N 
HETATM   11  C12 UNL     1      17.752  -0.127  51.064  1.00  0.00     0.151 C 
HETATM   12  C13 UNL     1      16.799  -0.919  51.859  1.00  0.00     0.032 C 
HETATM   13  C14 UNL     1      16.906  -1.836  52.819  1.00  0.00     0.109 C 
HETATM   14  F1  UNL     1      15.750  -2.358  53.324  1.00  0.00    -0.209 F 
HETATM   15  C15 UNL     1      18.185  -2.337  53.385  1.00  0.00     0.191 C 
HETATM   16  N2  UNL     1      19.094  -1.274  53.741  1.00  0.00    -0.370 N 
HETATM   17  C16 UNL     1      21.582   1.315  52.651  1.00  0.00     0.077 C 
HETATM   18  H11 UNL     1      19.386   1.145  51.397  1.00  0.00     0.161 HD
HETATM   19  H17 UNL     1      19.440  -1.252  54.742  1.00  0.00     0.161 HD
ENDROOT
BRANCH   6  20
HETATM   20  O2  UNL     1      26.630  -0.870  53.963  1.00  0.00    -0.353 OA
HETATM   21  C8  UNL     1      27.596  -0.142  54.698  1.00  0.00     0.210 C 
ENDBRANCH   6  20
BRANCH   1  22
HETATM   22  O1  UNL     1      26.537   0.860  51.883  1.00  0.00    -0.353 OA
HETATM   23  C1  UNL     1      26.804   2.224  51.611  1.00  0.00     0.210 C 
ENDBRANCH   1  22
TORSDOF 2
ENDMDL
MODEL 4
REMARK VINA RESULT:      -7.2      4.866      6.492
REMARK  2 active torsions:
REMARK  status: ('A' for Active; 'I' for Inactive)
REMARK    1  A    between atoms: O1_2  and  C2_3 
REMARK    2  A    between atoms: C7_8  and  O2_9 
ROOT
HETATM    1  C2  UNL     1      24.360   4.176  50.417  1.00  0.00     0.102 A 
HETATM    2  C3  UNL     1      24.658   5.356  49.729  1.00  0.00     0.047 A 
HETATM    3  C4  UNL     1      25.879   5.526  49.111  1.00  0.00    -0.045 A 
HETATM    4  C5  UNL     1      26.813   4.514  49.177  1.00  0.00    -0.045 A 
HETATM    5  C6  UNL     1      26.515   3.351  49.857  1.00  0.00     0.047 A 
HETATM    6  C7  UNL     1      25.309   3.154  50.480  1.00  0.00     0.102 A 
HETATM    7  C9  UNL     1      28.053   4.897  48.451  1.00  0.00     0.077 C 
HETATM    8  C10 UNL     1      27.974   6.384  48.444  1.00  0.00    -0.028 C 
HETATM    9  C11 UNL     1      28.938   7.295  48.531  1.00  0.00     0.100 C 
HETATM   10  N1  UNL     1      28.667   8.680  48.506  1.00  0.00    -0.373 N 
HETATM   11  C12 UNL     1      29.475   9.838  48.745  1.00  0.00     0.151 C 
HETATM   12  C13 UNL     1      30.915   9.639  48.520  1.00  0.00     0.032 C 
HETATM   13  C14 UNL     1      31.770   8.635  48.712  1.00  0.00     0.109 C 
HETATM   14  F1  UNL     1      33.074   8.842  48.367  1.00  0.00    -0.209 F 
HETATM   15  C15 UNL     1      31.416   7.306  49.273  1.00  0.00     0.191 C 
HETATM   16  N2  UNL     1      30.249   6.728  48.649  1.00  0.00    -0.370 N 
HETATM   17  C16 UNL     1      26.513   6.628  48.312  1.00  0.00     0.077 C 
HETATM   18  H11 UNL     1      27.672   8.882  48.264  1.00  0.00     0.161 HD
HETATM   19  H17 UNL     1      30.360   5.766  48.220  1.00  0.00     0.161 HD
ENDROOT
BRANCH   6  20
HETATM   20  O2  UNL     1      24.913   2.028  51.186  1.00  0.00    -0.353 OA
HETATM   21  C8  UNL     1      25.677   1.503  52.255  1.00  0.00     0.210 C 
ENDBRANCH   6  20
BRANCH   1  22
HETATM   22  O1  UNL     1      23.130   4.058  51.013  1.00  0.00    -0.353 OA
HETATM   23  C1  UNL     1      22.913   4.737  52.236  1.00  0.00     0.210 C 
ENDBRANCH   1  22
TORSDOF 2
ENDMDL
MODEL 5
REMARK VINA RESULT:      -7.2      4.935      7.764
REMARK  2 active torsions:
REMARK  status: ('A' for Active; 'I' for Inactive)
REMARK    1  A    between atoms: O1_2  and  C2_3 
REMARK    2  A    between atoms: C7_8  and  O2_9 
ROOT
HETATM    1  C2  UNL     1      28.683   7.119  48.188  1.00  0.00     0.102 A 
HETATM    2  C3  UNL     1      28.656   5.729  48.339  1.00  0.00     0.047 A 
HETATM    3  C4  UNL     1      27.491   5.078  48.689  1.00  0.00    -0.045 A 
HETATM    4  C5  UNL     1      26.344   5.815  48.891  1.00  0.00    -0.045 A 
HETATM    5  C6  UNL     1      26.374   7.187  48.741  1.00  0.00     0.047 A 
HETATM    6  C7  UNL     1      27.518   7.860  48.393  1.00  0.00     0.102 A 
HETATM    7  C9  UNL     1      25.208   4.927  49.258  1.00  0.00     0.077 C 
HETATM    8  C10 UNL     1      25.903   3.721  49.788  1.00  0.00    -0.028 C 
HETATM    9  C11 UNL     1      25.562   2.898  50.774  1.00  0.00     0.100 C 
HETATM   10  N1  UNL     1      26.360   1.791  51.138  1.00  0.00    -0.373 N 
HETATM   11  C12 UNL     1      26.313   0.873  52.236  1.00  0.00     0.151 C 
HETATM   12  C13 UNL     1      24.985   0.715  52.849  1.00  0.00     0.032 C 
HETATM   13  C14 UNL     1      23.958   1.526  53.096  1.00  0.00     0.109 C 
HETATM   14  F1  UNL     1      22.860   0.988  53.703  1.00  0.00    -0.209 F 
HETATM   15  C15 UNL     1      23.912   2.973  52.765  1.00  0.00     0.191 C 
HETATM   16  N2  UNL     1      24.327   3.250  51.410  1.00  0.00    -0.370 N 
HETATM   17  C16 UNL     1      27.114   3.645  48.929  1.00  0.00     0.077 C 
HETATM   18  H11 UNL     1      27.135   1.625  50.459  1.00  0.00     0.161 HD
HETATM   19  H17 UNL     1      23.644   3.778  50.796  1.00  0.00     0.161 HD
ENDROOT
BRANCH   6  20
HETATM   20  O2  UNL     1      27.654   9.229  48.218  1.00  0.00    -0.353 OA
HETATM   21  C8  UNL     1      27.825  10.114  49.309  1.00  0.00     0.210 C 
ENDBRANCH   6  20
BRANCH   1  22
HETATM   22  O1  UNL     1      29.867   7.717  47.838  1.00  0.00    -0.353 OA
HETATM   23  C1  UNL     1      31.009   7.450  48.631  1.00  0.00     0.210 C 
ENDBRANCH   1  22
TORSDOF 2
ENDMDL
MODEL 6
REMARK VINA RESULT:      -7.2      5.377      7.495
REMARK  2 active torsions:
REMARK  status: ('A' for Active; 'I' for Inactive)
REMARK    1  A    between atoms: O1_2  and  C2_3 
REMARK    2  A    between atoms: C7_8  and  O2_9 
ROOT
HETATM    1  C2  UNL     1      17.944  -1.378  52.846  1.00  0.00     0.102 A 
HETATM    2  C3  UNL     1      19.061  -1.469  53.682  1.00  0.00     0.047 A 
HETATM    3  C4  UNL     1      20.059  -0.518  53.636  1.00  0.00    -0.045 A 
HETATM    4  C5  UNL     1      19.946   0.533  52.752  1.00  0.00    -0.045 A 
HETATM    5  C6  UNL     1      18.842   0.620  51.928  1.00  0.00     0.047 A 
HETATM    6  C7  UNL     1      17.835  -0.311  51.952  1.00  0.00     0.102 A 
HETATM    7  C9  UNL     1      21.119   1.440  52.862  1.00  0.00     0.077 C 
HETATM    8  C10 UNL     1      22.155   0.552  53.460  1.00  0.00    -0.028 C 
HETATM    9  C11 UNL     1      23.468   0.509  53.259  1.00  0.00     0.100 C 
HETATM   10  N1  UNL     1      24.300  -0.416  53.926  1.00  0.00    -0.373 N 
HETATM   11  C12 UNL     1      25.677  -0.779  53.774  1.00  0.00     0.151 C 
HETATM   12  C13 UNL     1      26.524   0.264  53.174  1.00  0.00     0.032 C 
HETATM   13  C14 UNL     1      26.354   1.191  52.233  1.00  0.00     0.109 C 
HETATM   14  F1  UNL     1      27.415   2.001  51.945  1.00  0.00    -0.209 F 
HETATM   15  C15 UNL     1      25.100   1.413  51.468  1.00  0.00     0.191 C 
HETATM   16  N2  UNL     1      23.933   1.482  52.315  1.00  0.00    -0.370 N 
HETATM   17  C16 UNL     1      21.353  -0.311  54.367  1.00  0.00     0.077 C 
HETATM   18  H11 UNL     1      23.791  -0.932  54.678  1.00  0.00     0.161 HD
HETATM   19  H17 UNL     1      23.336   2.353  52.241  1.00  0.00     0.161 HD
ENDROOT
BRANCH   6  20
HETATM   20  O2  UNL     1      16.690  -0.316  51.169  1.00  0.00    -0.353 OA
HETATM   21  C8  UNL     1      16.745  -0.278  49.755  1.00  0.00     0.210 C 
ENDBRANCH   6  20
BRANCH   1  22
HETATM   22  O1  UNL     1      16.980  -2.351  52.931  1.00  0.00    -0.353 OA
HETATM   23  C1  UNL     1      17.299  -3.547  53.619  1.00  0.00     0.210 C 
ENDBRANCH   1  22
TORSDOF 2
ENDMDL
MODEL 7
REMARK VINA RESULT:      -7.2      5.412      7.715
REMARK  2 active torsions:
REMARK  status: ('A' for Active; 'I' for Inactive)
REMARK    1  A    between atoms: O1_2  and  C2_3 
REMARK    2  A    between atoms: C7_8  and  O2_9 
ROOT
HETATM    1  C2  UNL     1      30.554   6.903  47.961  1.00  0.00     0.102 A 
HETATM    2  C3  UNL     1      29.912   5.696  48.251  1.00  0.00     0.047 A 
HETATM    3  C4  UNL     1      28.539   5.636  48.371  1.00  0.00    -0.045 A 
HETATM    4  C5  UNL     1      27.798   6.785  48.200  1.00  0.00    -0.045 A 
HETATM    5  C6  UNL     1      28.436   7.976  47.914  1.00  0.00     0.047 A 
HETATM    6  C7  UNL     1      29.799   8.064  47.790  1.00  0.00     0.102 A 
HETATM    7  C9  UNL     1      26.347   6.505  48.369  1.00  0.00     0.077 C 
HETATM    8  C10 UNL     1      26.355   5.257  49.183  1.00  0.00    -0.028 C 
HETATM    9  C11 UNL     1      25.525   4.850  50.137  1.00  0.00     0.100 C 
HETATM   10  N1  UNL     1      25.696   3.618  50.806  1.00  0.00    -0.373 N 
HETATM   11  C12 UNL     1      25.066   3.033  51.951  1.00  0.00     0.151 C 
HETATM   12  C13 UNL     1      23.710   3.532  52.229  1.00  0.00     0.032 C 
HETATM   13  C14 UNL     1      23.100   4.712  52.124  1.00  0.00     0.109 C 
HETATM   14  F1  UNL     1      21.787   4.779  52.494  1.00  0.00    -0.209 F 
HETATM   15  C15 UNL     1      23.735   5.963  51.636  1.00  0.00     0.191 C 
HETATM   16  N2  UNL     1      24.464   5.776  50.404  1.00  0.00    -0.370 N 
HETATM   17  C16 UNL     1      27.552   4.543  48.664  1.00  0.00     0.077 C 
HETATM   18  H11 UNL     1      26.434   3.029  50.362  1.00  0.00     0.161 HD
HETATM   19  H17 UNL     1      24.194   6.393  49.587  1.00  0.00     0.161 HD
ENDROOT
BRANCH   6  20
HETATM   20  O2  UNL     1      30.534   9.206  47.505  1.00  0.00    -0.353 OA
HETATM   21  C8  UNL     1      30.797  10.194  48.484  1.00  0.00     0.210 C 
ENDBRANCH   6  20
BRANCH   1  22
HETATM   22  O1  UNL     1      31.922   6.908  47.853  1.00  0.00    -0.353 OA
HETATM   23  C1  UNL     1      32.682   6.501  48.976  1.00  0.00     0.210 C 
ENDBRANCH   1  22
TORSDOF 2
ENDMDL
MODEL 8
REMARK VINA RESULT:      -7.1      4.423      7.139
REMARK  2 active torsions:
REMARK  status: ('A' for Active; 'I' for Inactive)
REMARK    1  A    between atoms: O1_2  and  C2_3 
REMARK    2  A    between atoms: C7_8  and  O2_9 
ROOT
HETATM    1  C2  UNL     1      21.215   3.539  50.374  1.00  0.00     0.102 A 
HETATM    2  C3  UNL     1      21.722   2.349  50.903  1.00  0.00     0.047 A 
HETATM    3  C4  UNL     1      22.693   2.367  51.883  1.00  0.00    -0.045 A 
HETATM    4  C5  UNL     1      23.164   3.578  52.341  1.00  0.00    -0.045 A 
HETATM    5  C6  UNL     1      22.661   4.752  51.816  1.00  0.00     0.047 A 
HETATM    6  C7  UNL     1      21.695   4.764  50.842  1.00  0.00     0.102 A 
HETATM    7  C9  UNL     1      24.199   3.376  53.389  1.00  0.00     0.077 C 
HETATM    8  C10 UNL     1      24.678   1.995  53.105  1.00  0.00    -0.028 C 
HETATM    9  C11 UNL     1      25.893   1.468  53.215  1.00  0.00     0.100 C 
HETATM   10  N1  UNL     1      26.159   0.119  52.894  1.00  0.00    -0.373 N 
HETATM   11  C12 UNL     1      27.369  -0.634  52.765  1.00  0.00     0.151 C 
HETATM   12  C13 UNL     1      28.508  -0.102  53.531  1.00  0.00     0.032 C 
HETATM   13  C14 UNL     1      28.947   1.116  53.844  1.00  0.00     0.109 C 
HETATM   14  F1  UNL     1      30.082   1.203  54.598  1.00  0.00    -0.209 F 
HETATM   15  C15 UNL     1      28.300   2.389  53.436  1.00  0.00     0.191 C 
HETATM   16  N2  UNL     1      26.878   2.398  53.684  1.00  0.00    -0.370 N 
HETATM   17  C16 UNL     1      23.438   1.313  52.650  1.00  0.00     0.077 C 
HETATM   18  H11 UNL     1      25.284  -0.423  52.718  1.00  0.00     0.161 HD
HETATM   19  H17 UNL     1      26.499   3.183  54.287  1.00  0.00     0.161 HD
ENDROOT
BRANCH   6  20
HETATM   20  O2  UNL     1      21.126   5.883  50.252  1.00  0.00    -0.353 OA
HETATM   21  C8  UNL     1      21.507   7.198  50.609  1.00  0.00     0.210 C 
ENDBRANCH   6  20
BRANCH   1  22
HETATM   22  O1  UNL     1      20.250   3.466  49.402  1.00  0.00    -0.353 OA
HETATM   23  C1  UNL     1      20.449   2.561  48.331  1.00  0.00     0.210 C 
ENDBRANCH   1  22
TORSDOF 2
ENDMDL
MODEL 9
REMARK VINA RESULT:      -6.9      2.160      2.834
REMARK  2 active torsions:
REMARK  status: ('A' for Active; 'I' for Inactive)
REMARK    1  A    between atoms: O1_2  and  C2_3 
REMARK    2  A    between atoms: C7_8  and  O2_9 
ROOT
HETATM    1  C2  UNL     1      24.693   1.147  52.133  1.00  0.00     0.102 A 
HETATM    2  C3  UNL     1      24.047   1.992  51.226  1.00  0.00     0.047 A 
HETATM    3  C4  UNL     1      24.759   2.914  50.487  1.00  0.00    -0.045 A 
HETATM    4  C5  UNL     1      26.125   2.997  50.651  1.00  0.00    -0.045 A 
HETATM    5  C6  UNL     1      26.760   2.161  51.548  1.00  0.00     0.047 A 
HETATM    6  C7  UNL     1      26.077   1.235  52.295  1.00  0.00     0.102 A 
HETATM    7  C9  UNL     1      26.697   4.047  49.767  1.00  0.00     0.077 C 
HETATM    8  C10 UNL     1      25.520   4.921  49.505  1.00  0.00    -0.028 C 
HETATM    9  C11 UNL     1      25.447   6.239  49.349  1.00  0.00     0.100 C 
HETATM   10  N1  UNL     1      24.224   6.899  49.104  1.00  0.00    -0.373 N 
HETATM   11  C12 UNL     1      23.850   8.281  49.066  1.00  0.00     0.151 C 
HETATM   12  C13 UNL     1      24.952   9.207  48.759  1.00  0.00     0.032 C 
HETATM   13  C14 UNL     1      26.250   9.258  49.052  1.00  0.00     0.109 C 
HETATM   14  F1  UNL     1      26.966  10.314  48.568  1.00  0.00    -0.209 F 
HETATM   15  C15 UNL     1      26.983   8.254  49.867  1.00  0.00     0.191 C 
HETATM   16  N2  UNL     1      26.716   6.897  49.455  1.00  0.00    -0.370 N 
HETATM   17  C16 UNL     1      24.400   3.944  49.456  1.00  0.00     0.077 C 
HETATM   18  H11 UNL     1      23.446   6.229  48.915  1.00  0.00     0.161 HD
HETATM   19  H17 UNL     1      27.551   6.300  49.194  1.00  0.00     0.161 HD
ENDROOT
BRANCH   6  20
HETATM   20  O2  UNL     1      26.618   0.353  53.219  1.00  0.00    -0.353 OA
HETATM   21  C8  UNL     1      27.531  -0.662  52.845  1.00  0.00     0.210 C 
ENDBRANCH   6  20
BRANCH   1  22
HETATM   22  O1  UNL     1      23.939   0.247  52.842  1.00  0.00    -0.353 OA
HETATM   23  C1  UNL     1      22.578   0.559  53.080  1.00  0.00     0.210 C 
ENDBRANCH   1  22
TORSDOF 2
ENDMDL
