MODEL 1
REMARK VINA RESULT:      -8.5      0.000      0.000
REMARK  8 active torsions:
REMARK  status: ('A' for Active; 'I' for Inactive)
REMARK    1  A    between atoms: O1_2  and  C2_3 
REMARK    2  A    between atoms: C5_6  and  N1_7 
REMARK    3  A    between atoms: C7_9  and  O2_10 
REMARK    4  A    between atoms: C8_11  and  N2_12 
REMARK    5  A    between atoms: N2_12  and  C9_13 
REMARK    6  A    between atoms: C15_20  and  N4_21 
REMARK    7  A    between atoms: N4_21  and  C16_22 
REMARK    8  A    between atoms: N4_21  and  C17_24 
ROOT
HETATM    1  N1  UNL     1      22.564   0.151  52.524  1.00  0.00    -0.339 N 
HETATM    2  C6  UNL     1      22.490  -1.200  53.115  1.00  0.00     0.166 C 
HETATM    3  C7  UNL     1      21.394  -1.115  54.176  1.00  0.00     0.205 C 
HETATM    4  C8  UNL     1      20.176  -0.599  53.504  1.00  0.00     0.134 C 
HETATM    5  N3  UNL     1      20.194   0.034  52.379  1.00  0.00    -0.229 NA
HETATM    6  C15 UNL     1      21.413   0.309  51.649  1.00  0.00     0.321 C 
ENDROOT
BRANCH   1   7
HETATM    7  C5  UNL     1      23.720   0.897  52.942  1.00  0.00     0.033 A 
HETATM    8  C4  UNL     1      24.760   0.033  53.309  1.00  0.00     0.032 A 
HETATM    9  C3  UNL     1      25.996   0.512  53.763  1.00  0.00     0.039 A 
HETATM   10  C2  UNL     1      26.104   1.885  53.820  1.00  0.00     0.068 A 
HETATM   11  C23 UNL     1      25.124   2.782  53.477  1.00  0.00     0.039 A 
HETATM   12  C22 UNL     1      23.936   2.250  53.039  1.00  0.00     0.032 A 
BRANCH  10  13
HETATM   13  O1  UNL     1      27.304   2.422  54.262  1.00  0.00    -0.356 OA
HETATM   14  C1  UNL     1      28.529   2.330  53.561  1.00  0.00     0.210 C 
ENDBRANCH  10  13
ENDBRANCH   1   7
BRANCH   6  15
HETATM   15  N4  UNL     1      21.392   1.489  50.860  1.00  0.00    -0.315 N 
BRANCH  15  16
HETATM   16  C16 UNL     1      20.623   2.654  51.038  1.00  0.00     0.354 C 
HETATM   17  O3  UNL     1      19.991   3.626  51.498  1.00  0.00    -0.283 OA
ENDBRANCH  15  16
BRANCH  15  18
HETATM   18  C17 UNL     1      22.235   1.637  49.683  1.00  0.00     0.090 C 
HETATM   19  C18 UNL     1      22.932   2.970  49.626  1.00  0.00     0.025 C 
HETATM   20  C19 UNL     1      23.024   3.326  48.159  1.00  0.00     0.002 C 
HETATM   21  C20 UNL     1      22.401   2.179  47.388  1.00  0.00     0.002 C 
HETATM   22  C21 UNL     1      21.429   1.615  48.405  1.00  0.00     0.025 C 
ENDBRANCH  15  18
ENDBRANCH   6  15
BRANCH   3  23
HETATM   23  O2  UNL     1      21.209  -2.321  54.808  1.00  0.00    -0.386 OA
HETATM   24  H9  UNL     1      22.036  -2.809  54.958  1.00  0.00     0.210 HD
ENDBRANCH   3  23
BRANCH   4  25
HETATM   25  N2  UNL     1      18.892  -0.776  54.082  1.00  0.00    -0.342 N 
HETATM   26  H10 UNL     1      18.700  -0.274  55.001  1.00  0.00     0.167 HD
BRANCH  25  27
HETATM   27  C9  UNL     1      17.854  -1.571  53.537  1.00  0.00     0.033 A 
HETATM   28  C10 UNL     1      16.835  -1.147  52.738  1.00  0.00     0.029 A 
HETATM   29  C11 UNL     1      15.839  -1.942  52.228  1.00  0.00     0.002 A 
HETATM   30  C12 UNL     1      15.830  -3.286  52.526  1.00  0.00     0.000 A 
HETATM   31  C13 UNL     1      16.836  -3.773  53.332  1.00  0.00     0.002 A 
HETATM   32  C14 UNL     1      17.812  -2.930  53.816  1.00  0.00     0.029 A 
ENDBRANCH  25  27
ENDBRANCH   4  25
TORSDOF 8
ENDMDL
MODEL 2
REMARK VINA RESULT:      -8.1      1.815      6.975
REMARK  8 active torsions:
REMARK  status: ('A' for Active; 'I' for Inactive)
REMARK    1  A    between atoms: O1_2  and  C2_3 
REMARK    2  A    between atoms: C5_6  and  N1_7 
REMARK    3  A    between atoms: C7_9  and  O2_10 
REMARK    4  A    between atoms: C8_11  and  N2_12 
REMARK    5  A    between atoms: N2_12  and  C9_13 
REMARK    6  A    between atoms: C15_20  and  N4_21 
REMARK    7  A    between atoms: N4_21  and  C16_22 
REMARK    8  A    between atoms: N4_21  and  C17_24 
ROOT
HETATM    1  N1  UNL     1      20.826   0.286  53.501  1.00  0.00    -0.339 N 
HETATM    2  C6  UNL     1      21.250  -0.226  54.819  1.00  0.00     0.166 C 
HETATM    3  C7  UNL     1      22.358  -1.235  54.521  1.00  0.00     0.205 C 
HETATM    4  C8  UNL     1      23.378  -0.533  53.703  1.00  0.00     0.134 C 
HETATM    5  N3  UNL     1      23.144   0.553  53.047  1.00  0.00    -0.229 NA
HETATM    6  C15 UNL     1      21.854   1.206  53.038  1.00  0.00     0.321 C 
ENDROOT
BRANCH   1   7
HETATM    7  C5  UNL     1      19.555  -0.228  53.069  1.00  0.00     0.033 A 
HETATM    8  C4  UNL     1      19.200  -1.361  53.813  1.00  0.00     0.032 A 
HETATM    9  C3  UNL     1      18.007  -2.057  53.581  1.00  0.00     0.039 A 
HETATM   10  C2  UNL     1      17.220  -1.544  52.572  1.00  0.00     0.068 A 
HETATM   11  C23 UNL     1      17.511  -0.442  51.808  1.00  0.00     0.039 A 
HETATM   12  C22 UNL     1      18.695   0.197  52.085  1.00  0.00     0.032 A 
BRANCH  10  13
HETATM   13  O1  UNL     1      16.025  -2.189  52.292  1.00  0.00    -0.356 OA
HETATM   14  C1  UNL     1      15.162  -1.849  51.224  1.00  0.00     0.210 C 
ENDBRANCH  10  13
ENDBRANCH   1   7
BRANCH   6  15
HETATM   15  N4  UNL     1      21.550   1.929  51.855  1.00  0.00    -0.315 N 
BRANCH  15  16
HETATM   16  C16 UNL     1      20.731   3.063  51.701  1.00  0.00     0.354 C 
HETATM   17  O3  UNL     1      19.796   3.888  51.713  1.00  0.00    -0.283 OA
ENDBRANCH  15  16
BRANCH  15  18
HETATM   18  C17 UNL     1      22.098   1.546  50.562  1.00  0.00     0.090 C 
HETATM   19  C18 UNL     1      22.971   2.613  49.957  1.00  0.00     0.025 C 
HETATM   20  C19 UNL     1      22.765   2.516  48.462  1.00  0.00     0.002 C 
HETATM   21  C20 UNL     1      21.796   1.375  48.224  1.00  0.00     0.002 C 
HETATM   22  C21 UNL     1      21.018   1.355  49.524  1.00  0.00     0.025 C 
ENDBRANCH  15  18
ENDBRANCH   6  15
BRANCH   3  23
HETATM   23  O2  UNL     1      22.858  -1.790  55.675  1.00  0.00    -0.386 OA
HETATM   24  H9  UNL     1      22.814  -2.761  55.687  1.00  0.00     0.210 HD
ENDBRANCH   3  23
BRANCH   4  25
HETATM   25  N2  UNL     1      24.700  -1.038  53.596  1.00  0.00    -0.342 N 
HETATM   26  H10 UNL     1      24.818  -2.096  53.601  1.00  0.00     0.167 HD
BRANCH  25  27
HETATM   27  C9  UNL     1      25.870  -0.246  53.487  1.00  0.00     0.033 A 
HETATM   28  C10 UNL     1      26.354   0.346  52.359  1.00  0.00     0.029 A 
HETATM   29  C11 UNL     1      27.495   1.104  52.284  1.00  0.00     0.002 A 
HETATM   30  C12 UNL     1      28.244   1.309  53.421  1.00  0.00     0.000 A 
HETATM   31  C13 UNL     1      27.805   0.734  54.593  1.00  0.00     0.002 A 
HETATM   32  C14 UNL     1      26.650  -0.019  54.612  1.00  0.00     0.029 A 
ENDBRANCH  25  27
ENDBRANCH   4  25
TORSDOF 8
ENDMDL
MODEL 3
REMARK VINA RESULT:      -7.9      3.146      7.838
REMARK  8 active torsions:
REMARK  status: ('A' for Active; 'I' for Inactive)
REMARK    1  A    between atoms: O1_2  and  C2_3 
REMARK    2  A    between atoms: C5_6  and  N1_7 
REMARK    3  A    between atoms: C7_9  and  O2_10 
REMARK    4  A    between atoms: C8_11  and  N2_12 
REMARK    5  A    between atoms: N2_12  and  C9_13 
REMARK    6  A    between atoms: C15_20  and  N4_21 
REMARK    7  A    between atoms: N4_21  and  C16_22 
REMARK    8  A    between atoms: N4_21  and  C17_24 
ROOT
HETATM    1  N1  UNL     1      23.599   2.947  50.232  1.00  0.00    -0.339 N 
HETATM    2  C6  UNL     1      24.936   3.186  49.655  1.00  0.00     0.166 C 
HETATM    3  C7  UNL     1      25.823   3.570  50.838  1.00  0.00     0.205 C 
HETATM    4  C8  UNL     1      25.700   2.486  51.844  1.00  0.00     0.134 C 
HETATM    5  N3  UNL     1      24.725   1.641  51.869  1.00  0.00    -0.229 NA
HETATM    6  C15 UNL     1      23.640   1.661  50.912  1.00  0.00     0.321 C 
ENDROOT
BRANCH   1   7
HETATM    7  C5  UNL     1      22.658   3.998  49.955  1.00  0.00     0.033 A 
HETATM    8  C4  UNL     1      22.410   4.757  51.106  1.00  0.00     0.032 A 
HETATM    9  C3  UNL     1      21.520   5.839  51.104  1.00  0.00     0.039 A 
HETATM   10  C2  UNL     1      20.915   6.093  49.892  1.00  0.00     0.068 A 
HETATM   11  C23 UNL     1      21.114   5.388  48.732  1.00  0.00     0.039 A 
HETATM   12  C22 UNL     1      21.998   4.339  48.799  1.00  0.00     0.032 A 
BRANCH  10  13
HETATM   13  O1  UNL     1      20.022   7.152  49.823  1.00  0.00    -0.356 OA
HETATM   14  C1  UNL     1      20.392   8.516  49.892  1.00  0.00     0.210 C 
ENDBRANCH  10  13
ENDBRANCH   1   7
BRANCH   6  15
HETATM   15  N4  UNL     1      22.396   1.178  51.398  1.00  0.00    -0.315 N 
BRANCH  15  16
HETATM   16  C16 UNL     1      21.193   0.981  50.696  1.00  0.00     0.354 C 
HETATM   17  O3  UNL     1      20.284   0.948  49.843  1.00  0.00    -0.283 OA
ENDBRANCH  15  16
BRANCH  15  18
HETATM   18  C17 UNL     1      22.215   0.799  52.791  1.00  0.00     0.090 C 
HETATM   19  C18 UNL     1      22.359  -0.682  53.019  1.00  0.00     0.025 C 
HETATM   20  C19 UNL     1      21.395  -1.024  54.133  1.00  0.00     0.002 C 
HETATM   21  C20 UNL     1      20.727   0.271  54.551  1.00  0.00     0.002 C 
HETATM   22  C21 UNL     1      20.814   1.088  53.277  1.00  0.00     0.025 C 
ENDBRANCH  15  18
ENDBRANCH   6  15
BRANCH   3  23
HETATM   23  O2  UNL     1      27.116   3.814  50.441  1.00  0.00    -0.386 OA
HETATM   24  H9  UNL     1      27.413   4.720  50.629  1.00  0.00     0.210 HD
ENDBRANCH   3  23
BRANCH   4  25
HETATM   25  N2  UNL     1      26.676   2.320  52.861  1.00  0.00    -0.342 N 
HETATM   26  H10 UNL     1      26.807   3.127  53.544  1.00  0.00     0.167 HD
BRANCH  25  27
HETATM   27  C9  UNL     1      27.489   1.174  53.034  1.00  0.00     0.033 A 
HETATM   28  C10 UNL     1      27.129  -0.123  52.817  1.00  0.00     0.029 A 
HETATM   29  C11 UNL     1      27.940  -1.215  52.998  1.00  0.00     0.002 A 
HETATM   30  C12 UNL     1      29.232  -1.031  53.436  1.00  0.00     0.000 A 
HETATM   31  C13 UNL     1      29.653   0.259  53.673  1.00  0.00     0.002 A 
HETATM   32  C14 UNL     1      28.797   1.320  53.474  1.00  0.00     0.029 A 
ENDBRANCH  25  27
ENDBRANCH   4  25
TORSDOF 8
ENDMDL
MODEL 4
REMARK VINA RESULT:      -7.9      3.517      8.123
REMARK  8 active torsions:
REMARK  status: ('A' for Active; 'I' for Inactive)
REMARK    1  A    between atoms: O1_2  and  C2_3 
REMARK    2  A    between atoms: C5_6  and  N1_7 
REMARK    3  A    between atoms: C7_9  and  O2_10 
REMARK    4  A    between atoms: C8_11  and  N2_12 
REMARK    5  A    between atoms: N2_12  and  C9_13 
REMARK    6  A    between atoms: C15_20  and  N4_21 
REMARK    7  A    between atoms: N4_21  and  C16_22 
REMARK    8  A    between atoms: N4_21  and  C17_24 
ROOT
HETATM    1  N1  UNL     1      22.452   3.714  51.284  1.00  0.00    -0.339 N 
HETATM    2  C6  UNL     1      22.733   4.901  52.114  1.00  0.00     0.166 C 
HETATM    3  C7  UNL     1      24.015   5.501  51.538  1.00  0.00     0.205 C 
HETATM    4  C8  UNL     1      23.778   5.723  50.090  1.00  0.00     0.134 C 
HETATM    5  N3  UNL     1      22.847   5.133  49.418  1.00  0.00    -0.229 NA
HETATM    6  C15 UNL     1      21.930   4.185  50.010  1.00  0.00     0.321 C 
ENDROOT
BRANCH   1   7
HETATM    7  C5  UNL     1      22.738   2.470  51.946  1.00  0.00     0.033 A 
HETATM    8  C4  UNL     1      21.604   1.994  52.616  1.00  0.00     0.032 A 
HETATM    9  C3  UNL     1      21.622   0.799  53.349  1.00  0.00     0.039 A 
HETATM   10  C2  UNL     1      22.833   0.140  53.357  1.00  0.00     0.068 A 
HETATM   11  C23 UNL     1      23.977   0.553  52.723  1.00  0.00     0.039 A 
HETATM   12  C22 UNL     1      23.894   1.732  52.022  1.00  0.00     0.032 A 
BRANCH  10  13
HETATM   13  O1  UNL     1      22.916  -1.050  54.064  1.00  0.00    -0.356 OA
HETATM   14  C1  UNL     1      21.855  -1.615  54.809  1.00  0.00     0.210 C 
ENDBRANCH  10  13
ENDBRANCH   1   7
BRANCH   6  15
HETATM   15  N4  UNL     1      21.446   3.181  49.130  1.00  0.00    -0.315 N 
BRANCH  15  16
HETATM   16  C16 UNL     1      22.126   2.515  48.094  1.00  0.00     0.354 C 
HETATM   17  O3  UNL     1      22.765   1.704  47.395  1.00  0.00    -0.283 OA
ENDBRANCH  15  16
BRANCH  15  18
HETATM   18  C17 UNL     1      20.078   2.689  49.210  1.00  0.00     0.090 C 
HETATM   19  C18 UNL     1      19.269   3.378  50.276  1.00  0.00     0.025 C 
HETATM   20  C19 UNL     1      18.320   2.332  50.815  1.00  0.00     0.002 C 
HETATM   21  C20 UNL     1      18.576   1.059  50.032  1.00  0.00     0.002 C 
HETATM   22  C21 UNL     1      20.024   1.236  49.621  1.00  0.00     0.025 C 
ENDBRANCH  15  18
ENDBRANCH   6  15
BRANCH   3  23
HETATM   23  O2  UNL     1      24.393   6.633  52.218  1.00  0.00    -0.386 OA
HETATM   24  H9  UNL     1      23.789   7.383  52.087  1.00  0.00     0.210 HD
ENDBRANCH   3  23
BRANCH   4  25
HETATM   25  N2  UNL     1      24.589   6.620  49.347  1.00  0.00    -0.342 N 
HETATM   26  H10 UNL     1      24.153   7.550  49.066  1.00  0.00     0.167 HD
BRANCH  25  27
HETATM   27  C9  UNL     1      25.926   6.374  48.948  1.00  0.00     0.033 A 
HETATM   28  C10 UNL     1      26.567   5.171  48.939  1.00  0.00     0.029 A 
HETATM   29  C11 UNL     1      27.866   4.963  48.550  1.00  0.00     0.002 A 
HETATM   30  C12 UNL     1      28.623   6.034  48.128  1.00  0.00     0.000 A 
HETATM   31  C13 UNL     1      28.028   7.277  48.116  1.00  0.00     0.002 A 
HETATM   32  C14 UNL     1      26.719   7.428  48.517  1.00  0.00     0.029 A 
ENDBRANCH  25  27
ENDBRANCH   4  25
TORSDOF 8
ENDMDL
MODEL 5
REMARK VINA RESULT:      -7.6      3.211      6.946
REMARK  8 active torsions:
REMARK  status: ('A' for Active; 'I' for Inactive)
REMARK    1  A    between atoms: O1_2  and  C2_3 
REMARK    2  A    between atoms: C5_6  and  N1_7 
REMARK    3  A    between atoms: C7_9  and  O2_10 
REMARK    4  A    between atoms: C8_11  and  N2_12 
REMARK    5  A    between atoms: N2_12  and  C9_13 
REMARK    6  A    between atoms: C15_20  and  N4_21 
REMARK    7  A    between atoms: N4_21  and  C16_22 
REMARK    8  A    between atoms: N4_21  and  C17_24 
ROOT
HETATM    1  N1  UNL     1      23.637   2.614  52.619  1.00  0.00    -0.339 N 
HETATM    2  C6  UNL     1      23.879   3.903  53.296  1.00  0.00     0.166 C 
HETATM    3  C7  UNL     1      23.864   4.951  52.184  1.00  0.00     0.205 C 
HETATM    4  C8  UNL     1      22.580   4.795  51.456  1.00  0.00     0.134 C 
HETATM    5  N3  UNL     1      21.857   3.727  51.502  1.00  0.00    -0.229 NA
HETATM    6  C15 UNL     1      22.224   2.560  52.274  1.00  0.00     0.321 C 
ENDROOT
BRANCH   1   7
HETATM    7  C5  UNL     1      24.811   1.793  52.513  1.00  0.00     0.033 A 
HETATM    8  C4  UNL     1      24.997   1.042  53.681  1.00  0.00     0.032 A 
HETATM    9  C3  UNL     1      26.080   0.165  53.835  1.00  0.00     0.039 A 
HETATM   10  C2  UNL     1      26.936   0.103  52.757  1.00  0.00     0.068 A 
HETATM   11  C23 UNL     1      26.810   0.811  51.589  1.00  0.00     0.039 A 
HETATM   12  C22 UNL     1      25.728   1.653  51.499  1.00  0.00     0.032 A 
BRANCH  10  13
HETATM   13  O1  UNL     1      28.028  -0.748  52.847  1.00  0.00    -0.356 OA
HETATM   14  C1  UNL     1      29.097  -0.585  53.759  1.00  0.00     0.210 C 
ENDBRANCH  10  13
ENDBRANCH   1   7
BRANCH   6  15
HETATM   15  N4  UNL     1      21.760   1.322  51.756  1.00  0.00    -0.315 N 
BRANCH  15  16
HETATM   16  C16 UNL     1      21.688   0.900  50.416  1.00  0.00     0.354 C 
HETATM   17  O3  UNL     1      21.504   0.811  49.186  1.00  0.00    -0.283 OA
ENDBRANCH  15  16
BRANCH  15  18
HETATM   18  C17 UNL     1      21.267   0.266  52.627  1.00  0.00     0.090 C 
HETATM   19  C18 UNL     1      21.068   0.724  54.048  1.00  0.00     0.025 C 
HETATM   20  C19 UNL     1      21.396  -0.470  54.916  1.00  0.00     0.002 C 
HETATM   21  C20 UNL     1      21.753  -1.610  53.982  1.00  0.00     0.002 C 
HETATM   22  C21 UNL     1      22.261  -0.863  52.765  1.00  0.00     0.025 C 
ENDBRANCH  15  18
ENDBRANCH   6  15
BRANCH   3  23
HETATM   23  O2  UNL     1      24.071   6.216  52.680  1.00  0.00    -0.386 OA
HETATM   24  H9  UNL     1      23.420   6.865  52.365  1.00  0.00     0.210 HD
ENDBRANCH   3  23
BRANCH   4  25
HETATM   25  N2  UNL     1      22.069   5.842  50.645  1.00  0.00    -0.342 N 
HETATM   26  H10 UNL     1      21.248   6.399  51.032  1.00  0.00     0.167 HD
BRANCH  25  27
HETATM   27  C9  UNL     1      22.561   6.199  49.366  1.00  0.00     0.033 A 
HETATM   28  C10 UNL     1      22.155   5.696  48.166  1.00  0.00     0.029 A 
HETATM   29  C11 UNL     1      22.654   6.059  46.940  1.00  0.00     0.002 A 
HETATM   30  C12 UNL     1      23.651   7.006  46.872  1.00  0.00     0.000 A 
HETATM   31  C13 UNL     1      24.103   7.551  48.054  1.00  0.00     0.002 A 
HETATM   32  C14 UNL     1      23.565   7.150  49.258  1.00  0.00     0.029 A 
ENDBRANCH  25  27
ENDBRANCH   4  25
TORSDOF 8
ENDMDL
MODEL 6
REMARK VINA RESULT:      -7.3      2.438      6.834
REMARK  8 active torsions:
REMARK  status: ('A' for Active; 'I' for Inactive)
REMARK    1  A    between atoms: O1_2  and  C2_3 
REMARK    2  A    between atoms: C5_6  and  N1_7 
REMARK    3  A    between atoms: C7_9  and  O2_10 
REMARK    4  A    between atoms: C8_11  and  N2_12 
REMARK    5  A    between atoms: N2_12  and  C9_13 
REMARK    6  A    between atoms: C15_20  and  N4_21 
REMARK    7  A    between atoms: N4_21  and  C16_22 
REMARK    8  A    between atoms: N4_21  and  C17_24 
ROOT
HETATM    1  N1  UNL     1      20.666   1.115  52.876  1.00  0.00    -0.339 N 
HETATM    2  C6  UNL     1      20.658   0.423  54.180  1.00  0.00     0.166 C 
HETATM    3  C7  UNL     1      21.544  -0.807  53.988  1.00  0.00     0.205 C 
HETATM    4  C8  UNL     1      22.853  -0.326  53.482  1.00  0.00     0.134 C 
HETATM    5  N3  UNL     1      23.026   0.827  52.929  1.00  0.00    -0.229 NA
HETATM    6  C15 UNL     1      21.953   1.780  52.743  1.00  0.00     0.321 C 
ENDROOT
BRANCH   1   7
HETATM    7  C5  UNL     1      19.441   0.965  52.139  1.00  0.00     0.033 A 
HETATM    8  C4  UNL     1      18.802   2.203  51.986  1.00  0.00     0.032 A 
HETATM    9  C3  UNL     1      17.581   2.328  51.309  1.00  0.00     0.039 A 
HETATM   10  C2  UNL     1      17.065   1.149  50.815  1.00  0.00     0.068 A 
HETATM   11  C23 UNL     1      17.641  -0.091  50.933  1.00  0.00     0.039 A 
HETATM   12  C22 UNL     1      18.837  -0.147  51.606  1.00  0.00     0.032 A 
BRANCH  10  13
HETATM   13  O1  UNL     1      15.858   1.206  50.135  1.00  0.00    -0.356 OA
HETATM   14  C1  UNL     1      15.711   1.650  48.800  1.00  0.00     0.210 C 
ENDBRANCH  10  13
ENDBRANCH   1   7
BRANCH   6  15
HETATM   15  N4  UNL     1      22.094   2.637  51.619  1.00  0.00    -0.315 N 
BRANCH  15  16
HETATM   16  C16 UNL     1      21.887   4.026  51.540  1.00  0.00     0.354 C 
HETATM   17  O3  UNL     1      21.921   5.238  51.245  1.00  0.00    -0.283 OA
ENDBRANCH  15  16
BRANCH  15  18
HETATM   18  C17 UNL     1      22.504   2.130  50.318  1.00  0.00     0.090 C 
HETATM   19  C18 UNL     1      23.586   2.961  49.680  1.00  0.00     0.025 C 
HETATM   20  C19 UNL     1      23.324   2.909  48.192  1.00  0.00     0.002 C 
HETATM   21  C20 UNL     1      22.108   2.025  47.989  1.00  0.00     0.002 C 
HETATM   22  C21 UNL     1      21.381   2.194  49.309  1.00  0.00     0.025 C 
ENDBRANCH  15  18
ENDBRANCH   6  15
BRANCH   3  23
HETATM   23  O2  UNL     1      21.634  -1.549  55.142  1.00  0.00    -0.386 OA
HETATM   24  H9  UNL     1      22.451  -2.071  55.202  1.00  0.00     0.210 HD
ENDBRANCH   3  23
BRANCH   4  25
HETATM   25  N2  UNL     1      24.015  -1.135  53.579  1.00  0.00    -0.342 N 
HETATM   26  H10 UNL     1      23.874  -2.191  53.570  1.00  0.00     0.167 HD
BRANCH  25  27
HETATM   27  C9  UNL     1      25.340  -0.650  53.693  1.00  0.00     0.033 A 
HETATM   28  C10 UNL     1      25.925  -0.124  54.806  1.00  0.00     0.029 A 
HETATM   29  C11 UNL     1      27.213   0.343  54.884  1.00  0.00     0.002 A 
HETATM   30  C12 UNL     1      28.017   0.295  53.767  1.00  0.00     0.000 A 
HETATM   31  C13 UNL     1      27.480  -0.227  52.611  1.00  0.00     0.002 A 
HETATM   32  C14 UNL     1      26.180  -0.682  52.588  1.00  0.00     0.029 A 
ENDBRANCH  25  27
ENDBRANCH   4  25
TORSDOF 8
ENDMDL
MODEL 7
REMARK VINA RESULT:      -7.3      4.353      7.502
REMARK  8 active torsions:
REMARK  status: ('A' for Active; 'I' for Inactive)
REMARK    1  A    between atoms: O1_2  and  C2_3 
REMARK    2  A    between atoms: C5_6  and  N1_7 
REMARK    3  A    between atoms: C7_9  and  O2_10 
REMARK    4  A    between atoms: C8_11  and  N2_12 
REMARK    5  A    between atoms: N2_12  and  C9_13 
REMARK    6  A    between atoms: C15_20  and  N4_21 
REMARK    7  A    between atoms: N4_21  and  C16_22 
REMARK    8  A    between atoms: N4_21  and  C17_24 
ROOT
HETATM    1  N1  UNL     1      22.859   4.634  49.973  1.00  0.00    -0.339 N 
HETATM    2  C6  UNL     1      21.723   4.421  50.891  1.00  0.00     0.166 C 
HETATM    3  C7  UNL     1      21.948   3.038  51.497  1.00  0.00     0.205 C 
HETATM    4  C8  UNL     1      23.309   3.037  52.088  1.00  0.00     0.134 C 
HETATM    5  N3  UNL     1      24.229   3.883  51.765  1.00  0.00    -0.229 NA
HETATM    6  C15 UNL     1      24.028   4.929  50.786  1.00  0.00     0.321 C 
ENDROOT
BRANCH   1   7
HETATM    7  C5  UNL     1      22.504   4.517  48.585  1.00  0.00     0.033 A 
HETATM    8  C4  UNL     1      22.594   3.184  48.161  1.00  0.00     0.032 A 
HETATM    9  C3  UNL     1      22.308   2.803  46.844  1.00  0.00     0.039 A 
HETATM   10  C2  UNL     1      21.935   3.834  46.008  1.00  0.00     0.068 A 
HETATM   11  C23 UNL     1      21.829   5.155  46.360  1.00  0.00     0.039 A 
HETATM   12  C22 UNL     1      22.123   5.464  47.666  1.00  0.00     0.032 A 
BRANCH  10  13
HETATM   13  O1  UNL     1      21.638   3.522  44.689  1.00  0.00    -0.356 OA
HETATM   14  C1  UNL     1      20.782   4.283  43.860  1.00  0.00     0.210 C 
ENDBRANCH  10  13
ENDBRANCH   1   7
BRANCH   6  15
HETATM   15  N4  UNL     1      25.193   5.324  50.075  1.00  0.00    -0.315 N 
BRANCH  15  16
HETATM   16  C16 UNL     1      26.246   4.523  49.597  1.00  0.00     0.354 C 
HETATM   17  O3  UNL     1      27.127   3.654  49.438  1.00  0.00    -0.283 OA
ENDBRANCH  15  16
BRANCH  15  18
HETATM   18  C17 UNL     1      25.446   6.716  49.734  1.00  0.00     0.090 C 
HETATM   19  C18 UNL     1      24.361   7.643  50.216  1.00  0.00     0.025 C 
HETATM   20  C19 UNL     1      24.265   8.739  49.180  1.00  0.00     0.002 C 
HETATM   21  C20 UNL     1      25.316   8.445  48.127  1.00  0.00     0.002 C 
HETATM   22  C21 UNL     1      25.452   6.939  48.241  1.00  0.00     0.025 C 
ENDBRANCH  15  18
ENDBRANCH   6  15
BRANCH   3  23
HETATM   23  O2  UNL     1      20.956   2.710  52.390  1.00  0.00    -0.386 OA
HETATM   24  H9  UNL     1      20.066   2.720  51.999  1.00  0.00     0.210 HD
ENDBRANCH   3  23
BRANCH   4  25
HETATM   25  N2  UNL     1      23.681   2.076  53.063  1.00  0.00    -0.342 N 
HETATM   26  H10 UNL     1      23.150   2.090  53.986  1.00  0.00     0.167 HD
BRANCH  25  27
HETATM   27  C9  UNL     1      24.704   1.109  52.909  1.00  0.00     0.033 A 
HETATM   28  C10 UNL     1      25.707   1.121  51.986  1.00  0.00     0.029 A 
HETATM   29  C11 UNL     1      26.683   0.164  51.857  1.00  0.00     0.002 A 
HETATM   30  C12 UNL     1      26.685  -0.916  52.711  1.00  0.00     0.000 A 
HETATM   31  C13 UNL     1      25.694  -0.983  53.666  1.00  0.00     0.002 A 
HETATM   32  C14 UNL     1      24.738   0.006  53.751  1.00  0.00     0.029 A 
ENDBRANCH  25  27
ENDBRANCH   4  25
TORSDOF 8
ENDMDL
MODEL 8
REMARK VINA RESULT:      -7.2      3.184      6.712
REMARK  8 active torsions:
REMARK  status: ('A' for Active; 'I' for Inactive)
REMARK    1  A    between atoms: O1_2  and  C2_3 
REMARK    2  A    between atoms: C5_6  and  N1_7 
REMARK    3  A    between atoms: C7_9  and  O2_10 
REMARK    4  A    between atoms: C8_11  and  N2_12 
REMARK    5  A    between atoms: N2_12  and  C9_13 
REMARK    6  A    between atoms: C15_20  and  N4_21 
REMARK    7  A    between atoms: N4_21  and  C16_22 
REMARK    8  A    between atoms: N4_21  and  C17_24 
ROOT
HETATM    1  N1  UNL     1      23.733   3.240  52.594  1.00  0.00    -0.339 N 
HETATM    2  C6  UNL     1      23.932   4.668  52.913  1.00  0.00     0.166 C 
HETATM    3  C7  UNL     1      24.114   5.360  51.564  1.00  0.00     0.205 C 
HETATM    4  C8  UNL     1      22.938   5.007  50.731  1.00  0.00     0.134 C 
HETATM    5  N3  UNL     1      22.172   3.996  50.968  1.00  0.00    -0.229 NA
HETATM    6  C15 UNL     1      22.381   3.093  52.079  1.00  0.00     0.321 C 
ENDROOT
BRANCH   1   7
HETATM    7  C5  UNL     1      24.877   2.421  52.891  1.00  0.00     0.033 A 
HETATM    8  C4  UNL     1      25.375   1.827  51.724  1.00  0.00     0.032 A 
HETATM    9  C3  UNL     1      26.485   0.972  51.744  1.00  0.00     0.039 A 
HETATM   10  C2  UNL     1      27.039   0.765  52.989  1.00  0.00     0.068 A 
HETATM   11  C23 UNL     1      26.598   1.315  54.166  1.00  0.00     0.039 A 
HETATM   12  C22 UNL     1      25.507   2.145  54.080  1.00  0.00     0.032 A 
BRANCH  10  13
HETATM   13  O1  UNL     1      28.142  -0.073  53.076  1.00  0.00    -0.356 OA
HETATM   14  C1  UNL     1      29.091  -0.041  54.124  1.00  0.00     0.210 C 
ENDBRANCH  10  13
ENDBRANCH   1   7
BRANCH   6  15
HETATM   15  N4  UNL     1      21.942   1.759  51.864  1.00  0.00    -0.315 N 
BRANCH  15  16
HETATM   16  C16 UNL     1      21.803   1.062  50.650  1.00  0.00     0.354 C 
HETATM   17  O3  UNL     1      21.508   0.694  49.495  1.00  0.00    -0.283 OA
ENDBRANCH  15  16
BRANCH  15  18
HETATM   18  C17 UNL     1      21.557   0.894  52.969  1.00  0.00     0.090 C 
HETATM   19  C18 UNL     1      22.555  -0.203  53.230  1.00  0.00     0.025 C 
HETATM   20  C19 UNL     1      21.748  -1.394  53.696  1.00  0.00     0.002 C 
HETATM   21  C20 UNL     1      20.296  -0.958  53.724  1.00  0.00     0.002 C 
HETATM   22  C21 UNL     1      20.282   0.138  52.677  1.00  0.00     0.025 C 
ENDBRANCH  15  18
ENDBRANCH   6  15
BRANCH   3  23
HETATM   23  O2  UNL     1      24.302   6.714  51.713  1.00  0.00    -0.386 OA
HETATM   24  H9  UNL     1      25.232   6.985  51.635  1.00  0.00     0.210 HD
ENDBRANCH   3  23
BRANCH   4  25
HETATM   25  N2  UNL     1      22.587   5.784  49.597  1.00  0.00    -0.342 N 
HETATM   26  H10 UNL     1      23.206   5.691  48.734  1.00  0.00     0.167 HD
BRANCH  25  27
HETATM   27  C9  UNL     1      21.488   6.674  49.524  1.00  0.00     0.033 A 
HETATM   28  C10 UNL     1      21.369   7.878  50.153  1.00  0.00     0.029 A 
HETATM   29  C11 UNL     1      20.288   8.718  50.067  1.00  0.00     0.002 A 
HETATM   30  C12 UNL     1      19.210   8.352  49.292  1.00  0.00     0.000 A 
HETATM   31  C13 UNL     1      19.272   7.144  48.632  1.00  0.00     0.002 A 
HETATM   32  C14 UNL     1      20.384   6.340  48.754  1.00  0.00     0.029 A 
ENDBRANCH  25  27
ENDBRANCH   4  25
TORSDOF 8
ENDMDL
MODEL 9
REMARK VINA RESULT:      -7.1      2.954      7.596
REMARK  8 active torsions:
REMARK  status: ('A' for Active; 'I' for Inactive)
REMARK    1  A    between atoms: O1_2  and  C2_3 
REMARK    2  A    between atoms: C5_6  and  N1_7 
REMARK    3  A    between atoms: C7_9  and  O2_10 
REMARK    4  A    between atoms: C8_11  and  N2_12 
REMARK    5  A    between atoms: N2_12  and  C9_13 
REMARK    6  A    between atoms: C15_20  and  N4_21 
REMARK    7  A    between atoms: N4_21  and  C16_22 
REMARK    8  A    between atoms: N4_21  and  C17_24 
ROOT
HETATM    1  N1  UNL     1      22.508   2.323  52.151  1.00  0.00    -0.339 N 
HETATM    2  C6  UNL     1      22.859   1.461  53.297  1.00  0.00     0.166 C 
HETATM    3  C7  UNL     1      23.807   0.406  52.730  1.00  0.00     0.205 C 
HETATM    4  C8  UNL     1      24.915   1.130  52.059  1.00  0.00     0.134 C 
HETATM    5  N3  UNL     1      24.838   2.362  51.682  1.00  0.00    -0.229 NA
HETATM    6  C15 UNL     1      23.656   3.173  51.875  1.00  0.00     0.321 C 
ENDROOT
BRANCH   1   7
HETATM    7  C5  UNL     1      21.174   2.109  51.660  1.00  0.00     0.033 A 
HETATM    8  C4  UNL     1      21.196   1.338  50.489  1.00  0.00     0.032 A 
HETATM    9  C3  UNL     1      20.022   0.994  49.806  1.00  0.00     0.039 A 
HETATM   10  C2  UNL     1      18.859   1.471  50.370  1.00  0.00     0.068 A 
HETATM   11  C23 UNL     1      18.771   2.229  51.510  1.00  0.00     0.039 A 
HETATM   12  C22 UNL     1      19.956   2.532  52.134  1.00  0.00     0.032 A 
BRANCH  10  13
HETATM   13  O1  UNL     1      17.662   1.164  49.740  1.00  0.00    -0.356 OA
HETATM   14  C1  UNL     1      17.008  -0.087  49.828  1.00  0.00     0.210 C 
ENDBRANCH  10  13
ENDBRANCH   1   7
BRANCH   6  15
HETATM   15  N4  UNL     1      23.455   4.190  50.904  1.00  0.00    -0.315 N 
BRANCH  15  16
HETATM   16  C16 UNL     1      23.418   4.074  49.503  1.00  0.00     0.354 C 
HETATM   17  O3  UNL     1      23.085   4.053  48.301  1.00  0.00    -0.283 OA
ENDBRANCH  15  16
BRANCH  15  18
HETATM   18  C17 UNL     1      23.247   5.580  51.285  1.00  0.00     0.090 C 
HETATM   19  C18 UNL     1      21.868   6.079  50.943  1.00  0.00     0.025 C 
HETATM   20  C19 UNL     1      22.035   7.539  50.584  1.00  0.00     0.002 C 
HETATM   21  C20 UNL     1      23.506   7.868  50.750  1.00  0.00     0.002 C 
HETATM   22  C21 UNL     1      24.152   6.516  50.519  1.00  0.00     0.025 C 
ENDBRANCH  15  18
ENDBRANCH   6  15
BRANCH   3  23
HETATM   23  O2  UNL     1      24.227  -0.470  53.703  1.00  0.00    -0.386 OA
HETATM   24  H9  UNL     1      24.243  -0.080  54.593  1.00  0.00     0.210 HD
ENDBRANCH   3  23
BRANCH   4  25
HETATM   25  N2  UNL     1      26.149   0.486  51.787  1.00  0.00    -0.342 N 
HETATM   26  H10 UNL     1      26.214  -0.080  50.887  1.00  0.00     0.167 HD
BRANCH  25  27
HETATM   27  C9  UNL     1      27.295   0.531  52.618  1.00  0.00     0.033 A 
HETATM   28  C10 UNL     1      27.999  -0.534  53.097  1.00  0.00     0.029 A 
HETATM   29  C11 UNL     1      29.105  -0.458  53.906  1.00  0.00     0.002 A 
HETATM   30  C12 UNL     1      29.577   0.777  54.289  1.00  0.00     0.000 A 
HETATM   31  C13 UNL     1      28.906   1.891  53.836  1.00  0.00     0.002 A 
HETATM   32  C14 UNL     1      27.800   1.758  53.025  1.00  0.00     0.029 A 
ENDBRANCH  25  27
ENDBRANCH   4  25
TORSDOF 8
ENDMDL
