MODEL 1
REMARK VINA RESULT:      -8.3      0.000      0.000
REMARK  4 active torsions:
REMARK  status: ('A' for Active; 'I' for Inactive)
REMARK    1  A    between atoms: C2_2  and  C3_3 
REMARK    2  A    between atoms: C4_4  and  C5_5 
REMARK    3  A    between atoms: C6_6  and  N1_7 
REMARK    4  A    between atoms: C20_25  and  C21_26 
ROOT
HETATM    1  C21 UNL     1      26.546  -0.079  52.658  1.00  0.00     0.151 C 
HETATM    2  C22 UNL     1      27.061   0.363  53.929  1.00  0.00     0.061 C 
HETATM    3  N5  UNL     1      27.477   0.712  54.958  1.00  0.00    -0.197 NA
ENDROOT
BRANCH   1   4
HETATM    4  C20 UNL     1      25.211   0.553  52.292  1.00  0.00     0.120 C 
HETATM    5  N1  UNL     1      25.411   2.017  52.118  1.00  0.00    -0.382 N 
HETATM    6  C7  UNL     1      24.553   2.784  52.938  1.00  0.00     0.129 C 
HETATM    7  C8  UNL     1      23.658   3.687  52.218  1.00  0.00     0.026 A 
HETATM    8  C9  UNL     1      22.322   3.851  51.936  1.00  0.00     0.016 A 
HETATM    9  C10 UNL     1      22.386   2.639  52.710  1.00  0.00     0.035 A 
HETATM   10  C11 UNL     1      21.326   3.328  52.167  1.00  0.00     0.028 A 
HETATM   11  C12 UNL     1      20.025   3.885  51.695  1.00  0.00     0.154 C 
HETATM   12  N2  UNL     1      19.779   3.363  50.320  1.00  0.00    -0.301 NA
HETATM   13  C13 UNL     1      19.080   2.223  50.461  1.00  0.00     0.111 C 
HETATM   14  C14 UNL     1      18.322   0.975  50.478  1.00  0.00     0.032 C 
HETATM   15  C15 UNL     1      18.640  -0.142  51.144  1.00  0.00    -0.008 C 
HETATM   16  C16 UNL     1      19.143   0.086  52.361  1.00  0.00     0.101 C 
HETATM   17  N3  UNL     1      20.381   0.775  52.408  1.00  0.00    -0.353 N 
HETATM   18  C17 UNL     1      21.615   1.424  52.880  1.00  0.00     0.109 C 
HETATM   19  H18 UNL     1      20.774   1.025  51.432  1.00  0.00     0.166 HD
HETATM   20  N4  UNL     1      21.782   0.212  53.233  1.00  0.00    -0.264 NA
HETATM   21  C18 UNL     1      23.068  -0.281  53.593  1.00  0.00     0.161 A 
HETATM   22  C19 UNL     1      24.176  -0.854  53.984  1.00  0.00     0.001 A 
HETATM   23  O1  UNL     1      24.267   0.354  53.323  1.00  0.00     0.000 OA
BRANCH   5  24
HETATM   24  C6  UNL     1      26.418   2.517  51.263  1.00  0.00     0.086 C 
HETATM   25  C5  UNL     1      26.638   3.204  50.168  1.00  0.00     0.017 C 
BRANCH  25  26
HETATM   26  C4  UNL     1      25.583   3.772  49.342  1.00  0.00     0.001 C 
HETATM   27  C3  UNL     1      25.367   5.075  49.422  1.00  0.00    -0.001 C 
BRANCH  27  28
HETATM   28  C2  UNL     1      24.305   5.601  48.583  1.00  0.00    -0.010 C 
HETATM   29  C1  UNL     1      23.224   4.861  48.433  1.00  0.00     0.011 C 
ENDBRANCH  27  28
ENDBRANCH  25  26
ENDBRANCH   5  24
ENDBRANCH   1   4
TORSDOF 4
ENDMDL
MODEL 2
REMARK VINA RESULT:      -7.8      1.901      5.513
REMARK  4 active torsions:
REMARK  status: ('A' for Active; 'I' for Inactive)
REMARK    1  A    between atoms: C2_2  and  C3_3 
REMARK    2  A    between atoms: C4_4  and  C5_5 
REMARK    3  A    between atoms: C6_6  and  N1_7 
REMARK    4  A    between atoms: C20_25  and  C21_26 
ROOT
HETATM    1  C21 UNL     1      25.352  -0.152  53.618  1.00  0.00     0.151 C 
HETATM    2  C22 UNL     1      26.409   0.149  54.548  1.00  0.00     0.061 C 
HETATM    3  N5  UNL     1      27.261   0.388  55.305  1.00  0.00    -0.197 NA
ENDROOT
BRANCH   1   4
HETATM    4  C20 UNL     1      24.690   1.087  53.030  1.00  0.00     0.120 C 
HETATM    5  N1  UNL     1      23.236   0.817  52.874  1.00  0.00    -0.382 N 
HETATM    6  C7  UNL     1      22.784   1.022  51.550  1.00  0.00     0.129 C 
HETATM    7  C8  UNL     1      21.741   2.034  51.405  1.00  0.00     0.026 A 
HETATM    8  C9  UNL     1      21.551   3.290  50.877  1.00  0.00     0.016 A 
HETATM    9  C10 UNL     1      22.937   2.993  50.623  1.00  0.00     0.035 A 
HETATM   10  C11 UNL     1      22.156   4.082  50.307  1.00  0.00     0.028 A 
HETATM   11  C12 UNL     1      21.534   5.355  49.843  1.00  0.00     0.154 C 
HETATM   12  N2  UNL     1      21.626   6.340  50.958  1.00  0.00    -0.301 NA
HETATM   13  C13 UNL     1      22.782   7.007  50.787  1.00  0.00     0.111 C 
HETATM   14  C14 UNL     1      24.005   7.801  50.715  1.00  0.00     0.032 C 
HETATM   15  C15 UNL     1      25.257   7.333  50.657  1.00  0.00    -0.008 C 
HETATM   16  C16 UNL     1      25.387   6.250  49.884  1.00  0.00     0.101 C 
HETATM   17  N3  UNL     1      24.698   5.088  50.314  1.00  0.00    -0.353 N 
HETATM   18  C17 UNL     1      24.174   3.716  50.412  1.00  0.00     0.109 C 
HETATM   19  H18 UNL     1      24.150   5.226  51.236  1.00  0.00     0.166 HD
HETATM   20  N4  UNL     1      25.429   3.549  50.550  1.00  0.00    -0.264 NA
HETATM   21  C18 UNL     1      25.959   2.338  51.079  1.00  0.00     0.161 A 
HETATM   22  C19 UNL     1      26.580   1.271  51.511  1.00  0.00     0.001 A 
HETATM   23  O1  UNL     1      25.227   1.379  51.757  1.00  0.00     0.000 OA
BRANCH   5  24
HETATM   24  C6  UNL     1      22.463   0.341  53.956  1.00  0.00     0.086 C 
HETATM   25  C5  UNL     1      21.357  -0.284  54.279  1.00  0.00     0.017 C 
BRANCH  25  26
HETATM   26  C4  UNL     1      20.388  -0.770  53.308  1.00  0.00     0.001 C 
HETATM   27  C3  UNL     1      19.353   0.003  53.025  1.00  0.00    -0.001 C 
BRANCH  27  28
HETATM   28  C2  UNL     1      18.410  -0.520  52.052  1.00  0.00    -0.010 C 
HETATM   29  C1  UNL     1      18.238   0.166  50.939  1.00  0.00     0.011 C 
ENDBRANCH  27  28
ENDBRANCH  25  26
ENDBRANCH   5  24
ENDBRANCH   1   4
TORSDOF 4
ENDMDL
MODEL 3
REMARK VINA RESULT:      -7.7      4.898      8.104
REMARK  4 active torsions:
REMARK  status: ('A' for Active; 'I' for Inactive)
REMARK    1  A    between atoms: C2_2  and  C3_3 
REMARK    2  A    between atoms: C4_4  and  C5_5 
REMARK    3  A    between atoms: C6_6  and  N1_7 
REMARK    4  A    between atoms: C20_25  and  C21_26 
ROOT
HETATM    1  C21 UNL     1      27.897  10.297  49.297  1.00  0.00     0.151 C 
HETATM    2  C22 UNL     1      27.856  10.611  47.892  1.00  0.00     0.061 C 
HETATM    3  N5  UNL     1      27.818  10.870  46.758  1.00  0.00    -0.197 NA
ENDROOT
BRANCH   1   4
HETATM    4  C20 UNL     1      27.606   8.834  49.601  1.00  0.00     0.120 C 
HETATM    5  N1  UNL     1      28.550   7.991  48.818  1.00  0.00    -0.382 N 
HETATM    6  C7  UNL     1      27.886   7.045  48.004  1.00  0.00     0.129 C 
HETATM    7  C8  UNL     1      28.218   5.650  48.286  1.00  0.00     0.026 A 
HETATM    8  C9  UNL     1      27.648   4.509  48.799  1.00  0.00     0.016 A 
HETATM    9  C10 UNL     1      26.619   5.511  48.903  1.00  0.00     0.035 A 
HETATM   10  C11 UNL     1      26.635   4.173  49.225  1.00  0.00     0.028 A 
HETATM   11  C12 UNL     1      26.395   2.761  49.642  1.00  0.00     0.154 C 
HETATM   12  N2  UNL     1      26.839   2.623  51.059  1.00  0.00    -0.301 NA
HETATM   13  C13 UNL     1      25.765   2.885  51.825  1.00  0.00     0.111 C 
HETATM   14  C14 UNL     1      24.680   3.148  52.766  1.00  0.00     0.032 C 
HETATM   15  C15 UNL     1      23.921   4.249  52.821  1.00  0.00    -0.008 C 
HETATM   16  C16 UNL     1      23.590   4.730  51.619  1.00  0.00     0.101 C 
HETATM   17  N3  UNL     1      24.660   5.195  50.814  1.00  0.00    -0.353 N 
HETATM   18  C17 UNL     1      25.446   5.775  49.713  1.00  0.00     0.109 C 
HETATM   19  H18 UNL     1      25.628   5.108  51.289  1.00  0.00     0.166 HD
HETATM   20  N4  UNL     1      24.742   6.761  50.104  1.00  0.00    -0.264 NA
HETATM   21  C18 UNL     1      25.073   8.096  49.740  1.00  0.00     0.161 A 
HETATM   22  C19 UNL     1      25.237   9.360  49.450  1.00  0.00     0.001 A 
HETATM   23  O1  UNL     1      26.289   8.499  49.217  1.00  0.00     0.000 OA
BRANCH   5  24
HETATM   24  C6  UNL     1      29.943   8.215  48.874  1.00  0.00     0.086 C 
HETATM   25  C5  UNL     1      31.115   7.627  48.876  1.00  0.00     0.017 C 
BRANCH  25  26
HETATM   26  C4  UNL     1      31.298   6.186  48.801  1.00  0.00     0.001 C 
HETATM   27  C3  UNL     1      31.842   5.685  47.704  1.00  0.00    -0.001 C 
BRANCH  27  28
HETATM   28  C2  UNL     1      32.006   4.243  47.670  1.00  0.00    -0.010 C 
HETATM   29  C1  UNL     1      32.152   3.674  46.489  1.00  0.00     0.011 C 
ENDBRANCH  27  28
ENDBRANCH  25  26
ENDBRANCH   5  24
ENDBRANCH   1   4
TORSDOF 4
ENDMDL
MODEL 4
REMARK VINA RESULT:      -7.6      2.108      7.050
REMARK  4 active torsions:
REMARK  status: ('A' for Active; 'I' for Inactive)
REMARK    1  A    between atoms: C2_2  and  C3_3 
REMARK    2  A    between atoms: C4_4  and  C5_5 
REMARK    3  A    between atoms: C6_6  and  N1_7 
REMARK    4  A    between atoms: C20_25  and  C21_26 
ROOT
HETATM    1  C21 UNL     1      21.106   4.395  50.223  1.00  0.00     0.151 C 
HETATM    2  C22 UNL     1      21.461   4.805  48.890  1.00  0.00     0.061 C 
HETATM    3  N5  UNL     1      21.741   5.135  47.809  1.00  0.00    -0.197 NA
ENDROOT
BRANCH   1   4
HETATM    4  C20 UNL     1      22.060   3.366  50.816  1.00  0.00     0.120 C 
HETATM    5  N1  UNL     1      21.310   2.100  51.041  1.00  0.00    -0.382 N 
HETATM    6  C7  UNL     1      21.391   1.652  52.378  1.00  0.00     0.129 C 
HETATM    7  C8  UNL     1      21.986   0.328  52.550  1.00  0.00     0.026 A 
HETATM    8  C9  UNL     1      23.116  -0.267  53.060  1.00  0.00     0.016 A 
HETATM    9  C10 UNL     1      23.324   1.145  53.259  1.00  0.00     0.035 A 
HETATM   10  C11 UNL     1      24.087   0.047  53.587  1.00  0.00     0.028 A 
HETATM   11  C12 UNL     1      25.082  -0.961  54.054  1.00  0.00     0.154 C 
HETATM   12  N2  UNL     1      26.000  -1.254  52.916  1.00  0.00    -0.301 NA
HETATM   13  C13 UNL     1      27.030  -0.395  53.023  1.00  0.00     0.111 C 
HETATM   14  C14 UNL     1      28.200   0.479  53.026  1.00  0.00     0.032 C 
HETATM   15  C15 UNL     1      28.194   1.818  53.038  1.00  0.00    -0.008 C 
HETATM   16  C16 UNL     1      27.249   2.341  53.825  1.00  0.00     0.101 C 
HETATM   17  N3  UNL     1      25.907   2.082  53.449  1.00  0.00    -0.353 N 
HETATM   18  C17 UNL     1      24.436   2.062  53.402  1.00  0.00     0.109 C 
HETATM   19  H18 UNL     1      25.817   1.489  52.549  1.00  0.00     0.166 HD
HETATM   20  N4  UNL     1      24.707   3.292  53.212  1.00  0.00    -0.264 NA
HETATM   21  C18 UNL     1      23.736   4.189  52.684  1.00  0.00     0.161 A 
HETATM   22  C19 UNL     1      22.936   5.126  52.247  1.00  0.00     0.001 A 
HETATM   23  O1  UNL     1      22.561   3.811  52.058  1.00  0.00     0.000 OA
BRANCH   5  24
HETATM   24  C6  UNL     1      20.561   1.504  50.003  1.00  0.00     0.086 C 
HETATM   25  C5  UNL     1      19.417   0.937  49.709  1.00  0.00     0.017 C 
BRANCH  25  26
HETATM   26  C4  UNL     1      18.344   0.731  50.670  1.00  0.00     0.001 C 
HETATM   27  C3  UNL     1      18.392  -0.349  51.432  1.00  0.00    -0.001 C 
BRANCH  27  28
HETATM   28  C2  UNL     1      17.302  -0.516  52.376  1.00  0.00    -0.010 C 
HETATM   29  C1  UNL     1      17.439  -1.439  53.309  1.00  0.00     0.011 C 
ENDBRANCH  27  28
ENDBRANCH  25  26
ENDBRANCH   5  24
ENDBRANCH   1   4
TORSDOF 4
ENDMDL
MODEL 5
REMARK VINA RESULT:      -7.5      2.120      5.270
REMARK  4 active torsions:
REMARK  status: ('A' for Active; 'I' for Inactive)
REMARK    1  A    between atoms: C2_2  and  C3_3 
REMARK    2  A    between atoms: C4_4  and  C5_5 
REMARK    3  A    between atoms: C6_6  and  N1_7 
REMARK    4  A    between atoms: C20_25  and  C21_26 
ROOT
HETATM    1  C21 UNL     1      20.920   5.494  50.799  1.00  0.00     0.151 C 
HETATM    2  C22 UNL     1      21.113   5.630  49.379  1.00  0.00     0.061 C 
HETATM    3  N5  UNL     1      21.262   5.740  48.229  1.00  0.00    -0.197 NA
ENDROOT
BRANCH   1   4
HETATM    4  C20 UNL     1      21.766   4.393  51.423  1.00  0.00     0.120 C 
HETATM    5  N1  UNL     1      23.199   4.679  51.141  1.00  0.00    -0.382 N 
HETATM    6  C7  UNL     1      23.850   3.604  50.494  1.00  0.00     0.129 C 
HETATM    7  C8  UNL     1      24.989   3.048  51.220  1.00  0.00     0.026 A 
HETATM    8  C9  UNL     1      25.364   1.905  51.887  1.00  0.00     0.016 A 
HETATM    9  C10 UNL     1      24.007   1.658  51.472  1.00  0.00     0.035 A 
HETATM   10  C11 UNL     1      24.918   0.879  52.149  1.00  0.00     0.028 A 
HETATM   11  C12 UNL     1      25.711  -0.153  52.876  1.00  0.00     0.154 C 
HETATM   12  N2  UNL     1      25.550   0.095  54.337  1.00  0.00    -0.301 NA
HETATM   13  C13 UNL     1      24.494  -0.637  54.737  1.00  0.00     0.111 C 
HETATM   14  C14 UNL     1      23.369  -1.382  55.296  1.00  0.00     0.032 C 
HETATM   15  C15 UNL     1      22.101  -1.350  54.869  1.00  0.00    -0.008 C 
HETATM   16  C16 UNL     1      21.986  -1.310  53.538  1.00  0.00     0.101 C 
HETATM   17  N3  UNL     1      22.501  -0.153  52.900  1.00  0.00    -0.353 N 
HETATM   18  C17 UNL     1      22.881   0.847  51.889  1.00  0.00     0.109 C 
HETATM   19  H18 UNL     1      22.922   0.569  53.587  1.00  0.00     0.166 HD
HETATM   20  N4  UNL     1      21.609   0.847  51.821  1.00  0.00    -0.264 NA
HETATM   21  C18 UNL     1      20.904   1.907  51.184  1.00  0.00     0.161 A 
HETATM   22  C19 UNL     1      20.136   2.788  50.599  1.00  0.00     0.001 A 
HETATM   23  O1  UNL     1      21.445   3.139  50.859  1.00  0.00     0.000 OA
BRANCH   5  24
HETATM   24  C6  UNL     1      23.764   5.936  51.447  1.00  0.00     0.086 C 
HETATM   25  C5  UNL     1      24.557   6.882  51.004  1.00  0.00     0.017 C 
BRANCH  25  26
HETATM   26  C4  UNL     1      25.237   6.832  49.718  1.00  0.00     0.001 C 
HETATM   27  C3  UNL     1      26.336   6.102  49.626  1.00  0.00    -0.001 C 
BRANCH  27  28
HETATM   28  C2  UNL     1      26.984   6.082  48.326  1.00  0.00    -0.010 C 
HETATM   29  C1  UNL     1      28.274   5.808  48.293  1.00  0.00     0.011 C 
ENDBRANCH  27  28
ENDBRANCH  25  26
ENDBRANCH   5  24
ENDBRANCH   1   4
TORSDOF 4
ENDMDL
MODEL 6
REMARK VINA RESULT:      -7.5      1.870      3.446
REMARK  4 active torsions:
REMARK  status: ('A' for Active; 'I' for Inactive)
REMARK    1  A    between atoms: C2_2  and  C3_3 
REMARK    2  A    between atoms: C4_4  and  C5_5 
REMARK    3  A    between atoms: C6_6  and  N1_7 
REMARK    4  A    between atoms: C20_25  and  C21_26 
ROOT
HETATM    1  C21 UNL     1      22.696  -0.967  52.863  1.00  0.00     0.151 C 
HETATM    2  C22 UNL     1      22.720  -0.991  54.303  1.00  0.00     0.061 C 
HETATM    3  N5  UNL     1      22.733  -1.015  55.466  1.00  0.00    -0.197 NA
ENDROOT
BRANCH   1   4
HETATM    4  C20 UNL     1      22.538   0.432  52.282  1.00  0.00     0.120 C 
HETATM    5  N1  UNL     1      23.760   1.218  52.601  1.00  0.00    -0.382 N 
HETATM    6  C7  UNL     1      23.470   2.420  53.284  1.00  0.00     0.129 C 
HETATM    7  C8  UNL     1      23.903   3.637  52.601  1.00  0.00     0.026 A 
HETATM    8  C9  UNL     1      23.378   4.737  51.964  1.00  0.00     0.016 A 
HETATM    9  C10 UNL     1      22.232   3.954  52.344  1.00  0.00     0.035 A 
HETATM   10  C11 UNL     1      22.345   5.169  51.708  1.00  0.00     0.028 A 
HETATM   11  C12 UNL     1      22.198   6.485  51.021  1.00  0.00     0.154 C 
HETATM   12  N2  UNL     1      22.268   6.242  49.552  1.00  0.00    -0.301 NA
HETATM   13  C13 UNL     1      21.004   6.041  49.136  1.00  0.00     0.111 C 
HETATM   14  C14 UNL     1      19.684   5.807  48.557  1.00  0.00     0.032 C 
HETATM   15  C15 UNL     1      18.795   4.886  48.947  1.00  0.00    -0.008 C 
HETATM   16  C16 UNL     1      18.730   4.733  50.273  1.00  0.00     0.101 C 
HETATM   17  N3  UNL     1      19.901   4.245  50.906  1.00  0.00    -0.353 N 
HETATM   18  C17 UNL     1      20.863   3.762  51.910  1.00  0.00     0.109 C 
HETATM   19  H18 UNL     1      20.712   4.045  50.219  1.00  0.00     0.166 HD
HETATM   20  N4  UNL     1      19.952   2.872  51.942  1.00  0.00    -0.264 NA
HETATM   21  C18 UNL     1      20.183   1.601  52.540  1.00  0.00     0.161 A 
HETATM   22  C19 UNL     1      20.243   0.415  53.087  1.00  0.00     0.001 A 
HETATM   23  O1  UNL     1      21.427   1.086  52.858  1.00  0.00     0.000 OA
BRANCH   5  24
HETATM   24  C6  UNL     1      25.045   0.722  52.289  1.00  0.00     0.086 C 
HETATM   25  C5  UNL     1      26.221   1.045  51.807  1.00  0.00     0.017 C 
BRANCH  25  26
HETATM   26  C4  UNL     1      26.568   2.380  51.345  1.00  0.00     0.001 C 
HETATM   27  C3  UNL     1      26.340   2.676  50.076  1.00  0.00    -0.001 C 
BRANCH  27  28
HETATM   28  C2  UNL     1      26.702   4.018  49.656  1.00  0.00    -0.010 C 
HETATM   29  C1  UNL     1      25.751   4.773  49.140  1.00  0.00     0.011 C 
ENDBRANCH  27  28
ENDBRANCH  25  26
ENDBRANCH   5  24
ENDBRANCH   1   4
TORSDOF 4
ENDMDL
MODEL 7
REMARK VINA RESULT:      -7.4      8.617     12.584
REMARK  4 active torsions:
REMARK  status: ('A' for Active; 'I' for Inactive)
REMARK    1  A    between atoms: C2_2  and  C3_3 
REMARK    2  A    between atoms: C4_4  and  C5_5 
REMARK    3  A    between atoms: C6_6  and  N1_7 
REMARK    4  A    between atoms: C20_25  and  C21_26 
ROOT
HETATM    1  C21 UNL     1      29.294  11.823  46.075  1.00  0.00     0.151 C 
HETATM    2  C22 UNL     1      28.167  11.703  45.188  1.00  0.00     0.061 C 
HETATM    3  N5  UNL     1      27.252  11.610  44.474  1.00  0.00    -0.197 NA
ENDROOT
BRANCH   1   4
HETATM    4  C20 UNL     1      29.885  10.483  46.491  1.00  0.00     0.120 C 
HETATM    5  N1  UNL     1      29.752  10.344  47.966  1.00  0.00    -0.382 N 
HETATM    6  C7  UNL     1      30.990  10.094  48.602  1.00  0.00     0.129 C 
HETATM    7  C8  UNL     1      31.056   8.840  49.349  1.00  0.00     0.026 A 
HETATM    8  C9  UNL     1      31.672   7.611  49.303  1.00  0.00     0.016 A 
HETATM    9  C10 UNL     1      32.134   8.296  48.123  1.00  0.00     0.035 A 
HETATM   10  C11 UNL     1      32.421   7.052  48.636  1.00  0.00     0.028 A 
HETATM   11  C12 UNL     1      32.901   5.682  48.981  1.00  0.00     0.154 C 
HETATM   12  N2  UNL     1      31.931   4.703  48.413  1.00  0.00    -0.301 NA
HETATM   13  C13 UNL     1      32.373   4.396  47.181  1.00  0.00     0.111 C 
HETATM   14  C14 UNL     1      32.744   3.978  45.831  1.00  0.00     0.032 C 
HETATM   15  C15 UNL     1      32.972   4.780  44.784  1.00  0.00    -0.008 C 
HETATM   16  C16 UNL     1      33.636   5.896  45.100  1.00  0.00     0.101 C 
HETATM   17  N3  UNL     1      32.970   6.795  45.971  1.00  0.00    -0.353 N 
HETATM   18  C17 UNL     1      32.636   7.960  46.807  1.00  0.00     0.109 C 
HETATM   19  H18 UNL     1      31.985   6.460  46.268  1.00  0.00     0.166 HD
HETATM   20  N4  UNL     1      32.704   8.462  45.639  1.00  0.00    -0.264 NA
HETATM   21  C18 UNL     1      32.151   9.742  45.352  1.00  0.00     0.161 A 
HETATM   22  C19 UNL     1      31.725  10.915  44.961  1.00  0.00     0.001 A 
HETATM   23  O1  UNL     1      31.256  10.421  46.161  1.00  0.00     0.000 OA
BRANCH   5  24
HETATM   24  C6  UNL     1      28.507  10.527  48.605  1.00  0.00     0.086 C 
HETATM   25  C5  UNL     1      27.503   9.905  49.176  1.00  0.00     0.017 C 
BRANCH  25  26
HETATM   26  C4  UNL     1      27.423   8.459  49.322  1.00  0.00     0.001 C 
HETATM   27  C3  UNL     1      27.512   7.720  48.228  1.00  0.00    -0.001 C 
BRANCH  27  28
HETATM   28  C2  UNL     1      27.426   6.283  48.417  1.00  0.00    -0.010 C 
HETATM   29  C1  UNL     1      28.547   5.592  48.353  1.00  0.00     0.011 C 
ENDBRANCH  27  28
ENDBRANCH  25  26
ENDBRANCH   5  24
ENDBRANCH   1   4
TORSDOF 4
ENDMDL
MODEL 8
REMARK VINA RESULT:      -7.3      2.367      5.053
REMARK  4 active torsions:
REMARK  status: ('A' for Active; 'I' for Inactive)
REMARK    1  A    between atoms: C2_2  and  C3_3 
REMARK    2  A    between atoms: C4_4  and  C5_5 
REMARK    3  A    between atoms: C6_6  and  N1_7 
REMARK    4  A    between atoms: C20_25  and  C21_26 
ROOT
HETATM    1  C21 UNL     1      24.366   4.378  50.191  1.00  0.00     0.151 C 
HETATM    2  C22 UNL     1      24.387   5.751  50.624  1.00  0.00     0.061 C 
HETATM    3  N5  UNL     1      24.410   6.860  50.978  1.00  0.00    -0.197 NA
ENDROOT
BRANCH   1   4
HETATM    4  C20 UNL     1      23.033   3.684  50.438  1.00  0.00     0.120 C 
HETATM    5  N1  UNL     1      23.248   2.579  51.411  1.00  0.00    -0.382 N 
HETATM    6  C7  UNL     1      22.809   1.329  50.918  1.00  0.00     0.129 C 
HETATM    7  C8  UNL     1      21.770   0.683  51.717  1.00  0.00     0.026 A 
HETATM    8  C9  UNL     1      20.439   0.345  51.649  1.00  0.00     0.016 A 
HETATM    9  C10 UNL     1      20.709   1.019  50.405  1.00  0.00     0.035 A 
HETATM   10  C11 UNL     1      19.570   0.429  50.903  1.00  0.00     0.028 A 
HETATM   11  C12 UNL     1      18.225  -0.142  51.203  1.00  0.00     0.154 C 
HETATM   12  N2  UNL     1      17.451   0.887  51.955  1.00  0.00    -0.301 NA
HETATM   13  C13 UNL     1      16.783   1.610  51.037  1.00  0.00     0.111 C 
HETATM   14  C14 UNL     1      16.008   2.468  50.146  1.00  0.00     0.032 C 
HETATM   15  C15 UNL     1      16.479   3.177  49.112  1.00  0.00    -0.008 C 
HETATM   16  C16 UNL     1      17.413   2.534  48.405  1.00  0.00     0.101 C 
HETATM   17  N3  UNL     1      18.621   2.238  49.086  1.00  0.00    -0.353 N 
HETATM   18  C17 UNL     1      19.981   1.773  49.405  1.00  0.00     0.109 C 
HETATM   19  H18 UNL     1      18.636   2.586  50.110  1.00  0.00     0.166 HD
HETATM   20  N4  UNL     1      20.189   2.673  48.528  1.00  0.00    -0.264 NA
HETATM   21  C18 UNL     1      21.482   3.240  48.346  1.00  0.00     0.161 A 
HETATM   22  C19 UNL     1      22.617   3.816  48.046  1.00  0.00     0.001 A 
HETATM   23  O1  UNL     1      22.532   3.129  49.240  1.00  0.00     0.000 OA
BRANCH   5  24
HETATM   24  C6  UNL     1      23.892   2.812  52.645  1.00  0.00     0.086 C 
HETATM   25  C5  UNL     1      24.956   2.531  53.359  1.00  0.00     0.017 C 
BRANCH  25  26
HETATM   26  C4  UNL     1      26.028   1.657  52.906  1.00  0.00     0.001 C 
HETATM   27  C3  UNL     1      25.782   0.359  52.838  1.00  0.00    -0.001 C 
BRANCH  27  28
HETATM   28  C2  UNL     1      26.879  -0.477  52.383  1.00  0.00    -0.010 C 
HETATM   29  C1  UNL     1      26.793  -1.773  52.613  1.00  0.00     0.011 C 
ENDBRANCH  27  28
ENDBRANCH  25  26
ENDBRANCH   5  24
ENDBRANCH   1   4
TORSDOF 4
ENDMDL
MODEL 9
REMARK VINA RESULT:      -7.1      2.505      5.373
REMARK  4 active torsions:
REMARK  status: ('A' for Active; 'I' for Inactive)
REMARK    1  A    between atoms: C2_2  and  C3_3 
REMARK    2  A    between atoms: C4_4  and  C5_5 
REMARK    3  A    between atoms: C6_6  and  N1_7 
REMARK    4  A    between atoms: C20_25  and  C21_26 
ROOT
HETATM    1  C21 UNL     1      23.802   4.725  51.774  1.00  0.00     0.151 C 
HETATM    2  C22 UNL     1      24.582   4.748  50.563  1.00  0.00     0.061 C 
HETATM    3  N5  UNL     1      25.212   4.773  49.585  1.00  0.00    -0.197 NA
ENDROOT
BRANCH   1   4
HETATM    4  C20 UNL     1      22.521   3.912  51.655  1.00  0.00     0.120 C 
HETATM    5  N1  UNL     1      22.873   2.534  51.217  1.00  0.00    -0.382 N 
HETATM    6  C7  UNL     1      22.190   2.146  50.042  1.00  0.00     0.129 C 
HETATM    7  C8  UNL     1      21.342   0.964  50.185  1.00  0.00     0.026 A 
HETATM    8  C9  UNL     1      20.015   0.608  50.189  1.00  0.00     0.016 A 
HETATM    9  C10 UNL     1      20.009   2.038  50.018  1.00  0.00     0.035 A 
HETATM   10  C11 UNL     1      18.990   1.114  50.070  1.00  0.00     0.028 A 
HETATM   11  C12 UNL     1      17.724   0.325  50.082  1.00  0.00     0.154 C 
HETATM   12  N2  UNL     1      17.293   0.180  51.502  1.00  0.00    -0.301 NA
HETATM   13  C13 UNL     1      16.482   1.221  51.765  1.00  0.00     0.111 C 
HETATM   14  C14 UNL     1      15.589   2.300  52.178  1.00  0.00     0.032 C 
HETATM   15  C15 UNL     1      15.836   3.613  52.098  1.00  0.00    -0.008 C 
HETATM   16  C16 UNL     1      16.472   3.970  50.978  1.00  0.00     0.101 C 
HETATM   17  N3  UNL     1      17.781   3.451  50.810  1.00  0.00    -0.353 N 
HETATM   18  C17 UNL     1      19.121   3.153  50.277  1.00  0.00     0.109 C 
HETATM   19  H18 UNL     1      18.108   2.827  51.630  1.00  0.00     0.166 HD
HETATM   20  N4  UNL     1      19.178   4.406  50.497  1.00  0.00    -0.264 NA
HETATM   21  C18 UNL     1      20.426   5.089  50.556  1.00  0.00     0.161 A 
HETATM   22  C19 UNL     1      21.492   5.845  50.597  1.00  0.00     0.001 A 
HETATM   23  O1  UNL     1      21.661   4.478  50.689  1.00  0.00     0.000 OA
BRANCH   5  24
HETATM   24  C6  UNL     1      23.847   1.779  51.906  1.00  0.00     0.086 C 
HETATM   25  C5  UNL     1      24.029   0.755  52.705  1.00  0.00     0.017 C 
BRANCH  25  26
HETATM   26  C4  UNL     1      22.950  -0.077  53.214  1.00  0.00     0.001 C 
HETATM   27  C3  UNL     1      21.899   0.526  53.745  1.00  0.00    -0.001 C 
BRANCH  27  28
HETATM   28  C2  UNL     1      20.845  -0.341  54.242  1.00  0.00    -0.010 C 
HETATM   29  C1  UNL     1      21.060  -1.642  54.207  1.00  0.00     0.011 C 
ENDBRANCH  27  28
ENDBRANCH  25  26
ENDBRANCH   5  24
ENDBRANCH   1   4
TORSDOF 4
ENDMDL
