MODEL 1
REMARK VINA RESULT:      -7.4      0.000      0.000
REMARK  8 active torsions:
REMARK  status: ('A' for Active; 'I' for Inactive)
REMARK       I    between atoms: C1_2  and  N1_3 
REMARK    1  A    between atoms: C1_2  and  C9_12 
REMARK    2  A    between atoms: N1_3  and  C2_4 
REMARK    3  A    between atoms: C6_8  and  O2_9 
REMARK    4  A    between atoms: C12_15  and  N2_16 
REMARK    5  A    between atoms: N2_16  and  C13_17 
REMARK    6  A    between atoms: N2_16  and  C15_20 
REMARK    7  A    between atoms: C13_17  and  C14_18 
REMARK    8  A    between atoms: C15_20  and  C16_21 
ROOT
HETATM    1  C9  UNL     1      22.545  -0.502  53.519  1.00  0.00     0.032 A 
HETATM    2  C10 UNL     1      22.119   0.044  52.320  1.00  0.00     0.019 A 
HETATM    3  C11 UNL     1      20.776  -0.029  52.030  1.00  0.00     0.030 A 
HETATM    4  C12 UNL     1      19.784  -0.584  52.791  1.00  0.00     0.030 A 
HETATM    5  C17 UNL     1      20.261  -1.109  53.966  1.00  0.00     0.030 A 
HETATM    6  C18 UNL     1      21.587  -1.074  54.325  1.00  0.00     0.019 A 
ENDROOT
BRANCH   1   7
HETATM    7  C1  UNL     1      23.965  -0.421  53.829  1.00  0.00     0.256 C 
HETATM    8  O1  UNL     1      24.362  -0.893  54.907  1.00  0.00    -0.267 OA
HETATM    9  N1  UNL     1      24.951   0.144  53.025  1.00  0.00    -0.323 N 
HETATM   10  H1  UNL     1      24.524   0.513  52.143  1.00  0.00     0.169 HD
BRANCH   9  11
HETATM   11  C2  UNL     1      26.343   0.315  53.140  1.00  0.00     0.034 C 
HETATM   12  C3  UNL     1      27.252  -0.646  53.163  1.00  0.00     0.029 C 
HETATM   13  C4  UNL     1      28.726  -0.681  53.274  1.00  0.00     0.001 C 
HETATM   14  C5  UNL     1      29.411   0.297  53.858  1.00  0.00     0.008 C 
HETATM   15  C6  UNL     1      29.026   1.564  54.502  1.00  0.00     0.164 C 
HETATM   16  C7  UNL     1      27.897   2.232  53.808  1.00  0.00     0.011 C 
HETATM   17  C8  UNL     1      26.790   1.722  53.246  1.00  0.00     0.028 C 
BRANCH  15  18
HETATM   18  O2  UNL     1      30.109   2.430  54.553  1.00  0.00    -0.388 OA
HETATM   19  H6  UNL     1      30.419   2.487  55.496  1.00  0.00     0.210 HD
ENDBRANCH  15  18
ENDBRANCH   9  11
ENDBRANCH   1   7
BRANCH   4  20
HETATM   20  N2  UNL     1      18.400  -0.628  52.494  1.00  0.00    -0.379 N 
BRANCH  20  21
HETATM   21  C13 UNL     1      17.561  -0.149  51.471  1.00  0.00     0.138 C 
BRANCH  21  22
HETATM   22  C14 UNL     1      17.231   1.320  51.442  1.00  0.00     0.134 C 
HETATM   23 CL1  UNL     1      15.537   1.432  52.109  1.00  0.00    -0.129 Cl
ENDBRANCH  21  22
ENDBRANCH  20  21
BRANCH  20  24
HETATM   24  C15 UNL     1      17.522  -1.323  53.410  1.00  0.00     0.138 C 
BRANCH  24  25
HETATM   25  C16 UNL     1      16.727  -2.421  52.748  1.00  0.00     0.134 C 
HETATM   26 CL2  UNL     1      17.095  -4.009  53.493  1.00  0.00    -0.129 Cl
ENDBRANCH  24  25
ENDBRANCH  20  24
ENDBRANCH   4  20
TORSDOF 8
ENDMDL
MODEL 2
REMARK VINA RESULT:      -7.4      0.620      2.355
REMARK  8 active torsions:
REMARK  status: ('A' for Active; 'I' for Inactive)
REMARK       I    between atoms: C1_2  and  N1_3 
REMARK    1  A    between atoms: C1_2  and  C9_12 
REMARK    2  A    between atoms: N1_3  and  C2_4 
REMARK    3  A    between atoms: C6_8  and  O2_9 
REMARK    4  A    between atoms: C12_15  and  N2_16 
REMARK    5  A    between atoms: N2_16  and  C13_17 
REMARK    6  A    between atoms: N2_16  and  C15_20 
REMARK    7  A    between atoms: C13_17  and  C14_18 
REMARK    8  A    between atoms: C15_20  and  C16_21 
ROOT
HETATM    1  C9  UNL     1      22.465  -0.290  53.235  1.00  0.00     0.032 A 
HETATM    2  C10 UNL     1      21.568  -0.814  54.151  1.00  0.00     0.019 A 
HETATM    3  C11 UNL     1      20.235  -0.816  53.806  1.00  0.00     0.030 A 
HETATM    4  C12 UNL     1      19.669  -0.356  52.649  1.00  0.00     0.030 A 
HETATM    5  C17 UNL     1      20.602   0.151  51.779  1.00  0.00     0.030 A 
HETATM    6  C18 UNL     1      21.948   0.187  52.052  1.00  0.00     0.019 A 
ENDROOT
BRANCH   1   7
HETATM    7  C1  UNL     1      23.874  -0.292  53.597  1.00  0.00     0.256 C 
HETATM    8  O1  UNL     1      24.208  -0.829  54.666  1.00  0.00    -0.267 OA
HETATM    9  N1  UNL     1      24.915   0.257  52.853  1.00  0.00    -0.323 N 
HETATM   10  H1  UNL     1      24.539   0.684  51.975  1.00  0.00     0.169 HD
BRANCH   9  11
HETATM   11  C2  UNL     1      26.308   0.354  53.024  1.00  0.00     0.034 C 
HETATM   12  C3  UNL     1      27.159  -0.655  53.118  1.00  0.00     0.029 C 
HETATM   13  C4  UNL     1      28.623  -0.768  53.295  1.00  0.00     0.001 C 
HETATM   14  C5  UNL     1      29.337   0.190  53.877  1.00  0.00     0.008 C 
HETATM   15  C6  UNL     1      28.999   1.497  54.462  1.00  0.00     0.164 C 
HETATM   16  C7  UNL     1      27.940   2.204  53.699  1.00  0.00     0.011 C 
HETATM   17  C8  UNL     1      26.830   1.737  53.105  1.00  0.00     0.028 C 
BRANCH  15  18
HETATM   18  O2  UNL     1      30.126   2.303  54.534  1.00  0.00    -0.388 OA
HETATM   19  H6  UNL     1      30.634   2.207  53.685  1.00  0.00     0.210 HD
ENDBRANCH  15  18
ENDBRANCH   9  11
ENDBRANCH   1   7
BRANCH   4  20
HETATM   20  N2  UNL     1      18.298  -0.390  52.294  1.00  0.00    -0.379 N 
BRANCH  20  21
HETATM   21  C13 UNL     1      17.090  -0.742  52.924  1.00  0.00     0.138 C 
BRANCH  21  22
HETATM   22  C14 UNL     1      16.514  -2.107  52.661  1.00  0.00     0.134 C 
HETATM   23 CL1  UNL     1      17.573  -3.252  53.606  1.00  0.00    -0.129 Cl
ENDBRANCH  21  22
ENDBRANCH  20  21
BRANCH  20  24
HETATM   24  C15 UNL     1      17.923   0.027  50.961  1.00  0.00     0.138 C 
BRANCH  24  25
HETATM   25  C16 UNL     1      17.020   1.235  50.952  1.00  0.00     0.134 C 
HETATM   26 CL2  UNL     1      15.693   1.027  49.764  1.00  0.00    -0.129 Cl
ENDBRANCH  24  25
ENDBRANCH  20  24
ENDBRANCH   4  20
TORSDOF 8
ENDMDL
MODEL 3
REMARK VINA RESULT:      -7.1      7.920     10.968
REMARK  8 active torsions:
REMARK  status: ('A' for Active; 'I' for Inactive)
REMARK       I    between atoms: C1_2  and  N1_3 
REMARK    1  A    between atoms: C1_2  and  C9_12 
REMARK    2  A    between atoms: N1_3  and  C2_4 
REMARK    3  A    between atoms: C6_8  and  O2_9 
REMARK    4  A    between atoms: C12_15  and  N2_16 
REMARK    5  A    between atoms: N2_16  and  C13_17 
REMARK    6  A    between atoms: N2_16  and  C15_20 
REMARK    7  A    between atoms: C13_17  and  C14_18 
REMARK    8  A    between atoms: C15_20  and  C16_21 
ROOT
HETATM    1  C9  UNL     1      26.846   4.950  49.078  1.00  0.00     0.032 A 
HETATM    2  C10 UNL     1      26.044   6.062  48.884  1.00  0.00     0.019 A 
HETATM    3  C11 UNL     1      26.600   7.141  48.234  1.00  0.00     0.030 A 
HETATM    4  C12 UNL     1      27.871   7.259  47.745  1.00  0.00     0.030 A 
HETATM    5  C17 UNL     1      28.621   6.130  47.964  1.00  0.00     0.030 A 
HETATM    6  C18 UNL     1      28.136   5.015  48.604  1.00  0.00     0.019 A 
ENDROOT
BRANCH   1   7
HETATM    7  C1  UNL     1      26.257   3.808  49.760  1.00  0.00     0.256 C 
HETATM    8  O1  UNL     1      25.284   3.242  49.233  1.00  0.00    -0.267 OA
HETATM    9  N1  UNL     1      26.678   3.266  50.972  1.00  0.00    -0.323 N 
HETATM   10  H1  UNL     1      27.497   3.805  51.338  1.00  0.00     0.169 HD
BRANCH   9  11
HETATM   11  C2  UNL     1      26.255   2.191  51.775  1.00  0.00     0.034 C 
HETATM   12  C3  UNL     1      26.796   0.985  51.819  1.00  0.00     0.029 C 
HETATM   13  C4  UNL     1      26.512  -0.256  52.573  1.00  0.00     0.001 C 
HETATM   14  C5  UNL     1      25.301  -0.530  53.046  1.00  0.00     0.008 C 
HETATM   15  C6  UNL     1      24.010   0.176  53.006  1.00  0.00     0.164 C 
HETATM   16  C7  UNL     1      24.162   1.647  53.140  1.00  0.00     0.011 C 
HETATM   17  C8  UNL     1      25.086   2.480  52.635  1.00  0.00     0.028 C 
BRANCH  15  18
HETATM   18  O2  UNL     1      23.171  -0.291  54.008  1.00  0.00    -0.388 OA
HETATM   19  H6  UNL     1      22.271   0.111  53.875  1.00  0.00     0.210 HD
ENDBRANCH  15  18
ENDBRANCH   9  11
ENDBRANCH   1   7
BRANCH   4  20
HETATM   20  N2  UNL     1      28.423   8.365  47.053  1.00  0.00    -0.379 N 
BRANCH  20  21
HETATM   21  C13 UNL     1      28.659   9.725  47.326  1.00  0.00     0.138 C 
BRANCH  21  22
HETATM   22  C14 UNL     1      28.883  10.142  48.755  1.00  0.00     0.134 C 
HETATM   23 CL1  UNL     1      30.382   9.244  49.276  1.00  0.00    -0.129 Cl
ENDBRANCH  21  22
ENDBRANCH  20  21
BRANCH  20  24
HETATM   24  C15 UNL     1      28.907   8.160  45.705  1.00  0.00     0.138 C 
BRANCH  24  25
HETATM   25  C16 UNL     1      30.331   8.617  45.512  1.00  0.00     0.134 C 
HETATM   26 CL2  UNL     1      31.479   7.426  46.203  1.00  0.00    -0.129 Cl
ENDBRANCH  24  25
ENDBRANCH  20  24
ENDBRANCH   4  20
TORSDOF 8
ENDMDL
MODEL 4
REMARK VINA RESULT:      -7.1      8.026     11.184
REMARK  8 active torsions:
REMARK  status: ('A' for Active; 'I' for Inactive)
REMARK       I    between atoms: C1_2  and  N1_3 
REMARK    1  A    between atoms: C1_2  and  C9_12 
REMARK    2  A    between atoms: N1_3  and  C2_4 
REMARK    3  A    between atoms: C6_8  and  O2_9 
REMARK    4  A    between atoms: C12_15  and  N2_16 
REMARK    5  A    between atoms: N2_16  and  C13_17 
REMARK    6  A    between atoms: N2_16  and  C15_20 
REMARK    7  A    between atoms: C13_17  and  C14_18 
REMARK    8  A    between atoms: C15_20  and  C16_21 
ROOT
HETATM    1  C9  UNL     1      26.763   5.288  49.038  1.00  0.00     0.032 A 
HETATM    2  C10 UNL     1      28.036   5.034  48.556  1.00  0.00     0.019 A 
HETATM    3  C11 UNL     1      28.719   6.083  47.982  1.00  0.00     0.030 A 
HETATM    4  C12 UNL     1      28.292   7.373  47.823  1.00  0.00     0.030 A 
HETATM    5  C17 UNL     1      27.027   7.568  48.319  1.00  0.00     0.030 A 
HETATM    6  C18 UNL     1      26.284   6.572  48.905  1.00  0.00     0.019 A 
ENDROOT
BRANCH   1   7
HETATM    7  C1  UNL     1      26.042   4.181  49.649  1.00  0.00     0.256 C 
HETATM    8  O1  UNL     1      24.988   3.796  49.115  1.00  0.00    -0.267 OA
HETATM    9  N1  UNL     1      26.417   3.489  50.797  1.00  0.00    -0.323 N 
HETATM   10  H1  UNL     1      27.312   3.881  51.174  1.00  0.00     0.169 HD
BRANCH   9  11
HETATM   11  C2  UNL     1      25.873   2.416  51.527  1.00  0.00     0.034 C 
HETATM   12  C3  UNL     1      24.717   2.411  52.171  1.00  0.00     0.029 C 
HETATM   13  C4  UNL     1      23.980   1.415  52.978  1.00  0.00     0.001 C 
HETATM   14  C5  UNL     1      24.600   0.426  53.612  1.00  0.00     0.008 C 
HETATM   15  C6  UNL     1      26.010   0.019  53.729  1.00  0.00     0.164 C 
HETATM   16  C7  UNL     1      26.763   0.209  52.464  1.00  0.00     0.011 C 
HETATM   17  C8  UNL     1      26.709   1.195  51.554  1.00  0.00     0.028 C 
BRANCH  15  18
HETATM   18  O2  UNL     1      26.100  -1.309  54.121  1.00  0.00    -0.388 OA
HETATM   19  H6  UNL     1      26.563  -1.816  53.402  1.00  0.00     0.210 HD
ENDBRANCH  15  18
ENDBRANCH   9  11
ENDBRANCH   1   7
BRANCH   4  20
HETATM   20  N2  UNL     1      29.016   8.450  47.257  1.00  0.00    -0.379 N 
BRANCH  20  21
HETATM   21  C13 UNL     1      29.588   9.649  47.720  1.00  0.00     0.138 C 
BRANCH  21  22
HETATM   22  C14 UNL     1      30.012   9.733  49.162  1.00  0.00     0.134 C 
HETATM   23 CL1  UNL     1      31.350   8.505  49.329  1.00  0.00    -0.129 Cl
ENDBRANCH  21  22
ENDBRANCH  20  21
BRANCH  20  24
HETATM   24  C15 UNL     1      29.304   8.415  45.840  1.00  0.00     0.138 C 
BRANCH  24  25
HETATM   25  C16 UNL     1      30.778   8.508  45.533  1.00  0.00     0.134 C 
HETATM   26 CL2  UNL     1      31.629   7.016  46.046  1.00  0.00    -0.129 Cl
ENDBRANCH  24  25
ENDBRANCH  20  24
ENDBRANCH   4  20
TORSDOF 8
ENDMDL
MODEL 5
REMARK VINA RESULT:      -7.0      4.536      9.364
REMARK  8 active torsions:
REMARK  status: ('A' for Active; 'I' for Inactive)
REMARK       I    between atoms: C1_2  and  N1_3 
REMARK    1  A    between atoms: C1_2  and  C9_12 
REMARK    2  A    between atoms: N1_3  and  C2_4 
REMARK    3  A    between atoms: C6_8  and  O2_9 
REMARK    4  A    between atoms: C12_15  and  N2_16 
REMARK    5  A    between atoms: N2_16  and  C13_17 
REMARK    6  A    between atoms: N2_16  and  C15_20 
REMARK    7  A    between atoms: C13_17  and  C14_18 
REMARK    8  A    between atoms: C15_20  and  C16_21 
ROOT
HETATM    1  C9  UNL     1      22.477   0.036  53.573  1.00  0.00     0.032 A 
HETATM    2  C10 UNL     1      23.222   0.840  52.727  1.00  0.00     0.019 A 
HETATM    3  C11 UNL     1      24.593   0.792  52.848  1.00  0.00     0.030 A 
HETATM    4  C12 UNL     1      25.330   0.034  53.716  1.00  0.00     0.030 A 
HETATM    5  C17 UNL     1      24.542  -0.743  54.529  1.00  0.00     0.030 A 
HETATM    6  C18 UNL     1      23.169  -0.748  54.468  1.00  0.00     0.019 A 
ENDROOT
BRANCH   1   7
HETATM    7  C1  UNL     1      21.028   0.084  53.442  1.00  0.00     0.256 C 
HETATM    8  O1  UNL     1      20.354   0.375  54.445  1.00  0.00    -0.267 OA
HETATM    9  N1  UNL     1      20.298  -0.168  52.284  1.00  0.00    -0.323 N 
HETATM   10  H1  UNL     1      20.947  -0.403  51.498  1.00  0.00     0.169 HD
BRANCH   9  11
HETATM   11  C2  UNL     1      18.929  -0.171  51.959  1.00  0.00     0.034 C 
HETATM   12  C3  UNL     1      17.981  -0.867  52.565  1.00  0.00     0.029 C 
HETATM   13  C4  UNL     1      16.520  -1.010  52.385  1.00  0.00     0.001 C 
HETATM   14  C5  UNL     1      15.930  -0.787  51.215  1.00  0.00     0.008 C 
HETATM   15  C6  UNL     1      16.423  -0.382  49.889  1.00  0.00     0.164 C 
HETATM   16  C7  UNL     1      17.524   0.609  49.970  1.00  0.00     0.011 C 
HETATM   17  C8  UNL     1      18.558   0.700  50.822  1.00  0.00     0.028 C 
BRANCH  15  18
HETATM   18  O2  UNL     1      15.389   0.143  49.127  1.00  0.00    -0.388 OA
HETATM   19  H6  UNL     1      14.527  -0.173  49.508  1.00  0.00     0.210 HD
ENDBRANCH  15  18
ENDBRANCH   9  11
ENDBRANCH   1   7
BRANCH   4  20
HETATM   20  N2  UNL     1      26.742  -0.029  53.812  1.00  0.00    -0.379 N 
BRANCH  20  21
HETATM   21  C13 UNL     1      27.718   0.354  54.750  1.00  0.00     0.138 C 
BRANCH  21  22
HETATM   22  C14 UNL     1      29.051   0.834  54.243  1.00  0.00     0.134 C 
HETATM   23 CL1  UNL     1      28.762   2.559  53.726  1.00  0.00    -0.129 Cl
ENDBRANCH  21  22
ENDBRANCH  20  21
BRANCH  20  24
HETATM   24  C15 UNL     1      27.479  -0.624  52.719  1.00  0.00     0.138 C 
BRANCH  24  25
HETATM   25  C16 UNL     1      27.355  -2.126  52.671  1.00  0.00     0.134 C 
HETATM   26 CL2  UNL     1      28.895  -2.907  53.153  1.00  0.00    -0.129 Cl
ENDBRANCH  24  25
ENDBRANCH  20  24
ENDBRANCH   4  20
TORSDOF 8
ENDMDL
MODEL 6
REMARK VINA RESULT:      -7.0      7.786     10.961
REMARK  8 active torsions:
REMARK  status: ('A' for Active; 'I' for Inactive)
REMARK       I    between atoms: C1_2  and  N1_3 
REMARK    1  A    between atoms: C1_2  and  C9_12 
REMARK    2  A    between atoms: N1_3  and  C2_4 
REMARK    3  A    between atoms: C6_8  and  O2_9 
REMARK    4  A    between atoms: C12_15  and  N2_16 
REMARK    5  A    between atoms: N2_16  and  C13_17 
REMARK    6  A    between atoms: N2_16  and  C15_20 
REMARK    7  A    between atoms: C13_17  and  C14_18 
REMARK    8  A    between atoms: C15_20  and  C16_21 
ROOT
HETATM    1  C9  UNL     1      26.749   5.336  49.135  1.00  0.00     0.032 A 
HETATM    2  C10 UNL     1      27.988   5.119  48.556  1.00  0.00     0.019 A 
HETATM    3  C11 UNL     1      28.647   6.211  48.037  1.00  0.00     0.030 A 
HETATM    4  C12 UNL     1      28.226   7.512  48.020  1.00  0.00     0.030 A 
HETATM    5  C17 UNL     1      26.995   7.669  48.606  1.00  0.00     0.030 A 
HETATM    6  C18 UNL     1      26.277   6.629  49.145  1.00  0.00     0.019 A 
ENDROOT
BRANCH   1   7
HETATM    7  C1  UNL     1      26.054   4.183  49.688  1.00  0.00     0.256 C 
HETATM    8  O1  UNL     1      25.061   3.745  49.081  1.00  0.00    -0.267 OA
HETATM    9  N1  UNL     1      26.391   3.500  50.852  1.00  0.00    -0.323 N 
HETATM   10  H1  UNL     1      27.234   3.937  51.291  1.00  0.00     0.169 HD
BRANCH   9  11
HETATM   11  C2  UNL     1      25.862   2.390  51.536  1.00  0.00     0.034 C 
HETATM   12  C3  UNL     1      24.673   2.317  52.113  1.00  0.00     0.029 C 
HETATM   13  C4  UNL     1      23.943   1.272  52.864  1.00  0.00     0.001 C 
HETATM   14  C5  UNL     1      24.576   0.305  53.519  1.00  0.00     0.008 C 
HETATM   15  C6  UNL     1      25.996  -0.033  53.710  1.00  0.00     0.164 C 
HETATM   16  C7  UNL     1      26.808   0.215  52.493  1.00  0.00     0.011 C 
HETATM   17  C8  UNL     1      26.755   1.212  51.594  1.00  0.00     0.028 C 
BRANCH  15  18
HETATM   18  O2  UNL     1      26.131  -1.361  54.088  1.00  0.00    -0.388 OA
HETATM   19  H6  UNL     1      26.618  -1.844  53.368  1.00  0.00     0.210 HD
ENDBRANCH  15  18
ENDBRANCH   9  11
ENDBRANCH   1   7
BRANCH   4  20
HETATM   20  N2  UNL     1      28.927   8.631  47.509  1.00  0.00    -0.379 N 
BRANCH  20  21
HETATM   21  C13 UNL     1      29.038   9.285  46.268  1.00  0.00     0.138 C 
BRANCH  21  22
HETATM   22  C14 UNL     1      29.000   8.455  45.013  1.00  0.00     0.134 C 
HETATM   23 CL1  UNL     1      27.259   8.504  44.471  1.00  0.00    -0.129 Cl
ENDBRANCH  21  22
ENDBRANCH  20  21
BRANCH  20  24
HETATM   24  C15 UNL     1      29.781   9.377  48.407  1.00  0.00     0.138 C 
BRANCH  24  25
HETATM   25  C16 UNL     1      31.228   8.959  48.331  1.00  0.00     0.134 C 
HETATM   26 CL2  UNL     1      31.611   7.763  49.611  1.00  0.00    -0.129 Cl
ENDBRANCH  24  25
ENDBRANCH  20  24
ENDBRANCH   4  20
TORSDOF 8
ENDMDL
MODEL 7
REMARK VINA RESULT:      -6.9      5.165      6.204
REMARK  8 active torsions:
REMARK  status: ('A' for Active; 'I' for Inactive)
REMARK       I    between atoms: C1_2  and  N1_3 
REMARK    1  A    between atoms: C1_2  and  C9_12 
REMARK    2  A    between atoms: N1_3  and  C2_4 
REMARK    3  A    between atoms: C6_8  and  O2_9 
REMARK    4  A    between atoms: C12_15  and  N2_16 
REMARK    5  A    between atoms: N2_16  and  C13_17 
REMARK    6  A    between atoms: N2_16  and  C15_20 
REMARK    7  A    between atoms: C13_17  and  C14_18 
REMARK    8  A    between atoms: C15_20  and  C16_21 
ROOT
HETATM    1  C9  UNL     1      24.413   3.225  51.268  1.00  0.00     0.032 A 
HETATM    2  C10 UNL     1      23.678   4.256  51.829  1.00  0.00     0.019 A 
HETATM    3  C11 UNL     1      22.930   5.039  50.978  1.00  0.00     0.030 A 
HETATM    4  C12 UNL     1      22.816   4.926  49.620  1.00  0.00     0.030 A 
HETATM    5  C17 UNL     1      23.563   3.889  49.118  1.00  0.00     0.030 A 
HETATM    6  C18 UNL     1      24.334   3.066  49.903  1.00  0.00     0.019 A 
ENDROOT
BRANCH   1   7
HETATM    7  C1  UNL     1      25.201   2.395  52.167  1.00  0.00     0.256 C 
HETATM    8  O1  UNL     1      25.027   2.521  53.392  1.00  0.00    -0.267 OA
HETATM    9  N1  UNL     1      26.152   1.450  51.794  1.00  0.00    -0.323 N 
HETATM   10  H1  UNL     1      26.228   1.414  50.750  1.00  0.00     0.169 HD
BRANCH   9  11
HETATM   11  C2  UNL     1      26.996   0.567  52.491  1.00  0.00     0.034 C 
HETATM   12  C3  UNL     1      28.175   0.859  53.017  1.00  0.00     0.029 C 
HETATM   13  C4  UNL     1      29.195   0.099  53.771  1.00  0.00     0.001 C 
HETATM   14  C5  UNL     1      29.314  -1.220  53.659  1.00  0.00     0.008 C 
HETATM   15  C6  UNL     1      28.598  -2.243  52.879  1.00  0.00     0.164 C 
HETATM   16  C7  UNL     1      27.142  -1.969  52.784  1.00  0.00     0.011 C 
HETATM   17  C8  UNL     1      26.478  -0.813  52.625  1.00  0.00     0.028 C 
BRANCH  15  18
HETATM   18  O2  UNL     1      28.793  -3.500  53.434  1.00  0.00    -0.388 OA
HETATM   19  H6  UNL     1      29.639  -3.874  53.073  1.00  0.00     0.210 HD
ENDBRANCH  15  18
ENDBRANCH   9  11
ENDBRANCH   1   7
BRANCH   4  20
HETATM   20  N2  UNL     1      22.019   5.719  48.759  1.00  0.00    -0.379 N 
BRANCH  20  21
HETATM   21  C13 UNL     1      20.782   6.385  48.839  1.00  0.00     0.138 C 
BRANCH  21  22
HETATM   22  C14 UNL     1      19.653   5.714  49.574  1.00  0.00     0.134 C 
HETATM   23 CL1  UNL     1      19.561   4.037  48.864  1.00  0.00    -0.129 Cl
ENDBRANCH  21  22
ENDBRANCH  20  21
BRANCH  20  24
HETATM   24  C15 UNL     1      22.506   5.984  47.422  1.00  0.00     0.138 C 
BRANCH  24  25
HETATM   25  C16 UNL     1      21.574   5.490  46.345  1.00  0.00     0.134 C 
HETATM   26 CL2  UNL     1      22.036   3.841  45.812  1.00  0.00    -0.129 Cl
ENDBRANCH  24  25
ENDBRANCH  20  24
ENDBRANCH   4  20
TORSDOF 8
ENDMDL
MODEL 8
REMARK VINA RESULT:      -6.8      5.556      6.898
REMARK  8 active torsions:
REMARK  status: ('A' for Active; 'I' for Inactive)
REMARK       I    between atoms: C1_2  and  N1_3 
REMARK    1  A    between atoms: C1_2  and  C9_12 
REMARK    2  A    between atoms: N1_3  and  C2_4 
REMARK    3  A    between atoms: C6_8  and  O2_9 
REMARK    4  A    between atoms: C12_15  and  N2_16 
REMARK    5  A    between atoms: N2_16  and  C13_17 
REMARK    6  A    between atoms: N2_16  and  C15_20 
REMARK    7  A    between atoms: C13_17  and  C14_18 
REMARK    8  A    between atoms: C15_20  and  C16_21 
ROOT
HETATM    1  C9  UNL     1      24.643   3.374  51.386  1.00  0.00     0.032 A 
HETATM    2  C10 UNL     1      24.924   3.327  50.030  1.00  0.00     0.019 A 
HETATM    3  C11 UNL     1      24.298   4.247  49.219  1.00  0.00     0.030 A 
HETATM    4  C12 UNL     1      23.413   5.223  49.588  1.00  0.00     0.030 A 
HETATM    5  C17 UNL     1      23.172   5.225  50.939  1.00  0.00     0.030 A 
HETATM    6  C18 UNL     1      23.758   4.339  51.811  1.00  0.00     0.019 A 
ENDROOT
BRANCH   1   7
HETATM    7  C1  UNL     1      25.308   2.406  52.244  1.00  0.00     0.256 C 
HETATM    8  O1  UNL     1      24.853   2.218  53.385  1.00  0.00    -0.267 OA
HETATM    9  N1  UNL     1      26.427   1.647  51.915  1.00  0.00    -0.323 N 
HETATM   10  H1  UNL     1      26.736   1.871  50.940  1.00  0.00     0.169 HD
BRANCH   9  11
HETATM   11  C2  UNL     1      27.198   0.680  52.585  1.00  0.00     0.034 C 
HETATM   12  C3  UNL     1      28.384   0.869  53.142  1.00  0.00     0.029 C 
HETATM   13  C4  UNL     1      29.338   0.010  53.876  1.00  0.00     0.001 C 
HETATM   14  C5  UNL     1      29.372  -1.308  53.706  1.00  0.00     0.008 C 
HETATM   15  C6  UNL     1      28.605  -2.246  52.871  1.00  0.00     0.164 C 
HETATM   16  C7  UNL     1      27.172  -1.871  52.765  1.00  0.00     0.011 C 
HETATM   17  C8  UNL     1      26.589  -0.668  52.648  1.00  0.00     0.028 C 
BRANCH  15  18
HETATM   18  O2  UNL     1      28.705  -3.536  53.372  1.00  0.00    -0.388 OA
HETATM   19  H6  UNL     1      29.479  -3.981  52.936  1.00  0.00     0.210 HD
ENDBRANCH  15  18
ENDBRANCH   9  11
ENDBRANCH   1   7
BRANCH   4  20
HETATM   20  N2  UNL     1      22.798   6.182  48.747  1.00  0.00    -0.379 N 
BRANCH  20  21
HETATM   21  C13 UNL     1      21.818   6.174  47.737  1.00  0.00     0.138 C 
BRANCH  21  22
HETATM   22  C14 UNL     1      20.548   5.402  47.975  1.00  0.00     0.134 C 
HETATM   23 CL1  UNL     1      19.765   6.218  49.405  1.00  0.00    -0.129 Cl
ENDBRANCH  21  22
ENDBRANCH  20  21
BRANCH  20  24
HETATM   24  C15 UNL     1      23.199   7.566  48.873  1.00  0.00     0.138 C 
BRANCH  24  25
HETATM   25  C16 UNL     1      24.670   7.781  48.615  1.00  0.00     0.134 C 
HETATM   26 CL2  UNL     1      25.575   7.900  50.157  1.00  0.00    -0.129 Cl
ENDBRANCH  24  25
ENDBRANCH  20  24
ENDBRANCH   4  20
TORSDOF 8
ENDMDL
MODEL 9
REMARK VINA RESULT:      -6.8      5.653      6.878
REMARK  8 active torsions:
REMARK  status: ('A' for Active; 'I' for Inactive)
REMARK       I    between atoms: C1_2  and  N1_3 
REMARK    1  A    between atoms: C1_2  and  C9_12 
REMARK    2  A    between atoms: N1_3  and  C2_4 
REMARK    3  A    between atoms: C6_8  and  O2_9 
REMARK    4  A    between atoms: C12_15  and  N2_16 
REMARK    5  A    between atoms: N2_16  and  C13_17 
REMARK    6  A    between atoms: N2_16  and  C15_20 
REMARK    7  A    between atoms: C13_17  and  C14_18 
REMARK    8  A    between atoms: C15_20  and  C16_21 
ROOT
HETATM    1  C9  UNL     1      24.482   3.188  51.232  1.00  0.00     0.032 A 
HETATM    2  C10 UNL     1      24.980   3.346  49.950  1.00  0.00     0.019 A 
HETATM    3  C11 UNL     1      24.272   4.153  49.088  1.00  0.00     0.030 A 
HETATM    4  C12 UNL     1      23.112   4.833  49.340  1.00  0.00     0.030 A 
HETATM    5  C17 UNL     1      22.664   4.641  50.623  1.00  0.00     0.030 A 
HETATM    6  C18 UNL     1      23.316   3.852  51.540  1.00  0.00     0.019 A 
ENDROOT
BRANCH   1   7
HETATM    7  C1  UNL     1      25.233   2.340  52.146  1.00  0.00     0.256 C 
HETATM    8  O1  UNL     1      24.970   2.401  53.359  1.00  0.00    -0.267 OA
HETATM    9  N1  UNL     1      26.240   1.444  51.797  1.00  0.00    -0.323 N 
HETATM   10  H1  UNL     1      26.389   1.462  50.761  1.00  0.00     0.169 HD
BRANCH   9  11
HETATM   11  C2  UNL     1      27.063   0.555  52.511  1.00  0.00     0.034 C 
HETATM   12  C3  UNL     1      28.221   0.844  53.082  1.00  0.00     0.029 C 
HETATM   13  C4  UNL     1      29.218   0.077  53.860  1.00  0.00     0.001 C 
HETATM   14  C5  UNL     1      29.347  -1.239  53.733  1.00  0.00     0.008 C 
HETATM   15  C6  UNL     1      28.665  -2.254  52.914  1.00  0.00     0.164 C 
HETATM   16  C7  UNL     1      27.212  -1.985  52.772  1.00  0.00     0.011 C 
HETATM   17  C8  UNL     1      26.548  -0.829  52.606  1.00  0.00     0.028 C 
BRANCH  15  18
HETATM   18  O2  UNL     1      28.845  -3.517  53.457  1.00  0.00    -0.388 OA
HETATM   19  H6  UNL     1      29.808  -3.754  53.388  1.00  0.00     0.210 HD
ENDBRANCH  15  18
ENDBRANCH   9  11
ENDBRANCH   1   7
BRANCH   4  20
HETATM   20  N2  UNL     1      22.408   5.682  48.453  1.00  0.00    -0.379 N 
BRANCH  20  21
HETATM   21  C13 UNL     1      22.730   6.509  47.360  1.00  0.00     0.138 C 
BRANCH  21  22
HETATM   22  C14 UNL     1      23.916   7.428  47.481  1.00  0.00     0.134 C 
HETATM   23 CL1  UNL     1      24.266   7.967  45.774  1.00  0.00    -0.129 Cl
ENDBRANCH  21  22
ENDBRANCH  20  21
BRANCH  20  24
HETATM   24  C15 UNL     1      20.976   5.810  48.614  1.00  0.00     0.138 C 
BRANCH  24  25
HETATM   25  C16 UNL     1      20.531   7.233  48.844  1.00  0.00     0.134 C 
HETATM   26 CL2  UNL     1      21.164   7.853  50.402  1.00  0.00    -0.129 Cl
ENDBRANCH  24  25
ENDBRANCH  20  24
ENDBRANCH   4  20
TORSDOF 8
ENDMDL
