MODEL 1
REMARK VINA RESULT:      -7.7      0.000      0.000
REMARK  10 active torsions:
REMARK  status: ('A' for Active; 'I' for Inactive)
REMARK    1  A    between atoms: C6_10  and  C7_11 
REMARK    2  A    between atoms: C7_11  and  C8_12 
REMARK    3  A    between atoms: C8_12  and  N5_13 
REMARK    4  A    between atoms: C12_17  and  N6_18 
REMARK    5  A    between atoms: N6_18  and  C13_19 
REMARK    6  A    between atoms: C13_19  and  C14_20 
REMARK    7  A    between atoms: C15_21  and  N7_22 
REMARK    8  A    between atoms: C15_21  and  C16_23 
REMARK    9  A    between atoms: C16_23  and  C17_24 
REMARK   10  A    between atoms: C17_24  and  P1_25 
ROOT
HETATM    1  C1  UNL     1      21.858  -1.885  54.330  1.00  0.00     0.159 C 
HETATM    2  N1  UNL     1      21.890  -0.668  53.564  1.00  0.00    -0.329 N 
HETATM    3  C2  UNL     1      20.901  -0.058  52.895  1.00  0.00     0.211 A 
HETATM    4  N2  UNL     1      21.460   1.037  52.357  1.00  0.00    -0.238 NA
HETATM    5  C3  UNL     1      22.783   1.126  52.676  1.00  0.00     0.126 A 
HETATM    6  C4  UNL     1      23.046   0.000  53.466  1.00  0.00     0.158 A 
HETATM    7  N3  UNL     1      24.248  -0.025  53.817  1.00  0.00    -0.240 NA
HETATM    8  C5  UNL     1      25.079  -0.845  54.566  1.00  0.00     0.420 C 
HETATM    9  N4  UNL     1      26.426  -0.397  54.653  1.00  0.00     0.107 NA
HETATM   10  C6  UNL     1      27.154  -0.428  53.462  1.00  0.00     0.224 C 
HETATM   11  C9  UNL     1      27.164   0.687  52.500  1.00  0.00     0.036 C 
HETATM   12  C10 UNL     1      25.888   1.124  51.879  1.00  0.00     0.008 C 
HETATM   13  C11 UNL     1      25.036   1.971  52.765  1.00  0.00     0.059 C 
HETATM   14  C12 UNL     1      23.641   2.088  52.283  1.00  0.00     0.038 C 
HETATM   15  H7  UNL     1      26.488   0.487  55.165  1.00  0.00     0.318 HD
ENDROOT
BRANCH  14  16
HETATM   16  N6  UNL     1      23.186   3.108  51.413  1.00  0.00    -0.388 N 
HETATM   17  H21 UNL     1      23.582   3.011  50.448  1.00  0.00     0.159 HD
BRANCH  16  18
HETATM   18  C13 UNL     1      22.288   4.218  51.663  1.00  0.00     0.148 C 
BRANCH  18  19
HETATM   19  C14 UNL     1      22.982   5.516  51.660  1.00  0.00     0.018 C 
HETATM   20  C15 UNL     1      23.575   6.503  51.046  1.00  0.00     0.011 C 
BRANCH  20  21
HETATM   21  N7  UNL     1      24.174   7.716  51.492  1.00  0.00    -0.402 N 
HETATM   22  H25 UNL     1      24.475   7.281  52.384  1.00  0.00     0.156 HD
HETATM   23  H26 UNL     1      24.035   8.436  50.747  1.00  0.00     0.156 HD
ENDBRANCH  20  21
BRANCH  20  24
HETATM   24  C16 UNL     1      23.649   6.344  49.565  1.00  0.00     0.142 C 
BRANCH  24  25
HETATM   25  C17 UNL     1      25.000   6.093  49.229  1.00  0.00    -0.133 C 
BRANCH  25  26
HETATM   26  P1  UNL     1      26.266   5.840  48.897  1.00  0.00     0.040 P 
HETATM   27 CL1  UNL     1      28.838   5.323  48.273  1.00  0.00    -0.086 Cl
HETATM   28  H29 UNL     1      26.823   5.734  48.741  1.00  0.00     0.087 HD
ENDBRANCH  25  26
ENDBRANCH  24  25
ENDBRANCH  20  24
ENDBRANCH  18  19
ENDBRANCH  16  18
ENDBRANCH  14  16
BRANCH  10  29
HETATM   29  C7  UNL     1      28.614  -0.726  53.883  1.00  0.00     0.065 C 
BRANCH  29  30
HETATM   30  C8  UNL     1      29.266  -1.829  53.164  1.00  0.00     0.269 C 
BRANCH  30  31
HETATM   31  N5  UNL     1      28.620  -3.105  53.224  1.00  0.00     0.078 N 
HETATM   32  H13 UNL     1      28.163  -3.344  54.109  1.00  0.00     0.312 HD
HETATM   33  H14 UNL     1      29.178  -3.900  52.906  1.00  0.00     0.312 HD
ENDBRANCH  30  31
ENDBRANCH  29  30
ENDBRANCH  10  29
TORSDOF 10
ENDMDL
MODEL 2
REMARK VINA RESULT:      -7.6      2.180      2.268
REMARK  10 active torsions:
REMARK  status: ('A' for Active; 'I' for Inactive)
REMARK    1  A    between atoms: C6_10  and  C7_11 
REMARK    2  A    between atoms: C7_11  and  C8_12 
REMARK    3  A    between atoms: C8_12  and  N5_13 
REMARK    4  A    between atoms: C12_17  and  N6_18 
REMARK    5  A    between atoms: N6_18  and  C13_19 
REMARK    6  A    between atoms: C13_19  and  C14_20 
REMARK    7  A    between atoms: C15_21  and  N7_22 
REMARK    8  A    between atoms: C15_21  and  C16_23 
REMARK    9  A    between atoms: C16_23  and  C17_24 
REMARK   10  A    between atoms: C17_24  and  P1_25 
ROOT
HETATM    1  C1  UNL     1      22.161  -1.376  53.490  1.00  0.00     0.159 C 
HETATM    2  N1  UNL     1      22.358  -0.013  53.074  1.00  0.00    -0.329 N 
HETATM    3  C2  UNL     1      21.484   0.843  52.524  1.00  0.00     0.211 A 
HETATM    4  N2  UNL     1      22.174   1.977  52.331  1.00  0.00    -0.238 NA
HETATM    5  C3  UNL     1      23.466   1.851  52.750  1.00  0.00     0.126 A 
HETATM    6  C4  UNL     1      23.567   0.540  53.233  1.00  0.00     0.158 A 
HETATM    7  N3  UNL     1      24.727   0.307  53.645  1.00  0.00    -0.240 NA
HETATM    8  C5  UNL     1      25.419  -0.757  54.207  1.00  0.00     0.420 C 
HETATM    9  N4  UNL     1      26.783  -0.481  54.499  1.00  0.00     0.107 NA
HETATM   10  C6  UNL     1      27.611  -0.280  53.393  1.00  0.00     0.224 C 
HETATM   11  C9  UNL     1      27.796   1.037  52.761  1.00  0.00     0.036 C 
HETATM   12  C10 UNL     1      26.620   1.743  52.192  1.00  0.00     0.008 C 
HETATM   13  C11 UNL     1      25.760   2.417  53.209  1.00  0.00     0.059 C 
HETATM   14  C12 UNL     1      24.429   2.791  52.682  1.00  0.00     0.038 C 
HETATM   15  H7  UNL     1      26.868   0.232  55.228  1.00  0.00     0.318 HD
ENDROOT
BRANCH  14  16
HETATM   16  N6  UNL     1      24.136   4.039  52.082  1.00  0.00    -0.388 N 
HETATM   17  H21 UNL     1      23.769   4.735  52.773  1.00  0.00     0.159 HD
BRANCH  16  18
HETATM   18  C13 UNL     1      24.269   4.467  50.704  1.00  0.00     0.148 C 
BRANCH  18  19
HETATM   19  C14 UNL     1      25.100   5.674  50.566  1.00  0.00     0.018 C 
HETATM   20  C15 UNL     1      25.263   6.969  50.600  1.00  0.00     0.011 C 
BRANCH  20  21
HETATM   21  N7  UNL     1      26.382   7.821  50.372  1.00  0.00    -0.402 N 
HETATM   22  H25 UNL     1      25.781   8.666  50.360  1.00  0.00     0.156 HD
HETATM   23  H26 UNL     1      27.238   7.223  50.328  1.00  0.00     0.156 HD
ENDBRANCH  20  21
BRANCH  20  24
HETATM   24  C16 UNL     1      24.030   7.731  50.949  1.00  0.00     0.142 C 
BRANCH  24  25
HETATM   25  C17 UNL     1      23.401   8.105  49.738  1.00  0.00    -0.133 C 
BRANCH  25  26
HETATM   26  P1  UNL     1      22.800   8.434  48.595  1.00  0.00     0.040 P 
HETATM   27 CL1  UNL     1      21.628   9.118  46.265  1.00  0.00    -0.086 Cl
HETATM   28  H29 UNL     1      22.526   8.579  48.095  1.00  0.00     0.087 HD
ENDBRANCH  25  26
ENDBRANCH  24  25
ENDBRANCH  20  24
ENDBRANCH  18  19
ENDBRANCH  16  18
ENDBRANCH  14  16
BRANCH  10  29
HETATM   29  C7  UNL     1      28.999  -0.819  53.818  1.00  0.00     0.065 C 
BRANCH  29  30
HETATM   30  C8  UNL     1      29.367  -2.128  53.260  1.00  0.00     0.269 C 
BRANCH  30  31
HETATM   31  N5  UNL     1      28.312  -3.086  53.125  1.00  0.00     0.078 N 
HETATM   32  H13 UNL     1      28.451  -3.824  52.430  1.00  0.00     0.312 HD
HETATM   33  H14 UNL     1      27.371  -2.698  53.024  1.00  0.00     0.312 HD
ENDBRANCH  30  31
ENDBRANCH  29  30
ENDBRANCH  10  29
TORSDOF 10
ENDMDL
MODEL 3
REMARK VINA RESULT:      -7.6      1.927      2.094
REMARK  10 active torsions:
REMARK  status: ('A' for Active; 'I' for Inactive)
REMARK    1  A    between atoms: C6_10  and  C7_11 
REMARK    2  A    between atoms: C7_11  and  C8_12 
REMARK    3  A    between atoms: C8_12  and  N5_13 
REMARK    4  A    between atoms: C12_17  and  N6_18 
REMARK    5  A    between atoms: N6_18  and  C13_19 
REMARK    6  A    between atoms: C13_19  and  C14_20 
REMARK    7  A    between atoms: C15_21  and  N7_22 
REMARK    8  A    between atoms: C15_21  and  C16_23 
REMARK    9  A    between atoms: C16_23  and  C17_24 
REMARK   10  A    between atoms: C17_24  and  P1_25 
ROOT
HETATM    1  C1  UNL     1      22.107  -1.603  54.095  1.00  0.00     0.159 C 
HETATM    2  N1  UNL     1      22.202  -0.345  53.405  1.00  0.00    -0.329 N 
HETATM    3  C2  UNL     1      21.244   0.360  52.786  1.00  0.00     0.211 A 
HETATM    4  N2  UNL     1      21.859   1.453  52.309  1.00  0.00    -0.238 NA
HETATM    5  C3  UNL     1      23.188   1.447  52.617  1.00  0.00     0.126 A 
HETATM    6  C4  UNL     1      23.394   0.262  53.334  1.00  0.00     0.158 A 
HETATM    7  N3  UNL     1      24.595   0.147  53.669  1.00  0.00    -0.240 NA
HETATM    8  C5  UNL     1      25.384  -0.764  54.357  1.00  0.00     0.420 C 
HETATM    9  N4  UNL     1      26.755  -0.398  54.455  1.00  0.00     0.107 NA
HETATM   10  C6  UNL     1      27.470  -0.397  53.255  1.00  0.00     0.224 C 
HETATM   11  C9  UNL     1      27.535   0.773  52.363  1.00  0.00     0.036 C 
HETATM   12  C10 UNL     1      26.281   1.319  51.785  1.00  0.00     0.008 C 
HETATM   13  C11 UNL     1      25.486   2.157  52.731  1.00  0.00     0.059 C 
HETATM   14  C12 UNL     1      24.097   2.382  52.274  1.00  0.00     0.038 C 
HETATM   15  H7  UNL     1      26.872   0.448  55.018  1.00  0.00     0.318 HD
ENDROOT
BRANCH  14  16
HETATM   16  N6  UNL     1      23.694   3.477  51.473  1.00  0.00    -0.388 N 
HETATM   17  H21 UNL     1      23.256   4.242  52.039  1.00  0.00     0.159 HD
BRANCH  16  18
HETATM   18  C13 UNL     1      23.799   3.677  50.041  1.00  0.00     0.148 C 
BRANCH  18  19
HETATM   19  C14 UNL     1      25.160   4.051  49.623  1.00  0.00     0.018 C 
HETATM   20  C15 UNL     1      26.111   4.929  49.452  1.00  0.00     0.011 C 
BRANCH  20  21
HETATM   21  N7  UNL     1      27.443   4.844  48.956  1.00  0.00    -0.402 N 
HETATM   22  H25 UNL     1      27.837   5.181  49.854  1.00  0.00     0.156 HD
HETATM   23  H26 UNL     1      27.399   4.499  47.970  1.00  0.00     0.156 HD
ENDBRANCH  20  21
BRANCH  20  24
HETATM   24  C16 UNL     1      25.742   6.316  49.855  1.00  0.00     0.142 C 
BRANCH  24  25
HETATM   25  C17 UNL     1      25.315   7.000  48.692  1.00  0.00    -0.133 C 
BRANCH  25  26
HETATM   26  P1  UNL     1      24.895   7.655  47.609  1.00  0.00     0.040 P 
HETATM   27 CL1  UNL     1      24.061   9.021  45.440  1.00  0.00    -0.086 Cl
HETATM   28  H29 UNL     1      24.704   7.935  47.129  1.00  0.00     0.087 HD
ENDBRANCH  25  26
ENDBRANCH  24  25
ENDBRANCH  20  24
ENDBRANCH  18  19
ENDBRANCH  16  18
ENDBRANCH  14  16
BRANCH  10  29
HETATM   29  C7  UNL     1      28.914  -0.802  53.640  1.00  0.00     0.065 C 
BRANCH  29  30
HETATM   30  C8  UNL     1      29.280  -2.194  53.343  1.00  0.00     0.269 C 
BRANCH  30  31
HETATM   31  N5  UNL     1      28.204  -3.089  53.041  1.00  0.00     0.078 N 
HETATM   32  H13 UNL     1      28.214  -3.520  52.112  1.00  0.00     0.312 HD
HETATM   33  H14 UNL     1      27.265  -2.737  53.240  1.00  0.00     0.312 HD
ENDBRANCH  30  31
ENDBRANCH  29  30
ENDBRANCH  10  29
TORSDOF 10
ENDMDL
MODEL 4
REMARK VINA RESULT:      -7.5      2.826      5.259
REMARK  10 active torsions:
REMARK  status: ('A' for Active; 'I' for Inactive)
REMARK    1  A    between atoms: C6_10  and  C7_11 
REMARK    2  A    between atoms: C7_11  and  C8_12 
REMARK    3  A    between atoms: C8_12  and  N5_13 
REMARK    4  A    between atoms: C12_17  and  N6_18 
REMARK    5  A    between atoms: N6_18  and  C13_19 
REMARK    6  A    between atoms: C13_19  and  C14_20 
REMARK    7  A    between atoms: C15_21  and  N7_22 
REMARK    8  A    between atoms: C15_21  and  C16_23 
REMARK    9  A    between atoms: C16_23  and  C17_24 
REMARK   10  A    between atoms: C17_24  and  P1_25 
ROOT
HETATM    1  C1  UNL     1      28.474  -0.065  54.927  1.00  0.00     0.159 C 
HETATM    2  N1  UNL     1      28.217   0.959  53.952  1.00  0.00    -0.329 N 
HETATM    3  C2  UNL     1      29.012   1.956  53.536  1.00  0.00     0.211 A 
HETATM    4  N2  UNL     1      28.294   2.623  52.619  1.00  0.00    -0.238 NA
HETATM    5  C3  UNL     1      27.062   2.064  52.451  1.00  0.00     0.126 A 
HETATM    6  C4  UNL     1      27.030   0.976  53.333  1.00  0.00     0.158 A 
HETATM    7  N3  UNL     1      25.929   0.382  53.267  1.00  0.00    -0.240 NA
HETATM    8  C5  UNL     1      25.317  -0.710  53.865  1.00  0.00     0.420 C 
HETATM    9  N4  UNL     1      23.994  -0.965  53.410  1.00  0.00     0.107 NA
HETATM   10  C6  UNL     1      23.040  -0.003  53.751  1.00  0.00     0.224 C 
HETATM   11  C9  UNL     1      22.770   1.185  52.925  1.00  0.00     0.036 C 
HETATM   12  C10 UNL     1      23.865   2.154  52.663  1.00  0.00     0.008 C 
HETATM   13  C11 UNL     1      24.831   1.715  51.614  1.00  0.00     0.059 C 
HETATM   14  C12 UNL     1      26.088   2.496  51.625  1.00  0.00     0.038 C 
HETATM   15  H7  UNL     1      23.988  -1.236  52.423  1.00  0.00     0.318 HD
ENDROOT
BRANCH  14  16
HETATM   16  N6  UNL     1      26.297   3.672  50.867  1.00  0.00    -0.388 N 
HETATM   17  H21 UNL     1      27.229   4.109  51.061  1.00  0.00     0.159 HD
BRANCH  16  18
HETATM   18  C13 UNL     1      25.437   4.326  49.901  1.00  0.00     0.148 C 
BRANCH  18  19
HETATM   19  C14 UNL     1      24.920   5.616  50.388  1.00  0.00     0.018 C 
HETATM   20  C15 UNL     1      24.155   6.327  51.171  1.00  0.00     0.011 C 
BRANCH  20  21
HETATM   21  N7  UNL     1      23.946   7.728  51.326  1.00  0.00    -0.402 N 
HETATM   22  H25 UNL     1      24.081   7.897  50.312  1.00  0.00     0.156 HD
HETATM   23  H26 UNL     1      23.763   7.915  52.338  1.00  0.00     0.156 HD
ENDBRANCH  20  21
BRANCH  20  24
HETATM   24  C16 UNL     1      23.319   5.521  52.106  1.00  0.00     0.142 C 
BRANCH  24  25
HETATM   25  C17 UNL     1      22.124   5.183  51.428  1.00  0.00    -0.133 C 
BRANCH  25  26
HETATM   26  P1  UNL     1      20.985   4.874  50.807  1.00  0.00     0.040 P 
HETATM   27 CL1  UNL     1      18.681   4.294  49.534  1.00  0.00    -0.086 Cl
HETATM   28  H29 UNL     1      20.482   4.729  50.540  1.00  0.00     0.087 HD
ENDBRANCH  25  26
ENDBRANCH  24  25
ENDBRANCH  20  24
ENDBRANCH  18  19
ENDBRANCH  16  18
ENDBRANCH  14  16
BRANCH  10  29
HETATM   29  C7  UNL     1      21.716  -0.787  53.930  1.00  0.00     0.065 C 
BRANCH  29  30
HETATM   30  C8  UNL     1      20.488   0.009  53.798  1.00  0.00     0.269 C 
BRANCH  30  31
HETATM   31  N5  UNL     1      19.256  -0.718  53.747  1.00  0.00     0.078 N 
HETATM   32  H13 UNL     1      18.472  -0.257  53.276  1.00  0.00     0.312 HD
HETATM   33  H14 UNL     1      18.934  -1.108  54.635  1.00  0.00     0.312 HD
ENDBRANCH  30  31
ENDBRANCH  29  30
ENDBRANCH  10  29
TORSDOF 10
ENDMDL
MODEL 5
REMARK VINA RESULT:      -7.5      3.088      3.404
REMARK  10 active torsions:
REMARK  status: ('A' for Active; 'I' for Inactive)
REMARK    1  A    between atoms: C6_10  and  C7_11 
REMARK    2  A    between atoms: C7_11  and  C8_12 
REMARK    3  A    between atoms: C8_12  and  N5_13 
REMARK    4  A    between atoms: C12_17  and  N6_18 
REMARK    5  A    between atoms: N6_18  and  C13_19 
REMARK    6  A    between atoms: C13_19  and  C14_20 
REMARK    7  A    between atoms: C15_21  and  N7_22 
REMARK    8  A    between atoms: C15_21  and  C16_23 
REMARK    9  A    between atoms: C16_23  and  C17_24 
REMARK   10  A    between atoms: C17_24  and  P1_25 
ROOT
HETATM    1  C1  UNL     1      22.242  -1.345  53.623  1.00  0.00     0.159 C 
HETATM    2  N1  UNL     1      22.451   0.003  53.168  1.00  0.00    -0.329 N 
HETATM    3  C2  UNL     1      21.576   0.863  52.626  1.00  0.00     0.211 A 
HETATM    4  N2  UNL     1      22.280   1.978  52.382  1.00  0.00    -0.238 NA
HETATM    5  C3  UNL     1      23.583   1.835  52.759  1.00  0.00     0.126 A 
HETATM    6  C4  UNL     1      23.676   0.534  53.271  1.00  0.00     0.158 A 
HETATM    7  N3  UNL     1      24.844   0.287  53.648  1.00  0.00    -0.240 NA
HETATM    8  C5  UNL     1      25.534  -0.776  54.212  1.00  0.00     0.420 C 
HETATM    9  N4  UNL     1      26.913  -0.522  54.450  1.00  0.00     0.107 NA
HETATM   10  C6  UNL     1      27.706  -0.364  53.311  1.00  0.00     0.224 C 
HETATM   11  C9  UNL     1      27.895   0.933  52.640  1.00  0.00     0.036 C 
HETATM   12  C10 UNL     1      26.714   1.649  52.095  1.00  0.00     0.008 C 
HETATM   13  C11 UNL     1      25.904   2.364  53.125  1.00  0.00     0.059 C 
HETATM   14  C12 UNL     1      24.562   2.753  52.635  1.00  0.00     0.038 C 
HETATM   15  H7  UNL     1      27.038   0.207  55.157  1.00  0.00     0.318 HD
ENDROOT
BRANCH  14  16
HETATM   16  N6  UNL     1      24.273   3.992  52.014  1.00  0.00    -0.388 N 
HETATM   17  H21 UNL     1      23.765   4.647  52.654  1.00  0.00     0.159 HD
BRANCH  16  18
HETATM   18  C13 UNL     1      24.572   4.458  50.675  1.00  0.00     0.148 C 
BRANCH  18  19
HETATM   19  C14 UNL     1      23.919   3.645  49.636  1.00  0.00     0.018 C 
HETATM   20  C15 UNL     1      22.993   3.455  48.736  1.00  0.00     0.011 C 
BRANCH  20  21
HETATM   21  N7  UNL     1      22.697   2.383  47.846  1.00  0.00    -0.402 N 
HETATM   22  H25 UNL     1      23.619   1.940  48.017  1.00  0.00     0.156 HD
HETATM   23  H26 UNL     1      21.739   2.540  47.460  1.00  0.00     0.156 HD
ENDBRANCH  20  21
BRANCH  20  24
HETATM   24  C16 UNL     1      22.034   4.589  48.597  1.00  0.00     0.142 C 
BRANCH  24  25
HETATM   25  C17 UNL     1      20.900   4.290  49.389  1.00  0.00    -0.133 C 
BRANCH  25  26
HETATM   26  P1  UNL     1      19.836   3.985  50.132  1.00  0.00     0.040 P 
HETATM   27 CL1  UNL     1      17.703   3.324  51.642  1.00  0.00    -0.086 Cl
HETATM   28  H29 UNL     1      19.362   3.859  50.455  1.00  0.00     0.087 HD
ENDBRANCH  25  26
ENDBRANCH  24  25
ENDBRANCH  20  24
ENDBRANCH  18  19
ENDBRANCH  16  18
ENDBRANCH  14  16
BRANCH  10  29
HETATM   29  C7  UNL     1      29.097  -0.922  53.701  1.00  0.00     0.065 C 
BRANCH  29  30
HETATM   30  C8  UNL     1      29.349  -2.317  53.316  1.00  0.00     0.269 C 
BRANCH  30  31
HETATM   31  N5  UNL     1      28.198  -3.133  53.072  1.00  0.00     0.078 N 
HETATM   32  H13 UNL     1      27.712  -3.495  53.897  1.00  0.00     0.312 HD
HETATM   33  H14 UNL     1      28.325  -3.888  52.395  1.00  0.00     0.312 HD
ENDBRANCH  30  31
ENDBRANCH  29  30
ENDBRANCH  10  29
TORSDOF 10
ENDMDL
MODEL 6
REMARK VINA RESULT:      -7.4      2.756      5.317
REMARK  10 active torsions:
REMARK  status: ('A' for Active; 'I' for Inactive)
REMARK    1  A    between atoms: C6_10  and  C7_11 
REMARK    2  A    between atoms: C7_11  and  C8_12 
REMARK    3  A    between atoms: C8_12  and  N5_13 
REMARK    4  A    between atoms: C12_17  and  N6_18 
REMARK    5  A    between atoms: N6_18  and  C13_19 
REMARK    6  A    between atoms: C13_19  and  C14_20 
REMARK    7  A    between atoms: C15_21  and  N7_22 
REMARK    8  A    between atoms: C15_21  and  C16_23 
REMARK    9  A    between atoms: C16_23  and  C17_24 
REMARK   10  A    between atoms: C17_24  and  P1_25 
ROOT
HETATM    1  C1  UNL     1      28.323  -0.044  54.887  1.00  0.00     0.159 C 
HETATM    2  N1  UNL     1      28.047   0.983  53.919  1.00  0.00    -0.329 N 
HETATM    3  C2  UNL     1      28.841   1.970  53.478  1.00  0.00     0.211 A 
HETATM    4  N2  UNL     1      28.103   2.645  52.583  1.00  0.00    -0.238 NA
HETATM    5  C3  UNL     1      26.859   2.099  52.454  1.00  0.00     0.126 A 
HETATM    6  C4  UNL     1      26.842   1.012  53.337  1.00  0.00     0.158 A 
HETATM    7  N3  UNL     1      25.733   0.431  53.305  1.00  0.00    -0.240 NA
HETATM    8  C5  UNL     1      25.128  -0.654  53.923  1.00  0.00     0.420 C 
HETATM    9  N4  UNL     1      23.788  -0.893  53.509  1.00  0.00     0.107 NA
HETATM   10  C6  UNL     1      22.856   0.079  53.879  1.00  0.00     0.224 C 
HETATM   11  C9  UNL     1      22.574   1.270  53.060  1.00  0.00     0.036 C 
HETATM   12  C10 UNL     1      23.671   2.226  52.764  1.00  0.00     0.008 C 
HETATM   13  C11 UNL     1      24.600   1.775  51.686  1.00  0.00     0.059 C 
HETATM   14  C12 UNL     1      25.866   2.542  51.658  1.00  0.00     0.038 C 
HETATM   15  H7  UNL     1      23.749  -1.165  52.524  1.00  0.00     0.318 HD
ENDROOT
BRANCH  14  16
HETATM   16  N6  UNL     1      26.064   3.716  50.892  1.00  0.00    -0.388 N 
HETATM   17  H21 UNL     1      26.241   4.556  51.492  1.00  0.00     0.159 HD
BRANCH  16  18
HETATM   18  C13 UNL     1      26.057   3.906  49.455  1.00  0.00     0.148 C 
BRANCH  18  19
HETATM   19  C14 UNL     1      27.335   4.434  48.950  1.00  0.00     0.018 C 
HETATM   20  C15 UNL     1      28.062   5.384  48.426  1.00  0.00     0.011 C 
BRANCH  20  21
HETATM   21  N7  UNL     1      29.435   5.476  48.059  1.00  0.00    -0.402 N 
HETATM   22  H25 UNL     1      29.651   6.074  48.878  1.00  0.00     0.156 HD
HETATM   23  H26 UNL     1      29.571   4.924  47.182  1.00  0.00     0.156 HD
ENDBRANCH  20  21
BRANCH  20  24
HETATM   24  C16 UNL     1      27.313   6.643  48.148  1.00  0.00     0.142 C 
BRANCH  24  25
HETATM   25  C17 UNL     1      28.157   7.726  48.490  1.00  0.00    -0.133 C 
BRANCH  25  26
HETATM   26  P1  UNL     1      28.970   8.734  48.807  1.00  0.00     0.040 P 
HETATM   27 CL1  UNL     1      30.651  10.751  49.420  1.00  0.00    -0.086 Cl
HETATM   28  H29 UNL     1      29.323   9.180  48.954  1.00  0.00     0.087 HD
ENDBRANCH  25  26
ENDBRANCH  24  25
ENDBRANCH  20  24
ENDBRANCH  18  19
ENDBRANCH  16  18
ENDBRANCH  14  16
BRANCH  10  29
HETATM   29  C7  UNL     1      21.530  -0.690  54.100  1.00  0.00     0.065 C 
BRANCH  29  30
HETATM   30  C8  UNL     1      20.344  -0.097  53.466  1.00  0.00     0.269 C 
BRANCH  30  31
HETATM   31  N5  UNL     1      19.116  -0.823  53.599  1.00  0.00     0.078 N 
HETATM   32  H13 UNL     1      19.045  -1.700  53.076  1.00  0.00     0.312 HD
HETATM   33  H14 UNL     1      18.262  -0.277  53.464  1.00  0.00     0.312 HD
ENDBRANCH  30  31
ENDBRANCH  29  30
ENDBRANCH  10  29
TORSDOF 10
ENDMDL
MODEL 7
REMARK VINA RESULT:      -7.4      2.205      4.868
REMARK  10 active torsions:
REMARK  status: ('A' for Active; 'I' for Inactive)
REMARK    1  A    between atoms: C6_10  and  C7_11 
REMARK    2  A    between atoms: C7_11  and  C8_12 
REMARK    3  A    between atoms: C8_12  and  N5_13 
REMARK    4  A    between atoms: C12_17  and  N6_18 
REMARK    5  A    between atoms: N6_18  and  C13_19 
REMARK    6  A    between atoms: C13_19  and  C14_20 
REMARK    7  A    between atoms: C15_21  and  N7_22 
REMARK    8  A    between atoms: C15_21  and  C16_23 
REMARK    9  A    between atoms: C16_23  and  C17_24 
REMARK   10  A    between atoms: C17_24  and  P1_25 
ROOT
HETATM    1  C1  UNL     1      28.467  -0.030  54.971  1.00  0.00     0.159 C 
HETATM    2  N1  UNL     1      28.229   0.989  53.986  1.00  0.00    -0.329 N 
HETATM    3  C2  UNL     1      29.029   1.989  53.586  1.00  0.00     0.211 A 
HETATM    4  N2  UNL     1      28.331   2.649  52.650  1.00  0.00    -0.238 NA
HETATM    5  C3  UNL     1      27.106   2.082  52.453  1.00  0.00     0.126 A 
HETATM    6  C4  UNL     1      27.058   0.997  53.337  1.00  0.00     0.158 A 
HETATM    7  N3  UNL     1      25.962   0.398  53.245  1.00  0.00    -0.240 NA
HETATM    8  C5  UNL     1      25.341  -0.696  53.832  1.00  0.00     0.420 C 
HETATM    9  N4  UNL     1      24.031  -0.959  53.345  1.00  0.00     0.107 NA
HETATM   10  C6  UNL     1      23.064  -0.002  53.659  1.00  0.00     0.224 C 
HETATM   11  C9  UNL     1      22.808   1.182  52.821  1.00  0.00     0.036 C 
HETATM   12  C10 UNL     1      23.904   2.156  52.584  1.00  0.00     0.008 C 
HETATM   13  C11 UNL     1      24.899   1.719  51.561  1.00  0.00     0.059 C 
HETATM   14  C12 UNL     1      26.151   2.507  51.601  1.00  0.00     0.038 C 
HETATM   15  H7  UNL     1      24.052  -1.234  52.359  1.00  0.00     0.318 HD
ENDROOT
BRANCH  14  16
HETATM   16  N6  UNL     1      26.373   3.682  50.844  1.00  0.00    -0.388 N 
HETATM   17  H21 UNL     1      27.321   4.092  51.016  1.00  0.00     0.159 HD
BRANCH  16  18
HETATM   18  C13 UNL     1      25.507   4.364  49.903  1.00  0.00     0.148 C 
BRANCH  18  19
HETATM   19  C14 UNL     1      24.906   5.582  50.472  1.00  0.00     0.018 C 
HETATM   20  C15 UNL     1      24.898   6.870  50.686  1.00  0.00     0.011 C 
BRANCH  20  21
HETATM   21  N7  UNL     1      24.009   7.743  51.376  1.00  0.00    -0.402 N 
HETATM   22  H25 UNL     1      24.402   8.577  50.902  1.00  0.00     0.156 HD
HETATM   23  H26 UNL     1      23.408   7.160  52.002  1.00  0.00     0.156 HD
ENDBRANCH  20  21
BRANCH  20  24
HETATM   24  C16 UNL     1      26.056   7.595  50.088  1.00  0.00     0.142 C 
BRANCH  24  25
HETATM   25  C17 UNL     1      25.791   7.762  48.709  1.00  0.00    -0.133 C 
BRANCH  25  26
HETATM   26  P1  UNL     1      25.530   7.899  47.408  1.00  0.00     0.040 P 
HETATM   27 CL1  UNL     1      25.036   8.210  44.776  1.00  0.00    -0.086 Cl
HETATM   28  H29 UNL     1      25.405   7.955  46.837  1.00  0.00     0.087 HD
ENDBRANCH  25  26
ENDBRANCH  24  25
ENDBRANCH  20  24
ENDBRANCH  18  19
ENDBRANCH  16  18
ENDBRANCH  14  16
BRANCH  10  29
HETATM   29  C7  UNL     1      21.741  -0.792  53.807  1.00  0.00     0.065 C 
BRANCH  29  30
HETATM   30  C8  UNL     1      20.528   0.026  53.944  1.00  0.00     0.269 C 
BRANCH  30  31
HETATM   31  N5  UNL     1      19.276  -0.651  53.786  1.00  0.00     0.078 N 
HETATM   32  H13 UNL     1      18.589  -0.521  54.534  1.00  0.00     0.312 HD
HETATM   33  H14 UNL     1      19.336  -1.644  53.550  1.00  0.00     0.312 HD
ENDBRANCH  30  31
ENDBRANCH  29  30
ENDBRANCH  10  29
TORSDOF 10
ENDMDL
MODEL 8
REMARK VINA RESULT:      -7.2      3.158      5.311
REMARK  10 active torsions:
REMARK  status: ('A' for Active; 'I' for Inactive)
REMARK    1  A    between atoms: C6_10  and  C7_11 
REMARK    2  A    between atoms: C7_11  and  C8_12 
REMARK    3  A    between atoms: C8_12  and  N5_13 
REMARK    4  A    between atoms: C12_17  and  N6_18 
REMARK    5  A    between atoms: N6_18  and  C13_19 
REMARK    6  A    between atoms: C13_19  and  C14_20 
REMARK    7  A    between atoms: C15_21  and  N7_22 
REMARK    8  A    between atoms: C15_21  and  C16_23 
REMARK    9  A    between atoms: C16_23  and  C17_24 
REMARK   10  A    between atoms: C17_24  and  P1_25 
ROOT
HETATM    1  C1  UNL     1      26.094  -0.851  53.156  1.00  0.00     0.159 C 
HETATM    2  N1  UNL     1      24.824  -0.177  53.137  1.00  0.00    -0.329 N 
HETATM    3  C2  UNL     1      23.637  -0.586  53.608  1.00  0.00     0.211 A 
HETATM    4  N2  UNL     1      22.785   0.414  53.339  1.00  0.00    -0.238 NA
HETATM    5  C3  UNL     1      23.415   1.446  52.707  1.00  0.00     0.126 A 
HETATM    6  C4  UNL     1      24.749   1.040  52.583  1.00  0.00     0.158 A 
HETATM    7  N3  UNL     1      25.430   1.918  52.005  1.00  0.00    -0.240 NA
HETATM    8  C5  UNL     1      26.746   2.095  51.605  1.00  0.00     0.420 C 
HETATM    9  N4  UNL     1      27.002   3.334  50.955  1.00  0.00     0.107 NA
HETATM   10  C6  UNL     1      26.401   3.498  49.705  1.00  0.00     0.224 C 
HETATM   11  C9  UNL     1      25.041   4.037  49.535  1.00  0.00     0.036 C 
HETATM   12  C10 UNL     1      23.894   3.327  50.156  1.00  0.00     0.008 C 
HETATM   13  C11 UNL     1      23.745   3.570  51.621  1.00  0.00     0.059 C 
HETATM   14  C12 UNL     1      22.849   2.593  52.279  1.00  0.00     0.038 C 
HETATM   15  H7  UNL     1      26.870   4.121  51.595  1.00  0.00     0.318 HD
ENDROOT
BRANCH  14  16
HETATM   16  N6  UNL     1      21.455   2.776  52.436  1.00  0.00    -0.388 N 
HETATM   17  H21 UNL     1      21.081   2.277  53.277  1.00  0.00     0.159 HD
BRANCH  16  18
HETATM   18  C13 UNL     1      20.514   3.527  51.627  1.00  0.00     0.148 C 
BRANCH  18  19
HETATM   19  C14 UNL     1      19.660   2.656  50.803  1.00  0.00     0.018 C 
HETATM   20  C15 UNL     1      19.490   1.759  49.871  1.00  0.00     0.011 C 
BRANCH  20  21
HETATM   21  N7  UNL     1      18.340   1.118  49.326  1.00  0.00    -0.402 N 
HETATM   22  H25 UNL     1      18.903   0.659  48.586  1.00  0.00     0.156 HD
HETATM   23  H26 UNL     1      17.513   1.397  49.901  1.00  0.00     0.156 HD
ENDBRANCH  20  21
BRANCH  20  24
HETATM   24  C16 UNL     1      20.755   1.296  49.231  1.00  0.00     0.142 C 
BRANCH  24  25
HETATM   25  C17 UNL     1      21.085   2.223  48.215  1.00  0.00    -0.133 C 
BRANCH  25  26
HETATM   26  P1  UNL     1      21.372   3.098  47.251  1.00  0.00     0.040 P 
HETATM   27 CL1  UNL     1      21.961   4.830  45.270  1.00  0.00    -0.086 Cl
HETATM   28  H29 UNL     1      21.502   3.491  46.833  1.00  0.00     0.087 HD
ENDBRANCH  25  26
ENDBRANCH  24  25
ENDBRANCH  20  24
ENDBRANCH  18  19
ENDBRANCH  16  18
ENDBRANCH  14  16
BRANCH  10  29
HETATM   29  C7  UNL     1      27.382   4.378  48.892  1.00  0.00     0.065 C 
BRANCH  29  30
HETATM   30  C8  UNL     1      26.963   5.773  48.693  1.00  0.00     0.269 C 
BRANCH  30  31
HETATM   31  N5  UNL     1      27.914   6.784  49.046  1.00  0.00     0.078 N 
HETATM   32  H13 UNL     1      28.581   7.056  48.319  1.00  0.00     0.312 HD
HETATM   33  H14 UNL     1      28.413   6.636  49.925  1.00  0.00     0.312 HD
ENDBRANCH  30  31
ENDBRANCH  29  30
ENDBRANCH  10  29
TORSDOF 10
ENDMDL
MODEL 9
REMARK VINA RESULT:      -7.2      2.153      4.823
REMARK  10 active torsions:
REMARK  status: ('A' for Active; 'I' for Inactive)
REMARK    1  A    between atoms: C6_10  and  C7_11 
REMARK    2  A    between atoms: C7_11  and  C8_12 
REMARK    3  A    between atoms: C8_12  and  N5_13 
REMARK    4  A    between atoms: C12_17  and  N6_18 
REMARK    5  A    between atoms: N6_18  and  C13_19 
REMARK    6  A    between atoms: C13_19  and  C14_20 
REMARK    7  A    between atoms: C15_21  and  N7_22 
REMARK    8  A    between atoms: C15_21  and  C16_23 
REMARK    9  A    between atoms: C16_23  and  C17_24 
REMARK   10  A    between atoms: C17_24  and  P1_25 
ROOT
HETATM    1  C1  UNL     1      27.379  -0.095  54.679  1.00  0.00     0.159 C 
HETATM    2  N1  UNL     1      27.409   0.931  53.672  1.00  0.00    -0.329 N 
HETATM    3  C2  UNL     1      28.424   1.723  53.294  1.00  0.00     0.211 A 
HETATM    4  N2  UNL     1      27.925   2.499  52.321  1.00  0.00    -0.238 NA
HETATM    5  C3  UNL     1      26.613   2.210  52.079  1.00  0.00     0.126 A 
HETATM    6  C4  UNL     1      26.294   1.181  52.975  1.00  0.00     0.158 A 
HETATM    7  N3  UNL     1      25.098   0.834  52.845  1.00  0.00    -0.240 NA
HETATM    8  C5  UNL     1      24.230  -0.084  53.419  1.00  0.00     0.420 C 
HETATM    9  N4  UNL     1      22.913  -0.064  52.881  1.00  0.00     0.107 NA
HETATM   10  C6  UNL     1      22.169   1.088  53.141  1.00  0.00     0.224 C 
HETATM   11  C9  UNL     1      22.212   2.281  52.279  1.00  0.00     0.036 C 
HETATM   12  C10 UNL     1      23.503   2.986  52.075  1.00  0.00     0.008 C 
HETATM   13  C11 UNL     1      24.416   2.319  51.100  1.00  0.00     0.059 C 
HETATM   14  C12 UNL     1      25.809   2.814  51.183  1.00  0.00     0.038 C 
HETATM   15  H7  UNL     1      22.911  -0.358  51.901  1.00  0.00     0.318 HD
ENDROOT
BRANCH  14  16
HETATM   16  N6  UNL     1      26.312   3.895  50.421  1.00  0.00    -0.388 N 
HETATM   17  H21 UNL     1      27.355   3.968  50.476  1.00  0.00     0.159 HD
BRANCH  16  18
HETATM   18  C13 UNL     1      25.612   4.872  49.610  1.00  0.00     0.148 C 
BRANCH  18  19
HETATM   19  C14 UNL     1      26.002   6.255  49.931  1.00  0.00     0.018 C 
HETATM   20  C15 UNL     1      26.518   7.409  49.610  1.00  0.00     0.011 C 
BRANCH  20  21
HETATM   21  N7  UNL     1      26.720   8.625  50.324  1.00  0.00    -0.402 N 
HETATM   22  H25 UNL     1      27.160   9.078  49.502  1.00  0.00     0.156 HD
HETATM   23  H26 UNL     1      26.347   8.495  51.292  1.00  0.00     0.156 HD
ENDBRANCH  20  21
BRANCH  20  24
HETATM   24  C16 UNL     1      27.004   7.491  48.202  1.00  0.00     0.142 C 
BRANCH  24  25
HETATM   25  C17 UNL     1      28.247   6.818  48.139  1.00  0.00    -0.133 C 
BRANCH  25  26
HETATM   26  P1  UNL     1      29.414   6.178  48.057  1.00  0.00     0.040 P 
HETATM   27 CL1  UNL     1      31.750   4.843  47.901  1.00  0.00    -0.086 Cl
HETATM   28  H29 UNL     1      29.933   5.906  48.022  1.00  0.00     0.087 HD
ENDBRANCH  25  26
ENDBRANCH  24  25
ENDBRANCH  20  24
ENDBRANCH  18  19
ENDBRANCH  16  18
ENDBRANCH  14  16
BRANCH  10  29
HETATM   29  C7  UNL     1      20.699   0.610  53.244  1.00  0.00     0.065 C 
BRANCH  29  30
HETATM   30  C8  UNL     1      20.519  -0.796  53.630  1.00  0.00     0.269 C 
BRANCH  30  31
HETATM   31  N5  UNL     1      21.092  -1.198  54.879  1.00  0.00     0.078 N 
HETATM   32  H13 UNL     1      20.581  -0.928  55.723  1.00  0.00     0.312 HD
HETATM   33  H14 UNL     1      22.084  -0.983  55.000  1.00  0.00     0.312 HD
ENDBRANCH  30  31
ENDBRANCH  29  30
ENDBRANCH  10  29
TORSDOF 10
ENDMDL
