MODEL 1
REMARK VINA RESULT:      -8.5      0.000      0.000
REMARK  6 active torsions:
REMARK  status: ('A' for Active; 'I' for Inactive)
REMARK    1  A    between atoms: C2_2  and  N1_3 
REMARK    2  A    between atoms: C5_7  and  N3_8 
REMARK    3  A    between atoms: N3_8  and  C6_9 
REMARK    4  A    between atoms: C12_17  and  N5_18 
REMARK    5  A    between atoms: N5_18  and  C13_19 
REMARK    6  A    between atoms: C17_23  and  N6_24 
ROOT
HETATM    1  N1  UNL     1      20.993  -0.396  53.385  1.00  0.00    -0.324 N 
HETATM    2  C3  UNL     1      21.350  -1.291  54.325  1.00  0.00     0.212 A 
HETATM    3  N2  UNL     1      22.689  -1.292  54.412  1.00  0.00    -0.236 NA
HETATM    4  C4  UNL     1      23.206  -0.415  53.545  1.00  0.00     0.151 A 
HETATM    5  C5  UNL     1      24.480   0.031  53.170  1.00  0.00     0.180 A 
HETATM    6  N4  UNL     1      24.617   0.986  52.203  1.00  0.00    -0.043 NA
HETATM    7  C12 UNL     1      23.534   1.512  51.596  1.00  0.00     0.726 A 
HETATM    8  N7  UNL     1      22.313   1.081  51.956  1.00  0.00    -0.042 NA
HETATM    9  C19 UNL     1      22.117   0.158  52.887  1.00  0.00     0.182 A 
ENDROOT
BRANCH   7  10
HETATM   10  N5  UNL     1      23.702   2.506  50.602  1.00  0.00    -0.218 N 
HETATM   11  H12 UNL     1      23.032   2.472  49.783  1.00  0.00     0.178 HD
BRANCH  10  12
HETATM   12  C13 UNL     1      24.744   3.523  50.703  1.00  0.00     0.101 C 
HETATM   13  C14 UNL     1      25.579   3.400  49.432  1.00  0.00     0.026 C 
HETATM   14  C15 UNL     1      26.534   4.528  49.231  1.00  0.00     0.004 C 
HETATM   15  C16 UNL     1      25.882   5.880  49.426  1.00  0.00     0.035 C 
HETATM   16  C17 UNL     1      24.398   5.753  49.582  1.00  0.00     0.220 C 
HETATM   17  C18 UNL     1      24.031   4.870  50.735  1.00  0.00     0.060 C 
BRANCH  16  18
HETATM   18  N6  UNL     1      23.766   5.305  48.353  1.00  0.00     0.083 N 
HETATM   19  H21 UNL     1      23.201   6.047  47.922  1.00  0.00     0.313 HD
HETATM   20  H22 UNL     1      24.485   5.007  47.650  1.00  0.00     0.313 HD
ENDBRANCH  16  18
ENDBRANCH  10  12
ENDBRANCH   7  10
BRANCH   5  21
HETATM   21  N3  UNL     1      25.501  -0.623  53.903  1.00  0.00    -0.338 N 
HETATM   22  H7  UNL     1      25.042  -1.236  54.612  1.00  0.00     0.167 HD
BRANCH  21  23
HETATM   23  C6  UNL     1      26.903  -0.549  53.797  1.00  0.00     0.035 A 
HETATM   24  C7  UNL     1      27.641  -1.546  53.219  1.00  0.00     0.029 A 
HETATM   25  C8  UNL     1      29.008  -1.385  53.153  1.00  0.00     0.004 A 
HETATM   26  C9  UNL     1      29.723  -0.294  53.621  1.00  0.00     0.024 A 
HETATM   27  C10 UNL     1      28.936   0.697  54.200  1.00  0.00     0.036 A 
HETATM   28 CL1  UNL     1      29.774   2.116  54.817  1.00  0.00    -0.084 Cl
HETATM   29  C11 UNL     1      27.556   0.581  54.290  1.00  0.00     0.053 A 
ENDBRANCH  21  23
ENDBRANCH   5  21
BRANCH   1  30
HETATM   30  C2  UNL     1      19.646  -0.045  52.926  1.00  0.00     0.127 C 
HETATM   31  C1  UNL     1      18.644  -1.110  53.293  1.00  0.00     0.027 C 
ENDBRANCH   1  30
TORSDOF 6
ENDMDL
MODEL 2
REMARK VINA RESULT:      -8.4      0.988      1.363
REMARK  6 active torsions:
REMARK  status: ('A' for Active; 'I' for Inactive)
REMARK    1  A    between atoms: C2_2  and  N1_3 
REMARK    2  A    between atoms: C5_7  and  N3_8 
REMARK    3  A    between atoms: N3_8  and  C6_9 
REMARK    4  A    between atoms: C12_17  and  N5_18 
REMARK    5  A    between atoms: N5_18  and  C13_19 
REMARK    6  A    between atoms: C17_23  and  N6_24 
ROOT
HETATM    1  N1  UNL     1      20.740  -0.546  53.411  1.00  0.00    -0.324 N 
HETATM    2  C3  UNL     1      21.132  -1.294  54.458  1.00  0.00     0.212 A 
HETATM    3  N2  UNL     1      22.467  -1.203  54.559  1.00  0.00    -0.236 NA
HETATM    4  C4  UNL     1      22.946  -0.410  53.596  1.00  0.00     0.151 A 
HETATM    5  C5  UNL     1      24.199   0.063  53.182  1.00  0.00     0.180 A 
HETATM    6  N4  UNL     1      24.297   0.899  52.105  1.00  0.00    -0.043 NA
HETATM    7  C12 UNL     1      23.196   1.278  51.426  1.00  0.00     0.726 A 
HETATM    8  N7  UNL     1      21.996   0.822  51.824  1.00  0.00    -0.042 NA
HETATM    9  C19 UNL     1      21.838   0.011  52.860  1.00  0.00     0.182 A 
ENDROOT
BRANCH   7  10
HETATM   10  N5  UNL     1      23.323   2.151  50.318  1.00  0.00    -0.218 N 
HETATM   11  H12 UNL     1      23.621   1.710  49.402  1.00  0.00     0.178 HD
BRANCH  10  12
HETATM   12  C13 UNL     1      23.056   3.580  50.433  1.00  0.00     0.101 C 
HETATM   13  C14 UNL     1      23.569   3.996  51.809  1.00  0.00     0.026 C 
HETATM   14  C15 UNL     1      23.622   5.474  52.008  1.00  0.00     0.004 C 
HETATM   15  C16 UNL     1      24.280   6.190  50.849  1.00  0.00     0.035 C 
HETATM   16  C17 UNL     1      24.887   5.221  49.881  1.00  0.00     0.220 C 
HETATM   17  C18 UNL     1      23.872   4.262  49.341  1.00  0.00     0.060 C 
BRANCH  16  18
HETATM   18  N6  UNL     1      26.018   4.519  50.463  1.00  0.00     0.083 N 
HETATM   19  H21 UNL     1      25.800   3.533  50.651  1.00  0.00     0.313 HD
HETATM   20  H22 UNL     1      26.844   4.542  49.817  1.00  0.00     0.313 HD
ENDBRANCH  16  18
ENDBRANCH  10  12
ENDBRANCH   7  10
BRANCH   5  21
HETATM   21  N3  UNL     1      25.243  -0.432  54.002  1.00  0.00    -0.338 N 
HETATM   22  H7  UNL     1      24.808  -0.867  54.845  1.00  0.00     0.167 HD
BRANCH  21  23
HETATM   23  C6  UNL     1      26.641  -0.407  53.829  1.00  0.00     0.035 A 
HETATM   24  C7  UNL     1      27.316  -1.436  53.231  1.00  0.00     0.029 A 
HETATM   25  C8  UNL     1      28.683  -1.322  53.098  1.00  0.00     0.004 A 
HETATM   26  C9  UNL     1      29.456  -0.250  53.517  1.00  0.00     0.024 A 
HETATM   27  C10 UNL     1      28.730   0.774  54.119  1.00  0.00     0.036 A 
HETATM   28 CL1  UNL     1      29.644   2.170  54.676  1.00  0.00    -0.084 Cl
HETATM   29  C11 UNL     1      27.354   0.706  54.275  1.00  0.00     0.053 A 
ENDBRANCH  21  23
ENDBRANCH   5  21
BRANCH   1  30
HETATM   30  C2  UNL     1      19.383  -0.336  52.897  1.00  0.00     0.127 C 
HETATM   31  C1  UNL     1      18.441  -1.411  53.377  1.00  0.00     0.027 C 
ENDBRANCH   1  30
TORSDOF 6
ENDMDL
MODEL 3
REMARK VINA RESULT:      -8.3      1.983      6.036
REMARK  6 active torsions:
REMARK  status: ('A' for Active; 'I' for Inactive)
REMARK    1  A    between atoms: C2_2  and  N1_3 
REMARK    2  A    between atoms: C5_7  and  N3_8 
REMARK    3  A    between atoms: N3_8  and  C6_9 
REMARK    4  A    between atoms: C12_17  and  N5_18 
REMARK    5  A    between atoms: N5_18  and  C13_19 
REMARK    6  A    between atoms: C17_23  and  N6_24 
ROOT
HETATM    1  N1  UNL     1      21.656   0.683  53.031  1.00  0.00    -0.324 N 
HETATM    2  C3  UNL     1      20.956   1.065  51.948  1.00  0.00     0.212 A 
HETATM    3  N2  UNL     1      21.796   1.685  51.106  1.00  0.00    -0.236 NA
HETATM    4  C4  UNL     1      23.028   1.711  51.624  1.00  0.00     0.151 A 
HETATM    5  C5  UNL     1      24.290   2.192  51.251  1.00  0.00     0.180 A 
HETATM    6  N4  UNL     1      25.364   2.021  52.079  1.00  0.00    -0.043 NA
HETATM    7  C12 UNL     1      25.225   1.392  53.264  1.00  0.00     0.726 A 
HETATM    8  N7  UNL     1      24.013   0.934  53.620  1.00  0.00    -0.042 NA
HETATM    9  C19 UNL     1      22.937   1.069  52.859  1.00  0.00     0.182 A 
ENDROOT
BRANCH   7  10
HETATM   10  N5  UNL     1      26.354   1.222  54.102  1.00  0.00    -0.218 N 
HETATM   11  H12 UNL     1      26.685   2.079  54.628  1.00  0.00     0.178 HD
BRANCH  10  12
HETATM   12  C13 UNL     1      27.023  -0.068  54.234  1.00  0.00     0.101 C 
HETATM   13  C14 UNL     1      27.344  -0.524  52.813  1.00  0.00     0.026 C 
HETATM   14  C15 UNL     1      28.262  -1.698  52.753  1.00  0.00     0.004 C 
HETATM   15  C16 UNL     1      29.471  -1.534  53.648  1.00  0.00     0.035 C 
HETATM   16  C17 UNL     1      29.542  -0.153  54.222  1.00  0.00     0.220 C 
HETATM   17  C18 UNL     1      28.312   0.191  55.005  1.00  0.00     0.060 C 
BRANCH  16  18
HETATM   18  N6  UNL     1      29.808   0.842  53.197  1.00  0.00     0.083 N 
HETATM   19  H21 UNL     1      30.728   1.282  53.322  1.00  0.00     0.313 HD
HETATM   20  H22 UNL     1      29.793   0.407  52.242  1.00  0.00     0.313 HD
ENDBRANCH  16  18
ENDBRANCH  10  12
ENDBRANCH   7  10
BRANCH   5  21
HETATM   21  N3  UNL     1      24.257   2.824  49.984  1.00  0.00    -0.338 N 
HETATM   22  H7  UNL     1      23.662   2.244  49.353  1.00  0.00     0.167 HD
BRANCH  21  23
HETATM   23  C6  UNL     1      24.866   4.010  49.529  1.00  0.00     0.035 A 
HETATM   24  C7  UNL     1      24.160   5.169  49.359  1.00  0.00     0.029 A 
HETATM   25  C8  UNL     1      24.841   6.283  48.916  1.00  0.00     0.004 A 
HETATM   26  C9  UNL     1      26.194   6.347  48.621  1.00  0.00     0.024 A 
HETATM   27  C10 UNL     1      26.875   5.147  48.808  1.00  0.00     0.036 A 
HETATM   28 CL1  UNL     1      28.598   5.151  48.455  1.00  0.00    -0.084 Cl
HETATM   29  C11 UNL     1      26.234   3.999  49.252  1.00  0.00     0.053 A 
ENDBRANCH  21  23
ENDBRANCH   5  21
BRANCH   1  30
HETATM   30  C2  UNL     1      21.177  -0.019  54.225  1.00  0.00     0.127 C 
HETATM   31  C1  UNL     1      21.597  -1.468  54.218  1.00  0.00     0.027 C 
ENDBRANCH   1  30
TORSDOF 6
ENDMDL
MODEL 4
REMARK VINA RESULT:      -8.1      3.053      6.165
REMARK  6 active torsions:
REMARK  status: ('A' for Active; 'I' for Inactive)
REMARK    1  A    between atoms: C2_2  and  N1_3 
REMARK    2  A    between atoms: C5_7  and  N3_8 
REMARK    3  A    between atoms: N3_8  and  C6_9 
REMARK    4  A    between atoms: C12_17  and  N5_18 
REMARK    5  A    between atoms: N5_18  and  C13_19 
REMARK    6  A    between atoms: C17_23  and  N6_24 
ROOT
HETATM    1  N1  UNL     1      27.297   0.410  53.792  1.00  0.00    -0.324 N 
HETATM    2  C3  UNL     1      26.394  -0.508  54.182  1.00  0.00     0.212 A 
HETATM    3  N2  UNL     1      25.271  -0.314  53.477  1.00  0.00    -0.236 NA
HETATM    4  C4  UNL     1      25.428   0.714  52.637  1.00  0.00     0.151 A 
HETATM    5  C5  UNL     1      24.660   1.384  51.676  1.00  0.00     0.180 A 
HETATM    6  N4  UNL     1      25.188   2.437  50.984  1.00  0.00    -0.043 NA
HETATM    7  C12 UNL     1      26.451   2.848  51.216  1.00  0.00     0.726 A 
HETATM    8  N7  UNL     1      27.186   2.206  52.140  1.00  0.00    -0.042 NA
HETATM    9  C19 UNL     1      26.728   1.178  52.841  1.00  0.00     0.182 A 
ENDROOT
BRANCH   7  10
HETATM   10  N5  UNL     1      26.979   3.939  50.482  1.00  0.00    -0.218 N 
HETATM   11  H12 UNL     1      27.910   4.321  50.809  1.00  0.00     0.178 HD
BRANCH  10  12
HETATM   12  C13 UNL     1      26.274   4.502  49.335  1.00  0.00     0.101 C 
HETATM   13  C14 UNL     1      25.247   5.476  49.907  1.00  0.00     0.026 C 
HETATM   14  C15 UNL     1      24.607   6.345  48.878  1.00  0.00     0.004 C 
HETATM   15  C16 UNL     1      25.617   6.975  47.943  1.00  0.00     0.035 C 
HETATM   16  C17 UNL     1      27.020   6.722  48.404  1.00  0.00     0.220 C 
HETATM   17  C18 UNL     1      27.315   5.258  48.517  1.00  0.00     0.060 C 
BRANCH  16  18
HETATM   18  N6  UNL     1      27.309   7.415  49.648  1.00  0.00     0.083 N 
HETATM   19  H21 UNL     1      26.718   7.080  50.419  1.00  0.00     0.313 HD
HETATM   20  H22 UNL     1      28.309   7.272  49.931  1.00  0.00     0.313 HD
ENDBRANCH  16  18
ENDBRANCH  10  12
ENDBRANCH   7  10
BRANCH   5  21
HETATM   21  N3  UNL     1      23.363   0.826  51.560  1.00  0.00    -0.338 N 
HETATM   22  H7  UNL     1      23.470  -0.184  51.319  1.00  0.00     0.167 HD
BRANCH  21  23
HETATM   23  C6  UNL     1      22.090   1.410  51.714  1.00  0.00     0.035 A 
HETATM   24  C7  UNL     1      21.929   2.674  52.213  1.00  0.00     0.029 A 
HETATM   25  C8  UNL     1      20.647   3.167  52.322  1.00  0.00     0.004 A 
HETATM   26  C9  UNL     1      19.484   2.500  51.971  1.00  0.00     0.024 A 
HETATM   27  C10 UNL     1      19.693   1.219  51.468  1.00  0.00     0.036 A 
HETATM   28 CL1  UNL     1      18.262   0.309  50.998  1.00  0.00    -0.084 Cl
HETATM   29  C11 UNL     1      20.964   0.678  51.339  1.00  0.00     0.053 A 
ENDBRANCH  21  23
ENDBRANCH   5  21
BRANCH   1  30
HETATM   30  C2  UNL     1      28.666   0.608  54.279  1.00  0.00     0.127 C 
HETATM   31  C1  UNL     1      29.591  -0.471  53.772  1.00  0.00     0.027 C 
ENDBRANCH   1  30
TORSDOF 6
ENDMDL
MODEL 5
REMARK VINA RESULT:      -8.1      2.750      6.059
REMARK  6 active torsions:
REMARK  status: ('A' for Active; 'I' for Inactive)
REMARK    1  A    between atoms: C2_2  and  N1_3 
REMARK    2  A    between atoms: C5_7  and  N3_8 
REMARK    3  A    between atoms: N3_8  and  C6_9 
REMARK    4  A    between atoms: C12_17  and  N5_18 
REMARK    5  A    between atoms: N5_18  and  C13_19 
REMARK    6  A    between atoms: C17_23  and  N6_24 
ROOT
HETATM    1  N1  UNL     1      27.174   0.548  53.355  1.00  0.00    -0.324 N 
HETATM    2  C3  UNL     1      26.906  -0.763  53.491  1.00  0.00     0.212 A 
HETATM    3  N2  UNL     1      25.579  -0.930  53.392  1.00  0.00    -0.236 NA
HETATM    4  C4  UNL     1      24.982   0.250  53.194  1.00  0.00     0.151 A 
HETATM    5  C5  UNL     1      23.676   0.724  53.018  1.00  0.00     0.180 A 
HETATM    6  N4  UNL     1      23.448   2.059  52.831  1.00  0.00    -0.043 NA
HETATM    7  C12 UNL     1      24.471   2.936  52.816  1.00  0.00     0.726 A 
HETATM    8  N7  UNL     1      25.723   2.479  52.987  1.00  0.00    -0.042 NA
HETATM    9  C19 UNL     1      26.006   1.197  53.171  1.00  0.00     0.182 A 
ENDROOT
BRANCH   7  10
HETATM   10  N5  UNL     1      24.210   4.313  52.614  1.00  0.00    -0.218 N 
HETATM   11  H12 UNL     1      24.466   4.964  53.409  1.00  0.00     0.178 HD
BRANCH  10  12
HETATM   12  C13 UNL     1      23.620   4.808  51.375  1.00  0.00     0.101 C 
HETATM   13  C14 UNL     1      23.931   6.301  51.325  1.00  0.00     0.026 C 
HETATM   14  C15 UNL     1      23.635   6.931  50.006  1.00  0.00     0.004 C 
HETATM   15  C16 UNL     1      24.192   6.135  48.846  1.00  0.00     0.035 C 
HETATM   16  C17 UNL     1      25.066   5.016  49.322  1.00  0.00     0.220 C 
HETATM   17  C18 UNL     1      24.333   4.085  50.238  1.00  0.00     0.060 C 
BRANCH  16  18
HETATM   18  N6  UNL     1      26.284   5.511  49.939  1.00  0.00     0.083 N 
HETATM   19  H21 UNL     1      26.967   4.759  50.095  1.00  0.00     0.313 HD
HETATM   20  H22 UNL     1      26.743   6.233  49.332  1.00  0.00     0.313 HD
ENDBRANCH  16  18
ENDBRANCH  10  12
ENDBRANCH   7  10
BRANCH   5  21
HETATM   21  N3  UNL     1      22.726  -0.326  53.062  1.00  0.00    -0.338 N 
HETATM   22  H7  UNL     1      23.231  -1.203  53.317  1.00  0.00     0.167 HD
BRANCH  21  23
HETATM   23  C6  UNL     1      21.337  -0.323  52.828  1.00  0.00     0.035 A 
HETATM   24  C7  UNL     1      20.449  -0.845  53.727  1.00  0.00     0.029 A 
HETATM   25  C8  UNL     1      19.107  -0.793  53.417  1.00  0.00     0.004 A 
HETATM   26  C9  UNL     1      18.558  -0.254  52.264  1.00  0.00     0.024 A 
HETATM   27  C10 UNL     1      19.495   0.266  51.377  1.00  0.00     0.036 A 
HETATM   28 CL1  UNL     1      18.872   0.970  49.889  1.00  0.00    -0.084 Cl
HETATM   29  C11 UNL     1      20.856   0.237  51.644  1.00  0.00     0.053 A 
ENDBRANCH  21  23
ENDBRANCH   5  21
BRANCH   1  30
HETATM   30  C2  UNL     1      28.475   1.223  53.399  1.00  0.00     0.127 C 
HETATM   31  C1  UNL     1      29.585   0.256  53.728  1.00  0.00     0.027 C 
ENDBRANCH   1  30
TORSDOF 6
ENDMDL
MODEL 6
REMARK VINA RESULT:      -8.0      2.397      7.089
REMARK  6 active torsions:
REMARK  status: ('A' for Active; 'I' for Inactive)
REMARK    1  A    between atoms: C2_2  and  N1_3 
REMARK    2  A    between atoms: C5_7  and  N3_8 
REMARK    3  A    between atoms: N3_8  and  C6_9 
REMARK    4  A    between atoms: C12_17  and  N5_18 
REMARK    5  A    between atoms: N5_18  and  C13_19 
REMARK    6  A    between atoms: C17_23  and  N6_24 
ROOT
HETATM    1  N1  UNL     1      24.025   4.967  49.083  1.00  0.00    -0.324 N 
HETATM    2  C3  UNL     1      22.904   4.698  48.389  1.00  0.00     0.212 A 
HETATM    3  N2  UNL     1      22.380   3.561  48.870  1.00  0.00    -0.236 NA
HETATM    4  C4  UNL     1      23.140   3.088  49.863  1.00  0.00     0.151 A 
HETATM    5  C5  UNL     1      23.131   1.989  50.731  1.00  0.00     0.180 A 
HETATM    6  N4  UNL     1      24.122   1.838  51.660  1.00  0.00    -0.043 NA
HETATM    7  C12 UNL     1      25.121   2.739  51.753  1.00  0.00     0.726 A 
HETATM    8  N7  UNL     1      25.129   3.791  50.917  1.00  0.00    -0.042 NA
HETATM    9  C19 UNL     1      24.195   3.991  49.998  1.00  0.00     0.182 A 
ENDROOT
BRANCH   7  10
HETATM   10  N5  UNL     1      26.133   2.563  52.728  1.00  0.00    -0.218 N 
HETATM   11  H12 UNL     1      25.986   3.054  53.655  1.00  0.00     0.178 HD
BRANCH  10  12
HETATM   12  C13 UNL     1      27.314   1.747  52.468  1.00  0.00     0.101 C 
HETATM   13  C14 UNL     1      28.268   2.001  53.633  1.00  0.00     0.026 C 
HETATM   14  C15 UNL     1      29.422   1.057  53.680  1.00  0.00     0.004 C 
HETATM   15  C16 UNL     1      28.995  -0.386  53.521  1.00  0.00     0.035 C 
HETATM   16  C17 UNL     1      27.504  -0.521  53.549  1.00  0.00     0.220 C 
HETATM   17  C18 UNL     1      26.848   0.296  52.479  1.00  0.00     0.060 C 
BRANCH  16  18
HETATM   18  N6  UNL     1      26.961  -0.205  54.860  1.00  0.00     0.083 N 
HETATM   19  H21 UNL     1      27.015   0.800  55.063  1.00  0.00     0.313 HD
HETATM   20  H22 UNL     1      25.953  -0.487  54.924  1.00  0.00     0.313 HD
ENDBRANCH  16  18
ENDBRANCH  10  12
ENDBRANCH   7  10
BRANCH   5  21
HETATM   21  N3  UNL     1      22.017   1.146  50.497  1.00  0.00    -0.338 N 
HETATM   22  H7  UNL     1      21.925   1.017  49.466  1.00  0.00     0.167 HD
BRANCH  21  23
HETATM   23  C6  UNL     1      21.121   0.532  51.394  1.00  0.00     0.035 A 
HETATM   24  C7  UNL     1      19.771   0.515  51.173  1.00  0.00     0.029 A 
HETATM   25  C8  UNL     1      18.971  -0.115  52.102  1.00  0.00     0.004 A 
HETATM   26  C9  UNL     1      19.405  -0.745  53.258  1.00  0.00     0.024 A 
HETATM   27  C10 UNL     1      20.784  -0.704  53.445  1.00  0.00     0.036 A 
HETATM   28 CL1  UNL     1      21.411  -1.485  54.892  1.00  0.00    -0.084 Cl
HETATM   29  C11 UNL     1      21.631  -0.083  52.538  1.00  0.00     0.053 A 
ENDBRANCH  21  23
ENDBRANCH   5  21
BRANCH   1  30
HETATM   30  C2  UNL     1      24.949   6.094  48.921  1.00  0.00     0.127 C 
HETATM   31  C1  UNL     1      24.490   7.031  47.833  1.00  0.00     0.027 C 
ENDBRANCH   1  30
TORSDOF 6
ENDMDL
MODEL 7
REMARK VINA RESULT:      -8.0      3.566      6.929
REMARK  6 active torsions:
REMARK  status: ('A' for Active; 'I' for Inactive)
REMARK    1  A    between atoms: C2_2  and  N1_3 
REMARK    2  A    between atoms: C5_7  and  N3_8 
REMARK    3  A    between atoms: N3_8  and  C6_9 
REMARK    4  A    between atoms: C12_17  and  N5_18 
REMARK    5  A    between atoms: N5_18  and  C13_19 
REMARK    6  A    between atoms: C17_23  and  N6_24 
ROOT
HETATM    1  N1  UNL     1      24.170  -0.657  54.346  1.00  0.00    -0.324 N 
HETATM    2  C3  UNL     1      23.635  -1.347  55.370  1.00  0.00     0.212 A 
HETATM    3  N2  UNL     1      22.305  -1.380  55.201  1.00  0.00    -0.236 NA
HETATM    4  C4  UNL     1      21.968  -0.725  54.085  1.00  0.00     0.151 A 
HETATM    5  C5  UNL     1      20.792  -0.417  53.389  1.00  0.00     0.180 A 
HETATM    6  N4  UNL     1      20.847   0.303  52.229  1.00  0.00    -0.043 NA
HETATM    7  C12 UNL     1      22.029   0.728  51.739  1.00  0.00     0.726 A 
HETATM    8  N7  UNL     1      23.156   0.433  52.410  1.00  0.00    -0.042 NA
HETATM    9  C19 UNL     1      23.165  -0.262  53.538  1.00  0.00     0.182 A 
ENDROOT
BRANCH   7  10
HETATM   10  N5  UNL     1      22.061   1.467  50.532  1.00  0.00    -0.218 N 
HETATM   11  H12 UNL     1      21.995   0.909  49.635  1.00  0.00     0.178 HD
BRANCH  10  12
HETATM   12  C13 UNL     1      22.178   2.922  50.526  1.00  0.00     0.101 C 
HETATM   13  C14 UNL     1      21.922   3.372  51.962  1.00  0.00     0.026 C 
HETATM   14  C15 UNL     1      22.255   4.804  52.210  1.00  0.00     0.004 C 
HETATM   15  C16 UNL     1      23.614   5.185  51.665  1.00  0.00     0.035 C 
HETATM   16  C17 UNL     1      24.366   3.983  51.184  1.00  0.00     0.220 C 
HETATM   17  C18 UNL     1      23.613   3.239  50.124  1.00  0.00     0.060 C 
BRANCH  16  18
HETATM   18  N6  UNL     1      24.734   3.105  52.282  1.00  0.00     0.083 N 
HETATM   19  H21 UNL     1      25.747   3.118  52.458  1.00  0.00     0.313 HD
HETATM   20  H22 UNL     1      24.256   3.398  53.169  1.00  0.00     0.313 HD
ENDBRANCH  16  18
ENDBRANCH  10  12
ENDBRANCH   7  10
BRANCH   5  21
HETATM   21  N3  UNL     1      19.646  -0.937  54.040  1.00  0.00    -0.338 N 
HETATM   22  H7  UNL     1      19.811  -0.882  55.070  1.00  0.00     0.167 HD
BRANCH  21  23
HETATM   23  C6  UNL     1      18.447  -1.460  53.518  1.00  0.00     0.035 A 
HETATM   24  C7  UNL     1      17.619  -0.720  52.720  1.00  0.00     0.029 A 
HETATM   25  C8  UNL     1      16.470  -1.317  52.249  1.00  0.00     0.004 A 
HETATM   26  C9  UNL     1      16.062  -2.616  52.507  1.00  0.00     0.024 A 
HETATM   27  C10 UNL     1      16.932  -3.334  53.321  1.00  0.00     0.036 A 
HETATM   28 CL1  UNL     1      16.481  -4.994  53.692  1.00  0.00    -0.084 Cl
HETATM   29  C11 UNL     1      18.101  -2.778  53.820  1.00  0.00     0.053 A 
ENDBRANCH  21  23
ENDBRANCH   5  21
BRANCH   1  30
HETATM   30  C2  UNL     1      25.580  -0.345  54.094  1.00  0.00     0.127 C 
HETATM   31  C1  UNL     1      26.159  -1.236  53.025  1.00  0.00     0.027 C 
ENDBRANCH   1  30
TORSDOF 6
ENDMDL
MODEL 8
REMARK VINA RESULT:      -7.9      1.967      2.900
REMARK  6 active torsions:
REMARK  status: ('A' for Active; 'I' for Inactive)
REMARK    1  A    between atoms: C2_2  and  N1_3 
REMARK    2  A    between atoms: C5_7  and  N3_8 
REMARK    3  A    between atoms: N3_8  and  C6_9 
REMARK    4  A    between atoms: C12_17  and  N5_18 
REMARK    5  A    between atoms: N5_18  and  C13_19 
REMARK    6  A    between atoms: C17_23  and  N6_24 
ROOT
HETATM    1  N1  UNL     1      22.284   0.950  51.283  1.00  0.00    -0.324 N 
HETATM    2  C3  UNL     1      22.431   0.142  52.349  1.00  0.00     0.212 A 
HETATM    3  N2  UNL     1      23.612   0.418  52.922  1.00  0.00    -0.236 NA
HETATM    4  C4  UNL     1      24.233   1.390  52.246  1.00  0.00     0.151 A 
HETATM    5  C5  UNL     1      25.442   2.094  52.334  1.00  0.00     0.180 A 
HETATM    6  N4  UNL     1      25.741   3.064  51.420  1.00  0.00    -0.043 NA
HETATM    7  C12 UNL     1      24.884   3.357  50.422  1.00  0.00     0.726 A 
HETATM    8  N7  UNL     1      23.726   2.680  50.338  1.00  0.00    -0.042 NA
HETATM    9  C19 UNL     1      23.381   1.729  51.195  1.00  0.00     0.182 A 
ENDROOT
BRANCH   7  10
HETATM   10  N5  UNL     1      25.214   4.372  49.491  1.00  0.00    -0.218 N 
HETATM   11  H12 UNL     1      26.100   4.227  48.930  1.00  0.00     0.178 HD
BRANCH  10  12
HETATM   12  C13 UNL     1      24.376   5.553  49.315  1.00  0.00     0.101 C 
HETATM   13  C14 UNL     1      24.052   6.055  50.719  1.00  0.00     0.026 C 
HETATM   14  C15 UNL     1      23.420   7.406  50.742  1.00  0.00     0.004 C 
HETATM   15  C16 UNL     1      24.154   8.403  49.873  1.00  0.00     0.035 C 
HETATM   16  C17 UNL     1      25.442   7.836  49.360  1.00  0.00     0.220 C 
HETATM   17  C18 UNL     1      25.225   6.579  48.574  1.00  0.00     0.060 C 
BRANCH  16  18
HETATM   18  N6  UNL     1      26.402   7.628  50.430  1.00  0.00     0.083 N 
HETATM   19  H21 UNL     1      26.969   8.467  50.603  1.00  0.00     0.313 HD
HETATM   20  H22 UNL     1      25.914   7.387  51.327  1.00  0.00     0.313 HD
ENDBRANCH  16  18
ENDBRANCH  10  12
ENDBRANCH   7  10
BRANCH   5  21
HETATM   21  N3  UNL     1      26.221   1.661  53.436  1.00  0.00    -0.338 N 
HETATM   22  H7  UNL     1      25.750   1.988  54.308  1.00  0.00     0.167 HD
BRANCH  21  23
HETATM   23  C6  UNL     1      27.420   0.924  53.484  1.00  0.00     0.035 A 
HETATM   24  C7  UNL     1      28.621   1.511  53.774  1.00  0.00     0.029 A 
HETATM   25  C8  UNL     1      29.742   0.710  53.806  1.00  0.00     0.004 A 
HETATM   26  C9  UNL     1      29.775  -0.655  53.568  1.00  0.00     0.024 A 
HETATM   27  C10 UNL     1      28.534  -1.212  53.277  1.00  0.00     0.036 A 
HETATM   28 CL1  UNL     1      28.496  -2.944  52.965  1.00  0.00    -0.084 Cl
HETATM   29  C11 UNL     1      27.377  -0.448  53.233  1.00  0.00     0.053 A 
ENDBRANCH  21  23
ENDBRANCH   5  21
BRANCH   1  30
HETATM   30  C2  UNL     1      21.166   1.017  50.337  1.00  0.00     0.127 C 
HETATM   31  C1  UNL     1      19.866   0.628  50.994  1.00  0.00     0.027 C 
ENDBRANCH   1  30
TORSDOF 6
ENDMDL
MODEL 9
REMARK VINA RESULT:      -7.7      3.023      7.726
REMARK  6 active torsions:
REMARK  status: ('A' for Active; 'I' for Inactive)
REMARK    1  A    between atoms: C2_2  and  N1_3 
REMARK    2  A    between atoms: C5_7  and  N3_8 
REMARK    3  A    between atoms: N3_8  and  C6_9 
REMARK    4  A    between atoms: C12_17  and  N5_18 
REMARK    5  A    between atoms: N5_18  and  C13_19 
REMARK    6  A    between atoms: C17_23  and  N6_24 
ROOT
HETATM    1  N1  UNL     1      24.221   4.890  49.270  1.00  0.00    -0.324 N 
HETATM    2  C3  UNL     1      23.200   4.924  48.394  1.00  0.00     0.212 A 
HETATM    3  N2  UNL     1      22.471   3.811  48.562  1.00  0.00    -0.236 NA
HETATM    4  C4  UNL     1      23.001   3.056  49.530  1.00  0.00     0.151 A 
HETATM    5  C5  UNL     1      22.720   1.832  50.149  1.00  0.00     0.180 A 
HETATM    6  N4  UNL     1      23.525   1.366  51.150  1.00  0.00    -0.043 NA
HETATM    7  C12 UNL     1      24.600   2.074  51.554  1.00  0.00     0.726 A 
HETATM    8  N7  UNL     1      24.868   3.247  50.957  1.00  0.00    -0.042 NA
HETATM    9  C19 UNL     1      24.124   3.750  49.983  1.00  0.00     0.182 A 
ENDROOT
BRANCH   7  10
HETATM   10  N5  UNL     1      25.415   1.573  52.598  1.00  0.00    -0.218 N 
HETATM   11  H12 UNL     1      24.921   1.301  53.494  1.00  0.00     0.178 HD
BRANCH  10  12
HETATM   12  C13 UNL     1      26.860   1.440  52.445  1.00  0.00     0.101 C 
HETATM   13  C14 UNL     1      27.482   2.220  53.600  1.00  0.00     0.026 C 
HETATM   14  C15 UNL     1      28.946   1.984  53.764  1.00  0.00     0.004 C 
HETATM   15  C16 UNL     1      29.301   0.514  53.736  1.00  0.00     0.035 C 
HETATM   16  C17 UNL     1      28.075  -0.345  53.744  1.00  0.00     0.220 C 
HETATM   17  C18 UNL     1      27.174  -0.045  52.586  1.00  0.00     0.060 C 
BRANCH  16  18
HETATM   18  N6  UNL     1      27.360  -0.248  55.006  1.00  0.00     0.083 N 
HETATM   19  H21 UNL     1      27.833  -0.770  55.754  1.00  0.00     0.313 HD
HETATM   20  H22 UNL     1      27.285   0.751  55.316  1.00  0.00     0.313 HD
ENDBRANCH  16  18
ENDBRANCH  10  12
ENDBRANCH   7  10
BRANCH   5  21
HETATM   21  N3  UNL     1      21.562   1.222  49.605  1.00  0.00    -0.338 N 
HETATM   22  H7  UNL     1      21.817   0.830  48.672  1.00  0.00     0.167 HD
BRANCH  21  23
HETATM   23  C6  UNL     1      20.257   1.100  50.120  1.00  0.00     0.035 A 
HETATM   24  C7  UNL     1      19.196   1.768  49.574  1.00  0.00     0.029 A 
HETATM   25  C8  UNL     1      17.953   1.582  50.139  1.00  0.00     0.004 A 
HETATM   26  C9  UNL     1      17.665   0.770  51.225  1.00  0.00     0.024 A 
HETATM   27  C10 UNL     1      18.771   0.108  51.750  1.00  0.00     0.036 A 
HETATM   28 CL1  UNL     1      18.483  -0.943  53.131  1.00  0.00    -0.084 Cl
HETATM   29  C11 UNL     1      20.042   0.263  51.216  1.00  0.00     0.053 A 
ENDBRANCH  21  23
ENDBRANCH   5  21
BRANCH   1  30
HETATM   30  C2  UNL     1      25.290   5.875  49.462  1.00  0.00     0.127 C 
HETATM   31  C1  UNL     1      26.564   5.445  48.779  1.00  0.00     0.027 C 
ENDBRANCH   1  30
TORSDOF 6
ENDMDL
