MODEL 1
REMARK VINA RESULT:      -8.1      0.000      0.000
REMARK  7 active torsions:
REMARK  status: ('A' for Active; 'I' for Inactive)
REMARK    1  A    between atoms: O1_2  and  C2_3 
REMARK    2  A    between atoms: C5_6  and  C6_7 
REMARK    3  A    between atoms: C6_7  and  C7_8 
REMARK    4  A    between atoms: C7_8  and  C8_9 
REMARK    5  A    between atoms: C8_9  and  N1_10 
REMARK    6  A    between atoms: N1_10  and  C9_11 
REMARK    7  A    between atoms: C22_26  and  N2_27 
ROOT
HETATM    1  C8  UNL     1      24.167   1.872  51.767  1.00  0.00     0.094 C 
HETATM    2  C16 UNL     1      23.779   2.736  52.997  1.00  0.00     0.026 C 
HETATM    3  C17 UNL     1      24.119   3.982  52.687  1.00  0.00     0.012 C 
HETATM    4  C18 UNL     1      23.297   4.533  51.809  1.00  0.00     0.115 C 
HETATM    5  O2  UNL     1      22.917   5.878  51.905  1.00  0.00    -0.345 OA
HETATM    6  C19 UNL     1      22.035   6.431  50.940  1.00  0.00     0.202 C 
HETATM    7  C20 UNL     1      21.185   5.365  50.297  1.00  0.00     0.202 C 
HETATM    8  O3  UNL     1      21.954   4.256  49.843  1.00  0.00    -0.344 OA
HETATM    9  C21 UNL     1      22.809   3.646  50.732  1.00  0.00     0.128 C 
HETATM   10  C22 UNL     1      23.241   2.373  50.739  1.00  0.00     0.072 C 
ENDROOT
BRANCH   1  11
HETATM   11  C7  UNL     1      25.574   2.209  51.436  1.00  0.00     0.046 C 
BRANCH  11  12
HETATM   12  C6  UNL     1      26.619   1.183  51.568  1.00  0.00     0.044 C 
BRANCH  12  13
HETATM   13  C5  UNL     1      27.545   1.282  52.708  1.00  0.00    -0.025 A 
HETATM   14  C2  UNL     1      28.205   0.354  53.605  1.00  0.00     0.074 A 
HETATM   15  C3  UNL     1      28.773   1.411  54.212  1.00  0.00     0.038 A 
HETATM   16  C4  UNL     1      28.105   2.350  53.304  1.00  0.00     0.012 A 
BRANCH  14  17
HETATM   17  O1  UNL     1      28.259  -1.020  53.795  1.00  0.00    -0.355 OA
HETATM   18  C1  UNL     1      29.417  -1.750  53.385  1.00  0.00     0.210 C 
ENDBRANCH  14  17
ENDBRANCH  12  13
ENDBRANCH  11  12
ENDBRANCH   1  11
BRANCH   1  19
HETATM   19  N1  UNL     1      23.944   0.498  52.157  1.00  0.00    -0.371 N 
HETATM   20  H10 UNL     1      24.682  -0.118  51.728  1.00  0.00     0.161 HD
BRANCH  19  21
HETATM   21  C9  UNL     1      22.960  -0.104  52.968  1.00  0.00     0.035 A 
HETATM   22  C10 UNL     1      21.610  -0.138  52.705  1.00  0.00     0.029 A 
HETATM   23  C11 UNL     1      20.662  -0.724  53.514  1.00  0.00     0.002 A 
HETATM   24  C12 UNL     1      21.103  -1.317  54.667  1.00  0.00     0.001 A 
HETATM   25  C13 UNL     1      22.444  -1.310  54.976  1.00  0.00     0.009 A 
HETATM   26  C14 UNL     1      23.351  -0.712  54.135  1.00  0.00    -0.036 A 
HETATM   27  C15 UNL     1      24.796  -0.740  54.528  1.00  0.00     0.050 C 
ENDBRANCH  19  21
ENDBRANCH   1  19
BRANCH  10  28
HETATM   28  N2  UNL     1      22.633   1.670  49.646  1.00  0.00    -0.398 N 
HETATM   29  H23 UNL     1      22.309   2.111  48.770  1.00  0.00     0.156 HD
HETATM   30  H24 UNL     1      22.495   0.635  49.710  1.00  0.00     0.156 HD
ENDBRANCH  10  28
TORSDOF 7
ENDMDL
MODEL 2
REMARK VINA RESULT:      -8.1      2.053      6.443
REMARK  7 active torsions:
REMARK  status: ('A' for Active; 'I' for Inactive)
REMARK    1  A    between atoms: O1_2  and  C2_3 
REMARK    2  A    between atoms: C5_6  and  C6_7 
REMARK    3  A    between atoms: C6_7  and  C7_8 
REMARK    4  A    between atoms: C7_8  and  C8_9 
REMARK    5  A    between atoms: C8_9  and  N1_10 
REMARK    6  A    between atoms: N1_10  and  C9_11 
REMARK    7  A    between atoms: C22_26  and  N2_27 
ROOT
HETATM    1  C8  UNL     1      25.607   1.341  52.723  1.00  0.00     0.094 C 
HETATM    2  C16 UNL     1      25.356  -0.148  53.080  1.00  0.00     0.026 C 
HETATM    3  C17 UNL     1      26.261  -0.842  52.399  1.00  0.00     0.012 C 
HETATM    4  C18 UNL     1      27.477  -0.734  52.907  1.00  0.00     0.115 C 
HETATM    5  O2  UNL     1      28.352  -1.828  52.956  1.00  0.00    -0.345 OA
HETATM    6  C19 UNL     1      29.650  -1.667  53.507  1.00  0.00     0.202 C 
HETATM    7  C20 UNL     1      29.698  -0.516  54.477  1.00  0.00     0.202 C 
HETATM    8  O3  UNL     1      29.122   0.671  53.942  1.00  0.00    -0.344 OA
HETATM    9  C21 UNL     1      27.850   0.602  53.418  1.00  0.00     0.128 C 
HETATM   10  C22 UNL     1      26.931   1.579  53.319  1.00  0.00     0.072 C 
ENDROOT
BRANCH   1  11
HETATM   11  C7  UNL     1      25.660   1.422  51.242  1.00  0.00     0.046 C 
BRANCH  11  12
HETATM   12  C6  UNL     1      26.427   2.500  50.599  1.00  0.00     0.044 C 
BRANCH  12  13
HETATM   13  C5  UNL     1      25.679   3.556  49.898  1.00  0.00    -0.025 A 
HETATM   14  C2  UNL     1      24.407   3.659  49.210  1.00  0.00     0.074 A 
HETATM   15  C3  UNL     1      24.686   4.952  48.975  1.00  0.00     0.038 A 
HETATM   16  C4  UNL     1      25.974   4.849  49.671  1.00  0.00     0.012 A 
BRANCH  14  17
HETATM   17  O1  UNL     1      23.341   2.824  48.904  1.00  0.00    -0.355 OA
HETATM   18  C1  UNL     1      22.316   3.274  48.016  1.00  0.00     0.210 C 
ENDBRANCH  14  17
ENDBRANCH  12  13
ENDBRANCH  11  12
ENDBRANCH   1  11
BRANCH   1  19
HETATM   19  N1  UNL     1      24.531   2.086  53.337  1.00  0.00    -0.371 N 
HETATM   20  H10 UNL     1      24.489   1.867  54.366  1.00  0.00     0.161 HD
BRANCH  19  21
HETATM   21  C9  UNL     1      23.596   3.000  52.810  1.00  0.00     0.035 A 
HETATM   22  C10 UNL     1      23.757   4.364  52.737  1.00  0.00     0.029 A 
HETATM   23  C11 UNL     1      22.828   5.244  52.225  1.00  0.00     0.002 A 
HETATM   24  C12 UNL     1      21.656   4.712  51.757  1.00  0.00     0.001 A 
HETATM   25  C13 UNL     1      21.445   3.354  51.808  1.00  0.00     0.009 A 
HETATM   26  C14 UNL     1      22.404   2.518  52.327  1.00  0.00    -0.036 A 
HETATM   27  C15 UNL     1      22.115   1.049  52.354  1.00  0.00     0.050 C 
ENDBRANCH  19  21
ENDBRANCH   1  19
BRANCH  10  28
HETATM   28  N2  UNL     1      27.465   2.779  53.896  1.00  0.00    -0.398 N 
HETATM   29  H23 UNL     1      27.699   2.898  54.895  1.00  0.00     0.156 HD
HETATM   30  H24 UNL     1      27.641   3.612  53.287  1.00  0.00     0.156 HD
ENDBRANCH  10  28
TORSDOF 7
ENDMDL
MODEL 3
REMARK VINA RESULT:      -8.0      2.345      5.163
REMARK  7 active torsions:
REMARK  status: ('A' for Active; 'I' for Inactive)
REMARK    1  A    between atoms: O1_2  and  C2_3 
REMARK    2  A    between atoms: C5_6  and  C6_7 
REMARK    3  A    between atoms: C6_7  and  C7_8 
REMARK    4  A    between atoms: C7_8  and  C8_9 
REMARK    5  A    between atoms: C8_9  and  N1_10 
REMARK    6  A    between atoms: N1_10  and  C9_11 
REMARK    7  A    between atoms: C22_26  and  N2_27 
ROOT
HETATM    1  C8  UNL     1      25.187   2.299  52.035  1.00  0.00     0.094 C 
HETATM    2  C16 UNL     1      26.131   2.608  50.842  1.00  0.00     0.026 C 
HETATM    3  C17 UNL     1      25.339   2.920  49.823  1.00  0.00     0.012 C 
HETATM    4  C18 UNL     1      24.799   4.121  49.944  1.00  0.00     0.115 C 
HETATM    5  O2  UNL     1      24.640   4.968  48.840  1.00  0.00    -0.345 OA
HETATM    6  C19 UNL     1      24.052   6.249  49.013  1.00  0.00     0.202 C 
HETATM    7  C20 UNL     1      24.215   6.741  50.428  1.00  0.00     0.202 C 
HETATM    8  O3  UNL     1      23.828   5.767  51.392  1.00  0.00    -0.344 OA
HETATM    9  C21 UNL     1      24.381   4.509  51.308  1.00  0.00     0.128 C 
HETATM   10  C22 UNL     1      24.581   3.616  52.292  1.00  0.00     0.072 C 
ENDROOT
BRANCH   1  11
HETATM   11  C7  UNL     1      24.177   1.330  51.540  1.00  0.00     0.046 C 
BRANCH  11  12
HETATM   12  C6  UNL     1      22.834   1.309  52.138  1.00  0.00     0.044 C 
BRANCH  12  13
HETATM   13  C5  UNL     1      22.550   0.293  53.164  1.00  0.00    -0.025 A 
HETATM   14  C2  UNL     1      21.369  -0.223  53.830  1.00  0.00     0.074 A 
HETATM   15  C3  UNL     1      22.171  -1.053  54.517  1.00  0.00     0.038 A 
HETATM   16  C4  UNL     1      23.366  -0.532  53.844  1.00  0.00     0.012 A 
BRANCH  14  17
HETATM   17  O1  UNL     1      20.001   0.006  53.804  1.00  0.00    -0.355 OA
HETATM   18  C1  UNL     1      19.287  -0.085  52.570  1.00  0.00     0.210 C 
ENDBRANCH  14  17
ENDBRANCH  12  13
ENDBRANCH  11  12
ENDBRANCH   1  11
BRANCH   1  19
HETATM   19  N1  UNL     1      26.033   1.810  53.099  1.00  0.00    -0.371 N 
HETATM   20  H10 UNL     1      25.851   2.360  53.979  1.00  0.00     0.161 HD
BRANCH  19  21
HETATM   21  C9  UNL     1      26.996   0.781  53.142  1.00  0.00     0.035 A 
HETATM   22  C10 UNL     1      26.754  -0.556  52.924  1.00  0.00     0.029 A 
HETATM   23  C11 UNL     1      27.707  -1.550  52.978  1.00  0.00     0.002 A 
HETATM   24  C12 UNL     1      28.989  -1.171  53.271  1.00  0.00     0.001 A 
HETATM   25  C13 UNL     1      29.283   0.154  53.498  1.00  0.00     0.009 A 
HETATM   26  C14 UNL     1      28.297   1.108  53.432  1.00  0.00    -0.036 A 
HETATM   27  C15 UNL     1      28.682   2.533  53.688  1.00  0.00     0.050 C 
ENDBRANCH  19  21
ENDBRANCH   1  19
BRANCH  10  28
HETATM   28  N2  UNL     1      24.147   4.187  53.534  1.00  0.00    -0.398 N 
HETATM   29  H23 UNL     1      24.756   4.702  54.190  1.00  0.00     0.156 HD
HETATM   30  H24 UNL     1      23.146   4.093  53.824  1.00  0.00     0.156 HD
ENDBRANCH  10  28
TORSDOF 7
ENDMDL
MODEL 4
REMARK VINA RESULT:      -7.9      1.984      5.537
REMARK  7 active torsions:
REMARK  status: ('A' for Active; 'I' for Inactive)
REMARK    1  A    between atoms: O1_2  and  C2_3 
REMARK    2  A    between atoms: C5_6  and  C6_7 
REMARK    3  A    between atoms: C6_7  and  C7_8 
REMARK    4  A    between atoms: C7_8  and  C8_9 
REMARK    5  A    between atoms: C8_9  and  N1_10 
REMARK    6  A    between atoms: N1_10  and  C9_11 
REMARK    7  A    between atoms: C22_26  and  N2_27 
ROOT
HETATM    1  C8  UNL     1      24.616   1.177  52.801  1.00  0.00     0.094 C 
HETATM    2  C16 UNL     1      25.044  -0.299  53.015  1.00  0.00     0.026 C 
HETATM    3  C17 UNL     1      26.177  -0.450  52.339  1.00  0.00     0.012 C 
HETATM    4  C18 UNL     1      27.208   0.128  52.933  1.00  0.00     0.115 C 
HETATM    5  O2  UNL     1      28.475  -0.469  52.947  1.00  0.00    -0.345 OA
HETATM    6  C19 UNL     1      29.556   0.187  53.593  1.00  0.00     0.202 C 
HETATM    7  C20 UNL     1      29.066   1.135  54.657  1.00  0.00     0.202 C 
HETATM    8  O3  UNL     1      28.035   1.997  54.186  1.00  0.00    -0.344 OA
HETATM    9  C21 UNL     1      26.938   1.431  53.576  1.00  0.00     0.128 C 
HETATM   10  C22 UNL     1      25.684   1.909  53.499  1.00  0.00     0.072 C 
ENDROOT
BRANCH   1  11
HETATM   11  C7  UNL     1      24.660   1.426  51.338  1.00  0.00     0.046 C 
BRANCH  11  12
HETATM   12  C6  UNL     1      24.367   2.771  50.819  1.00  0.00     0.044 C 
BRANCH  12  13
HETATM   13  C5  UNL     1      25.436   3.480  50.096  1.00  0.00    -0.025 A 
HETATM   14  C2  UNL     1      25.654   4.826  49.605  1.00  0.00     0.074 A 
HETATM   15  C3  UNL     1      26.850   4.421  49.146  1.00  0.00     0.038 A 
HETATM   16  C4  UNL     1      26.630   3.058  49.643  1.00  0.00     0.012 A 
BRANCH  14  17
HETATM   17  O1  UNL     1      24.966   6.032  49.590  1.00  0.00    -0.355 OA
HETATM   18  C1  UNL     1      24.599   6.657  50.821  1.00  0.00     0.210 C 
ENDBRANCH  14  17
ENDBRANCH  12  13
ENDBRANCH  11  12
ENDBRANCH   1  11
BRANCH   1  19
HETATM   19  N1  UNL     1      23.308   1.306  53.403  1.00  0.00    -0.371 N 
HETATM   20  H10 UNL     1      23.382   1.850  54.302  1.00  0.00     0.161 HD
BRANCH  19  21
HETATM   21  C9  UNL     1      22.035   0.850  53.001  1.00  0.00     0.035 A 
HETATM   22  C10 UNL     1      21.326   1.303  51.913  1.00  0.00     0.029 A 
HETATM   23  C11 UNL     1      20.079   0.852  51.540  1.00  0.00     0.002 A 
HETATM   24  C12 UNL     1      19.507  -0.120  52.316  1.00  0.00     0.001 A 
HETATM   25  C13 UNL     1      20.176  -0.606  53.417  1.00  0.00     0.009 A 
HETATM   26  C14 UNL     1      21.419  -0.124  53.747  1.00  0.00    -0.036 A 
HETATM   27  C15 UNL     1      22.095  -0.694  54.955  1.00  0.00     0.050 C 
ENDBRANCH  19  21
ENDBRANCH   1  19
BRANCH  10  28
HETATM   28  N2  UNL     1      25.617   3.155  54.208  1.00  0.00    -0.398 N 
HETATM   29  H23 UNL     1      26.322   3.484  54.887  1.00  0.00     0.156 HD
HETATM   30  H24 UNL     1      24.808   3.798  54.046  1.00  0.00     0.156 HD
ENDBRANCH  10  28
TORSDOF 7
ENDMDL
MODEL 5
REMARK VINA RESULT:      -7.9      1.275      2.173
REMARK  7 active torsions:
REMARK  status: ('A' for Active; 'I' for Inactive)
REMARK    1  A    between atoms: O1_2  and  C2_3 
REMARK    2  A    between atoms: C5_6  and  C6_7 
REMARK    3  A    between atoms: C6_7  and  C7_8 
REMARK    4  A    between atoms: C7_8  and  C8_9 
REMARK    5  A    between atoms: C8_9  and  N1_10 
REMARK    6  A    between atoms: N1_10  and  C9_11 
REMARK    7  A    between atoms: C22_26  and  N2_27 
ROOT
HETATM    1  C8  UNL     1      23.827   2.517  51.496  1.00  0.00     0.094 C 
HETATM    2  C16 UNL     1      23.012   3.405  52.474  1.00  0.00     0.026 C 
HETATM    3  C17 UNL     1      23.695   4.538  52.590  1.00  0.00     0.012 C 
HETATM    4  C18 UNL     1      23.597   5.307  51.518  1.00  0.00     0.115 C 
HETATM    5  O2  UNL     1      23.488   6.700  51.623  1.00  0.00    -0.345 OA
HETATM    6  C19 UNL     1      23.388   7.488  50.447  1.00  0.00     0.202 C 
HETATM    7  C20 UNL     1      22.833   6.691  49.295  1.00  0.00     0.202 C 
HETATM    8  O3  UNL     1      23.497   5.443  49.127  1.00  0.00    -0.344 OA
HETATM    9  C21 UNL     1      23.606   4.608  50.216  1.00  0.00     0.128 C 
HETATM   10  C22 UNL     1      23.715   3.268  50.236  1.00  0.00     0.072 C 
ENDROOT
BRANCH   1  11
HETATM   11  C7  UNL     1      25.226   2.507  51.995  1.00  0.00     0.046 C 
BRANCH  11  12
HETATM   12  C6  UNL     1      26.212   1.608  51.376  1.00  0.00     0.044 C 
BRANCH  12  13
HETATM   13  C5  UNL     1      26.774   0.526  52.201  1.00  0.00    -0.025 A 
HETATM   14  C2  UNL     1      27.578   0.436  53.405  1.00  0.00     0.074 A 
HETATM   15  C3  UNL     1      27.514  -0.902  53.297  1.00  0.00     0.038 A 
HETATM   16  C4  UNL     1      26.701  -0.811  52.079  1.00  0.00     0.012 A 
BRANCH  14  17
HETATM   17  O1  UNL     1      28.172   1.310  54.304  1.00  0.00    -0.355 OA
HETATM   18  C1  UNL     1      28.849   2.473  53.824  1.00  0.00     0.210 C 
ENDBRANCH  14  17
ENDBRANCH  12  13
ENDBRANCH  11  12
ENDBRANCH   1  11
BRANCH   1  19
HETATM   19  N1  UNL     1      23.173   1.228  51.486  1.00  0.00    -0.371 N 
HETATM   20  H10 UNL     1      23.120   0.864  50.500  1.00  0.00     0.161 HD
BRANCH  19  21
HETATM   21  C9  UNL     1      22.634   0.435  52.521  1.00  0.00     0.035 A 
HETATM   22  C10 UNL     1      23.343  -0.117  53.563  1.00  0.00     0.029 A 
HETATM   23  C11 UNL     1      22.801  -0.896  54.561  1.00  0.00     0.002 A 
HETATM   24  C12 UNL     1      21.454  -1.136  54.505  1.00  0.00     0.001 A 
HETATM   25  C13 UNL     1      20.701  -0.607  53.483  1.00  0.00     0.009 A 
HETATM   26  C14 UNL     1      21.288   0.165  52.511  1.00  0.00    -0.036 A 
HETATM   27  C15 UNL     1      20.414   0.713  51.425  1.00  0.00     0.050 C 
ENDBRANCH  19  21
ENDBRANCH   1  19
BRANCH  10  28
HETATM   28  N2  UNL     1      23.670   2.778  48.888  1.00  0.00    -0.398 N 
HETATM   29  H23 UNL     1      23.354   3.327  48.073  1.00  0.00     0.156 HD
HETATM   30  H24 UNL     1      23.972   1.797  48.685  1.00  0.00     0.156 HD
ENDBRANCH  10  28
TORSDOF 7
ENDMDL
MODEL 6
REMARK VINA RESULT:      -7.8      2.150      6.355
REMARK  7 active torsions:
REMARK  status: ('A' for Active; 'I' for Inactive)
REMARK    1  A    between atoms: O1_2  and  C2_3 
REMARK    2  A    between atoms: C5_6  and  C6_7 
REMARK    3  A    between atoms: C6_7  and  C7_8 
REMARK    4  A    between atoms: C7_8  and  C8_9 
REMARK    5  A    between atoms: C8_9  and  N1_10 
REMARK    6  A    between atoms: N1_10  and  C9_11 
REMARK    7  A    between atoms: C22_26  and  N2_27 
ROOT
HETATM    1  C8  UNL     1      25.208   1.178  52.578  1.00  0.00     0.094 C 
HETATM    2  C16 UNL     1      25.272  -0.357  52.802  1.00  0.00     0.026 C 
HETATM    3  C17 UNL     1      26.413  -0.756  52.252  1.00  0.00     0.012 C 
HETATM    4  C18 UNL     1      27.472  -0.422  52.970  1.00  0.00     0.115 C 
HETATM    5  O2  UNL     1      28.566  -1.286  53.110  1.00  0.00    -0.345 OA
HETATM    6  C19 UNL     1      29.684  -0.887  53.888  1.00  0.00     0.202 C 
HETATM    7  C20 UNL     1      29.299   0.147  54.914  1.00  0.00     0.202 C 
HETATM    8  O3  UNL     1      28.545   1.216  54.354  1.00  0.00    -0.344 OA
HETATM    9  C21 UNL     1      27.426   0.909  53.612  1.00  0.00     0.128 C 
HETATM   10  C22 UNL     1      26.326   1.654  53.409  1.00  0.00     0.072 C 
ENDROOT
BRANCH   1  11
HETATM   11  C7  UNL     1      25.472   1.410  51.136  1.00  0.00     0.046 C 
BRANCH  11  12
HETATM   12  C6  UNL     1      26.040   2.694  50.697  1.00  0.00     0.044 C 
BRANCH  12  13
HETATM   13  C5  UNL     1      25.180   3.600  49.918  1.00  0.00    -0.025 A 
HETATM   14  C2  UNL     1      25.111   5.028  49.675  1.00  0.00     0.074 A 
HETATM   15  C3  UNL     1      24.048   4.799  48.886  1.00  0.00     0.038 A 
HETATM   16  C4  UNL     1      24.117   3.354  49.131  1.00  0.00     0.012 A 
BRANCH  14  17
HETATM   17  O1  UNL     1      25.808   6.164  50.062  1.00  0.00    -0.355 OA
HETATM   18  C1  UNL     1      25.095   7.325  50.490  1.00  0.00     0.210 C 
ENDBRANCH  14  17
ENDBRANCH  12  13
ENDBRANCH  11  12
ENDBRANCH   1  11
BRANCH   1  19
HETATM   19  N1  UNL     1      23.902   1.595  53.035  1.00  0.00    -0.371 N 
HETATM   20  H10 UNL     1      23.633   1.047  53.894  1.00  0.00     0.161 HD
BRANCH  19  21
HETATM   21  C9  UNL     1      22.994   2.556  52.546  1.00  0.00     0.035 A 
HETATM   22  C10 UNL     1      23.092   3.917  52.719  1.00  0.00     0.029 A 
HETATM   23  C11 UNL     1      22.190   4.842  52.241  1.00  0.00     0.002 A 
HETATM   24  C12 UNL     1      21.116   4.363  51.541  1.00  0.00     0.001 A 
HETATM   25  C13 UNL     1      20.971   3.010  51.340  1.00  0.00     0.009 A 
HETATM   26  C14 UNL     1      21.899   2.127  51.837  1.00  0.00    -0.036 A 
HETATM   27  C15 UNL     1      21.685   0.667  51.584  1.00  0.00     0.050 C 
ENDBRANCH  19  21
ENDBRANCH   1  19
BRANCH  10  28
HETATM   28  N2  UNL     1      26.456   2.883  54.137  1.00  0.00    -0.398 N 
HETATM   29  H23 UNL     1      25.923   3.745  53.937  1.00  0.00     0.156 HD
HETATM   30  H24 UNL     1      27.131   2.942  54.935  1.00  0.00     0.156 HD
ENDBRANCH  10  28
TORSDOF 7
ENDMDL
MODEL 7
REMARK VINA RESULT:      -7.8      2.929      5.823
REMARK  7 active torsions:
REMARK  status: ('A' for Active; 'I' for Inactive)
REMARK    1  A    between atoms: O1_2  and  C2_3 
REMARK    2  A    between atoms: C5_6  and  C6_7 
REMARK    3  A    between atoms: C6_7  and  C7_8 
REMARK    4  A    between atoms: C7_8  and  C8_9 
REMARK    5  A    between atoms: C8_9  and  N1_10 
REMARK    6  A    between atoms: N1_10  and  C9_11 
REMARK    7  A    between atoms: C22_26  and  N2_27 
ROOT
HETATM    1  C8  UNL     1      24.831   3.819  50.865  1.00  0.00     0.094 C 
HETATM    2  C16 UNL     1      24.076   3.585  49.529  1.00  0.00     0.026 C 
HETATM    3  C17 UNL     1      23.315   2.514  49.725  1.00  0.00     0.012 C 
HETATM    4  C18 UNL     1      22.264   2.767  50.488  1.00  0.00     0.115 C 
HETATM    5  O2  UNL     1      21.013   2.192  50.226  1.00  0.00    -0.345 OA
HETATM    6  C19 UNL     1      19.912   2.487  51.072  1.00  0.00     0.202 C 
HETATM    7  C20 UNL     1      20.094   3.809  51.771  1.00  0.00     0.202 C 
HETATM    8  O3  UNL     1      21.373   3.928  52.386  1.00  0.00    -0.344 OA
HETATM    9  C21 UNL     1      22.492   3.688  51.621  1.00  0.00     0.128 C 
HETATM   10  C22 UNL     1      23.733   4.180  51.776  1.00  0.00     0.072 C 
ENDROOT
BRANCH   1  11
HETATM   11  C7  UNL     1      25.440   2.519  51.244  1.00  0.00     0.046 C 
BRANCH  11  12
HETATM   12  C6  UNL     1      25.710   2.227  52.660  1.00  0.00     0.044 C 
BRANCH  12  13
HETATM   13  C5  UNL     1      25.131   1.003  53.236  1.00  0.00    -0.025 A 
HETATM   14  C2  UNL     1      25.539   0.006  54.207  1.00  0.00     0.074 A 
HETATM   15  C3  UNL     1      24.365  -0.614  54.002  1.00  0.00     0.038 A 
HETATM   16  C4  UNL     1      23.951   0.394  53.019  1.00  0.00     0.012 A 
BRANCH  14  17
HETATM   17  O1  UNL     1      26.640  -0.241  55.015  1.00  0.00    -0.355 OA
HETATM   18  C1  UNL     1      27.951   0.084  54.550  1.00  0.00     0.210 C 
ENDBRANCH  14  17
ENDBRANCH  12  13
ENDBRANCH  11  12
ENDBRANCH   1  11
BRANCH   1  19
HETATM   19  N1  UNL     1      25.774   4.884  50.611  1.00  0.00    -0.371 N 
HETATM   20  H10 UNL     1      26.625   4.759  51.218  1.00  0.00     0.161 HD
BRANCH  19  21
HETATM   21  C9  UNL     1      25.736   5.988  49.734  1.00  0.00     0.035 A 
HETATM   22  C10 UNL     1      24.825   7.018  49.777  1.00  0.00     0.029 A 
HETATM   23  C11 UNL     1      24.797   8.086  48.907  1.00  0.00     0.002 A 
HETATM   24  C12 UNL     1      25.752   8.117  47.926  1.00  0.00     0.001 A 
HETATM   25  C13 UNL     1      26.686   7.111  47.840  1.00  0.00     0.009 A 
HETATM   26  C14 UNL     1      26.672   6.067  48.733  1.00  0.00    -0.036 A 
HETATM   27  C15 UNL     1      27.716   5.003  48.586  1.00  0.00     0.050 C 
ENDBRANCH  19  21
ENDBRANCH   1  19
BRANCH  10  28
HETATM   28  N2  UNL     1      23.742   5.073  52.898  1.00  0.00    -0.398 N 
HETATM   29  H23 UNL     1      22.898   5.460  53.349  1.00  0.00     0.156 HD
HETATM   30  H24 UNL     1      24.656   5.373  53.313  1.00  0.00     0.156 HD
ENDBRANCH  10  28
TORSDOF 7
ENDMDL
MODEL 8
REMARK VINA RESULT:      -7.7      2.552      3.542
REMARK  7 active torsions:
REMARK  status: ('A' for Active; 'I' for Inactive)
REMARK    1  A    between atoms: O1_2  and  C2_3 
REMARK    2  A    between atoms: C5_6  and  C6_7 
REMARK    3  A    between atoms: C6_7  and  C7_8 
REMARK    4  A    between atoms: C7_8  and  C8_9 
REMARK    5  A    between atoms: C8_9  and  N1_10 
REMARK    6  A    between atoms: N1_10  and  C9_11 
REMARK    7  A    between atoms: C22_26  and  N2_27 
ROOT
HETATM    1  C8  UNL     1      24.085   2.516  51.356  1.00  0.00     0.094 C 
HETATM    2  C16 UNL     1      23.508   3.297  52.567  1.00  0.00     0.026 C 
HETATM    3  C17 UNL     1      23.634   4.583  52.262  1.00  0.00     0.012 C 
HETATM    4  C18 UNL     1      22.760   4.982  51.353  1.00  0.00     0.115 C 
HETATM    5  O2  UNL     1      22.146   6.240  51.429  1.00  0.00    -0.345 OA
HETATM    6  C19 UNL     1      21.216   6.630  50.430  1.00  0.00     0.202 C 
HETATM    7  C20 UNL     1      20.590   5.432  49.763  1.00  0.00     0.202 C 
HETATM    8  O3  UNL     1      21.557   4.476  49.342  1.00  0.00    -0.344 OA
HETATM    9  C21 UNL     1      22.475   4.025  50.265  1.00  0.00     0.128 C 
HETATM   10  C22 UNL     1      23.123   2.847  50.293  1.00  0.00     0.072 C 
ENDROOT
BRANCH   1  11
HETATM   11  C7  UNL     1      25.422   3.096  51.072  1.00  0.00     0.046 C 
BRANCH  11  12
HETATM   12  C6  UNL     1      25.891   3.197  49.682  1.00  0.00     0.044 C 
BRANCH  12  13
HETATM   13  C5  UNL     1      26.257   4.529  49.172  1.00  0.00    -0.025 A 
HETATM   14  C2  UNL     1      27.465   5.170  48.690  1.00  0.00     0.074 A 
HETATM   15  C3  UNL     1      26.743   6.287  48.493  1.00  0.00     0.038 A 
HETATM   16  C4  UNL     1      25.521   5.638  48.981  1.00  0.00     0.012 A 
BRANCH  14  17
HETATM   17  O1  UNL     1      28.796   4.828  48.499  1.00  0.00    -0.355 OA
HETATM   18  C1  UNL     1      29.705   5.783  47.948  1.00  0.00     0.210 C 
ENDBRANCH  14  17
ENDBRANCH  12  13
ENDBRANCH  11  12
ENDBRANCH   1  11
BRANCH   1  19
HETATM   19  N1  UNL     1      24.093   1.124  51.745  1.00  0.00    -0.371 N 
HETATM   20  H10 UNL     1      24.883   0.624  51.261  1.00  0.00     0.161 HD
BRANCH  19  21
HETATM   21  C9  UNL     1      23.265   0.382  52.612  1.00  0.00     0.035 A 
HETATM   22  C10 UNL     1      21.903   0.228  52.489  1.00  0.00     0.029 A 
HETATM   23  C11 UNL     1      21.108  -0.494  53.352  1.00  0.00     0.002 A 
HETATM   24  C12 UNL     1      21.727  -1.102  54.411  1.00  0.00     0.001 A 
HETATM   25  C13 UNL     1      23.087  -0.978  54.580  1.00  0.00     0.009 A 
HETATM   26  C14 UNL     1      23.837  -0.247  53.690  1.00  0.00    -0.036 A 
HETATM   27  C15 UNL     1      25.312  -0.152  53.929  1.00  0.00     0.050 C 
ENDBRANCH  19  21
ENDBRANCH   1  19
BRANCH  10  28
HETATM   28  N2  UNL     1      22.687   2.050  49.183  1.00  0.00    -0.398 N 
HETATM   29  H23 UNL     1      21.767   1.586  49.117  1.00  0.00     0.156 HD
HETATM   30  H24 UNL     1      23.325   1.910  48.365  1.00  0.00     0.156 HD
ENDBRANCH  10  28
TORSDOF 7
ENDMDL
MODEL 9
REMARK VINA RESULT:      -7.6      2.116      5.193
REMARK  7 active torsions:
REMARK  status: ('A' for Active; 'I' for Inactive)
REMARK    1  A    between atoms: O1_2  and  C2_3 
REMARK    2  A    between atoms: C5_6  and  C6_7 
REMARK    3  A    between atoms: C6_7  and  C7_8 
REMARK    4  A    between atoms: C7_8  and  C8_9 
REMARK    5  A    between atoms: C8_9  and  N1_10 
REMARK    6  A    between atoms: N1_10  and  C9_11 
REMARK    7  A    between atoms: C22_26  and  N2_27 
ROOT
HETATM    1  C8  UNL     1      24.051   2.609  52.224  1.00  0.00     0.094 C 
HETATM    2  C16 UNL     1      24.846   2.455  50.900  1.00  0.00     0.026 C 
HETATM    3  C17 UNL     1      24.060   2.939  49.946  1.00  0.00     0.012 C 
HETATM    4  C18 UNL     1      23.988   4.259  49.963  1.00  0.00     0.115 C 
HETATM    5  O2  UNL     1      23.959   5.008  48.779  1.00  0.00    -0.345 OA
HETATM    6  C19 UNL     1      23.878   6.424  48.843  1.00  0.00     0.202 C 
HETATM    7  C20 UNL     1      24.416   6.947  50.149  1.00  0.00     0.202 C 
HETATM    8  O3  UNL     1      23.875   6.263  51.274  1.00  0.00    -0.344 OA
HETATM    9  C21 UNL     1      23.945   4.888  51.300  1.00  0.00     0.128 C 
HETATM   10  C22 UNL     1      23.978   4.072  52.367  1.00  0.00     0.072 C 
ENDROOT
BRANCH   1  11
HETATM   11  C7  UNL     1      22.707   2.025  51.984  1.00  0.00     0.046 C 
BRANCH  11  12
HETATM   12  C6  UNL     1      22.512   0.572  52.111  1.00  0.00     0.044 C 
BRANCH  12  13
HETATM   13  C5  UNL     1      21.233   0.092  52.661  1.00  0.00    -0.025 A 
HETATM   14  C2  UNL     1      20.786  -0.505  53.904  1.00  0.00     0.074 A 
HETATM   15  C3  UNL     1      19.544  -0.538  53.392  1.00  0.00     0.038 A 
HETATM   16  C4  UNL     1      19.996   0.066  52.134  1.00  0.00     0.012 A 
BRANCH  14  17
HETATM   17  O1  UNL     1      21.349  -0.890  55.112  1.00  0.00    -0.355 OA
HETATM   18  C1  UNL     1      22.686  -1.391  55.147  1.00  0.00     0.210 C 
ENDBRANCH  14  17
ENDBRANCH  12  13
ENDBRANCH  11  12
ENDBRANCH   1  11
BRANCH   1  19
HETATM   19  N1  UNL     1      24.833   1.945  53.241  1.00  0.00    -0.371 N 
HETATM   20  H10 UNL     1      24.205   1.634  54.027  1.00  0.00     0.161 HD
BRANCH  19  21
HETATM   21  C9  UNL     1      26.212   1.665  53.338  1.00  0.00     0.035 A 
HETATM   22  C10 UNL     1      27.209   2.593  53.533  1.00  0.00     0.029 A 
HETATM   23  C11 UNL     1      28.553   2.302  53.617  1.00  0.00     0.002 A 
HETATM   24  C12 UNL     1      28.917   0.988  53.496  1.00  0.00     0.001 A 
HETATM   25  C13 UNL     1      27.958   0.022  53.299  1.00  0.00     0.009 A 
HETATM   26  C14 UNL     1      26.629   0.362  53.223  1.00  0.00    -0.036 A 
HETATM   27  C15 UNL     1      25.634  -0.736  53.009  1.00  0.00     0.050 C 
ENDBRANCH  19  21
ENDBRANCH   1  19
BRANCH  10  28
HETATM   28  N2  UNL     1      23.963   4.867  53.561  1.00  0.00    -0.398 N 
HETATM   29  H23 UNL     1      24.672   4.816  54.311  1.00  0.00     0.156 HD
HETATM   30  H24 UNL     1      23.192   5.558  53.713  1.00  0.00     0.156 HD
ENDBRANCH  10  28
TORSDOF 7
ENDMDL
