MODEL 1
REMARK VINA RESULT:      -7.3      0.000      0.000
REMARK  7 active torsions:
REMARK  status: ('A' for Active; 'I' for Inactive)
REMARK    1  A    between atoms: C2_2  and  N1_3 
REMARK    2  A    between atoms: C2_2  and  C3_4 
REMARK    3  A    between atoms: C8_10  and  N2_11 
REMARK    4  A    between atoms: N2_11  and  C9_12 
REMARK    5  A    between atoms: C10_14  and  C11_15 
REMARK    6  A    between atoms: C12_16  and  C13_17 
REMARK    7  A    between atoms: C13_17  and  C14_18 
ROOT
HETATM    1  C3  UNL     1      27.606   0.454  53.124  1.00  0.00     0.001 A 
HETATM    2  C4  UNL     1      28.939   0.100  53.379  1.00  0.00     0.014 A 
HETATM    3  C5  UNL     1      29.455  -1.178  53.420  1.00  0.00     0.043 A 
HETATM    4  C6  UNL     1      28.558  -2.197  53.182  1.00  0.00     0.118 A 
HETATM    5  F1  UNL     1      29.033  -3.462  53.213  1.00  0.00    -0.206 F 
HETATM    6  C7  UNL     1      27.238  -1.890  52.927  1.00  0.00     0.072 A 
HETATM    7  C8  UNL     1      26.730  -0.613  52.890  1.00  0.00     0.044 A 
ENDROOT
BRANCH   7   8
HETATM    8  N2  UNL     1      25.361  -0.339  52.633  1.00  0.00    -0.344 N 
HETATM    9  H10 UNL     1      25.055   0.128  51.756  1.00  0.00     0.167 HD
BRANCH   8  10
HETATM   10  C9  UNL     1      24.326  -0.684  53.557  1.00  0.00     0.108 A 
HETATM   11  N3  UNL     1      23.093  -0.779  53.199  1.00  0.00    -0.236 NA
HETATM   12  C10 UNL     1      22.295  -1.133  54.319  1.00  0.00     0.055 A 
HETATM   13  C15 UNL     1      23.056  -1.259  55.387  1.00  0.00     0.012 A 
HETATM   14  C16 UNL     1      24.486  -0.977  55.006  1.00  0.00     0.108 A 
BRANCH  12  15
HETATM   15  C11 UNL     1      20.857  -1.322  54.284  1.00  0.00     0.027 C 
HETATM   16  C12 UNL     1      19.947  -0.762  53.514  1.00  0.00    -0.024 C 
BRANCH  16  17
HETATM   17  C13 UNL     1      19.638   0.179  52.423  1.00  0.00     0.038 C 
BRANCH  17  18
HETATM   18  C14 UNL     1      20.289   1.536  52.714  1.00  0.00     0.089 C 
HETATM   19 BR1  UNL     1      21.481   1.925  51.260  1.00  0.00    -0.096 Br
ENDBRANCH  17  18
ENDBRANCH  16  17
ENDBRANCH  12  15
ENDBRANCH   8  10
ENDBRANCH   7   8
BRANCH   1  20
HETATM   20  C2  UNL     1      27.200   1.882  53.100  1.00  0.00     0.249 C 
HETATM   21  C1  UNL     1      26.966   2.402  51.693  1.00  0.00     0.047 C 
BRANCH  20  22
HETATM   22  N1  UNL     1      27.976   2.747  53.928  1.00  0.00     0.086 N 
HETATM   23  H5  UNL     1      27.772   3.754  53.714  1.00  0.00     0.313 HD
HETATM   24  H6  UNL     1      27.796   2.603  54.947  1.00  0.00     0.313 HD
ENDBRANCH  20  22
ENDBRANCH   1  20
TORSDOF 7
ENDMDL
MODEL 2
REMARK VINA RESULT:      -7.2      3.955      6.834
REMARK  7 active torsions:
REMARK  status: ('A' for Active; 'I' for Inactive)
REMARK    1  A    between atoms: C2_2  and  N1_3 
REMARK    2  A    between atoms: C2_2  and  C3_4 
REMARK    3  A    between atoms: C8_10  and  N2_11 
REMARK    4  A    between atoms: N2_11  and  C9_12 
REMARK    5  A    between atoms: C10_14  and  C11_15 
REMARK    6  A    between atoms: C12_16  and  C13_17 
REMARK    7  A    between atoms: C13_17  and  C14_18 
ROOT
HETATM    1  C3  UNL     1      27.396   0.686  53.542  1.00  0.00     0.001 A 
HETATM    2  C4  UNL     1      26.941   0.088  54.727  1.00  0.00     0.014 A 
HETATM    3  C5  UNL     1      25.673  -0.400  54.965  1.00  0.00     0.043 A 
HETATM    4  C6  UNL     1      24.777  -0.282  53.924  1.00  0.00     0.118 A 
HETATM    5  F1  UNL     1      23.527  -0.753  54.127  1.00  0.00    -0.206 F 
HETATM    6  C7  UNL     1      25.186   0.300  52.743  1.00  0.00     0.072 A 
HETATM    7  C8  UNL     1      26.451   0.786  52.513  1.00  0.00     0.044 A 
ENDROOT
BRANCH   7   8
HETATM    8  N2  UNL     1      26.830   1.387  51.284  1.00  0.00    -0.344 N 
HETATM    9  H10 UNL     1      27.539   0.951  50.660  1.00  0.00     0.167 HD
BRANCH   8  10
HETATM   10  C9  UNL     1      26.266   2.620  50.830  1.00  0.00     0.108 A 
HETATM   11  N3  UNL     1      26.890   3.400  50.017  1.00  0.00    -0.236 NA
HETATM   12  C10 UNL     1      26.093   4.543  49.744  1.00  0.00     0.055 A 
HETATM   13  C15 UNL     1      24.955   4.462  50.404  1.00  0.00     0.012 A 
HETATM   14  C16 UNL     1      24.939   3.182  51.198  1.00  0.00     0.108 A 
BRANCH  12  15
HETATM   15  C11 UNL     1      26.483   5.634  48.871  1.00  0.00     0.027 C 
HETATM   16  C12 UNL     1      27.655   5.919  48.342  1.00  0.00    -0.024 C 
BRANCH  16  17
HETATM   17  C13 UNL     1      29.077   5.566  48.187  1.00  0.00     0.038 C 
BRANCH  17  18
HETATM   18  C14 UNL     1      29.912   6.844  48.049  1.00  0.00     0.089 C 
HETATM   19 BR1  UNL     1      29.188   7.846  46.580  1.00  0.00    -0.096 Br
ENDBRANCH  17  18
ENDBRANCH  16  17
ENDBRANCH  12  15
ENDBRANCH   8  10
ENDBRANCH   7   8
BRANCH   1  20
HETATM   20  C2  UNL     1      28.800   1.154  53.429  1.00  0.00     0.249 C 
HETATM   21  C1  UNL     1      29.809   0.043  53.660  1.00  0.00     0.047 C 
BRANCH  20  22
HETATM   22  N1  UNL     1      29.091   2.369  54.116  1.00  0.00     0.086 N 
HETATM   23  H5  UNL     1      28.948   3.198  53.489  1.00  0.00     0.313 HD
HETATM   24  H6  UNL     1      28.495   2.511  54.961  1.00  0.00     0.313 HD
ENDBRANCH  20  22
ENDBRANCH   1  20
TORSDOF 7
ENDMDL
MODEL 3
REMARK VINA RESULT:      -7.0      4.017      6.566
REMARK  7 active torsions:
REMARK  status: ('A' for Active; 'I' for Inactive)
REMARK    1  A    between atoms: C2_2  and  N1_3 
REMARK    2  A    between atoms: C2_2  and  C3_4 
REMARK    3  A    between atoms: C8_10  and  N2_11 
REMARK    4  A    between atoms: N2_11  and  C9_12 
REMARK    5  A    between atoms: C10_14  and  C11_15 
REMARK    6  A    between atoms: C12_16  and  C13_17 
REMARK    7  A    between atoms: C13_17  and  C14_18 
ROOT
HETATM    1  C3  UNL     1      24.084   3.472  49.437  1.00  0.00     0.001 A 
HETATM    2  C4  UNL     1      23.302   3.433  48.273  1.00  0.00     0.014 A 
HETATM    3  C5  UNL     1      22.247   2.581  48.022  1.00  0.00     0.043 A 
HETATM    4  C6  UNL     1      21.943   1.688  49.026  1.00  0.00     0.118 A 
HETATM    5  F1  UNL     1      20.912   0.841  48.811  1.00  0.00    -0.206 F 
HETATM    6  C7  UNL     1      22.688   1.695  50.186  1.00  0.00     0.072 A 
HETATM    7  C8  UNL     1      23.739   2.546  50.429  1.00  0.00     0.044 A 
ENDROOT
BRANCH   7   8
HETATM    8  N2  UNL     1      24.489   2.515  51.634  1.00  0.00    -0.344 N 
HETATM    9  H10 UNL     1      24.814   3.389  52.096  1.00  0.00     0.167 HD
BRANCH   8  10
HETATM   10  C9  UNL     1      24.841   1.291  52.285  1.00  0.00     0.108 A 
HETATM   11  N3  UNL     1      25.941   0.672  52.029  1.00  0.00    -0.236 NA
HETATM   12  C10 UNL     1      26.022  -0.505  52.819  1.00  0.00     0.055 A 
HETATM   13  C15 UNL     1      24.949  -0.609  53.576  1.00  0.00     0.012 A 
HETATM   14  C16 UNL     1      24.045   0.566  53.311  1.00  0.00     0.108 A 
BRANCH  12  15
HETATM   15  C11 UNL     1      27.124  -1.448  52.787  1.00  0.00     0.027 C 
HETATM   16  C12 UNL     1      28.389  -1.285  53.117  1.00  0.00    -0.024 C 
BRANCH  16  17
HETATM   17  C13 UNL     1      29.447  -0.390  53.616  1.00  0.00     0.038 C 
BRANCH  17  18
HETATM   18  C14 UNL     1      28.849   0.602  54.621  1.00  0.00     0.089 C 
HETATM   19 BR1  UNL     1      28.663   2.288  53.721  1.00  0.00    -0.096 Br
ENDBRANCH  17  18
ENDBRANCH  16  17
ENDBRANCH  12  15
ENDBRANCH   8  10
ENDBRANCH   7   8
BRANCH   1  20
HETATM   20  C2  UNL     1      25.185   4.459  49.569  1.00  0.00     0.249 C 
HETATM   21  C1  UNL     1      26.560   3.817  49.508  1.00  0.00     0.047 C 
BRANCH  20  22
HETATM   22  N1  UNL     1      25.024   5.410  50.619  1.00  0.00     0.086 N 
HETATM   23  H5  UNL     1      24.979   4.933  51.553  1.00  0.00     0.313 HD
HETATM   24  H6  UNL     1      25.802   6.105  50.662  1.00  0.00     0.313 HD
ENDBRANCH  20  22
ENDBRANCH   1  20
TORSDOF 7
ENDMDL
MODEL 4
REMARK VINA RESULT:      -6.9      4.196      7.119
REMARK  7 active torsions:
REMARK  status: ('A' for Active; 'I' for Inactive)
REMARK    1  A    between atoms: C2_2  and  N1_3 
REMARK    2  A    between atoms: C2_2  and  C3_4 
REMARK    3  A    between atoms: C8_10  and  N2_11 
REMARK    4  A    between atoms: N2_11  and  C9_12 
REMARK    5  A    between atoms: C10_14  and  C11_15 
REMARK    6  A    between atoms: C12_16  and  C13_17 
REMARK    7  A    between atoms: C13_17  and  C14_18 
ROOT
HETATM    1  C3  UNL     1      24.456   0.221  53.388  1.00  0.00     0.001 A 
HETATM    2  C4  UNL     1      23.555  -0.853  53.425  1.00  0.00     0.014 A 
HETATM    3  C5  UNL     1      22.237  -0.832  53.020  1.00  0.00     0.043 A 
HETATM    4  C6  UNL     1      21.776   0.372  52.532  1.00  0.00     0.118 A 
HETATM    5  F1  UNL     1      20.489   0.424  52.126  1.00  0.00    -0.206 F 
HETATM    6  C7  UNL     1      22.632   1.452  52.480  1.00  0.00     0.072 A 
HETATM    7  C8  UNL     1      23.944   1.425  52.886  1.00  0.00     0.044 A 
ENDROOT
BRANCH   7   8
HETATM    8  N2  UNL     1      24.791   2.562  52.825  1.00  0.00    -0.344 N 
HETATM    9  H10 UNL     1      25.062   3.086  53.682  1.00  0.00     0.167 HD
BRANCH   8  10
HETATM   10  C9  UNL     1      25.320   3.056  51.592  1.00  0.00     0.108 A 
HETATM   11  N3  UNL     1      24.824   4.085  50.998  1.00  0.00    -0.236 NA
HETATM   12  C10 UNL     1      25.548   4.342  49.803  1.00  0.00     0.055 A 
HETATM   13  C15 UNL     1      26.508   3.452  49.663  1.00  0.00     0.012 A 
HETATM   14  C16 UNL     1      26.469   2.499  50.829  1.00  0.00     0.108 A 
BRANCH  12  15
HETATM   15  C11 UNL     1      25.262   5.424  48.879  1.00  0.00     0.027 C 
HETATM   16  C12 UNL     1      25.957   6.507  48.601  1.00  0.00    -0.024 C 
BRANCH  16  17
HETATM   17  C13 UNL     1      27.164   7.317  48.846  1.00  0.00     0.038 C 
BRANCH  17  18
HETATM   18  C14 UNL     1      28.146   7.141  47.683  1.00  0.00     0.089 C 
HETATM   19 BR1  UNL     1      29.369   5.744  48.172  1.00  0.00    -0.096 Br
ENDBRANCH  17  18
ENDBRANCH  16  17
ENDBRANCH  12  15
ENDBRANCH   8  10
ENDBRANCH   7   8
BRANCH   1  20
HETATM   20  C2  UNL     1      25.856   0.042  53.849  1.00  0.00     0.249 C 
HETATM   21  C1  UNL     1      26.723  -0.674  52.827  1.00  0.00     0.047 C 
BRANCH  20  22
HETATM   22  N1  UNL     1      25.998  -0.438  55.184  1.00  0.00     0.086 N 
HETATM   23  H5  UNL     1      26.762  -1.155  55.246  1.00  0.00     0.313 HD
HETATM   24  H6  UNL     1      26.227   0.319  55.866  1.00  0.00     0.313 HD
ENDBRANCH  20  22
ENDBRANCH   1  20
TORSDOF 7
ENDMDL
MODEL 5
REMARK VINA RESULT:      -6.7      3.778      6.117
REMARK  7 active torsions:
REMARK  status: ('A' for Active; 'I' for Inactive)
REMARK    1  A    between atoms: C2_2  and  N1_3 
REMARK    2  A    between atoms: C2_2  and  C3_4 
REMARK    3  A    between atoms: C8_10  and  N2_11 
REMARK    4  A    between atoms: N2_11  and  C9_12 
REMARK    5  A    between atoms: C10_14  and  C11_15 
REMARK    6  A    between atoms: C12_16  and  C13_17 
REMARK    7  A    between atoms: C13_17  and  C14_18 
ROOT
HETATM    1  C3  UNL     1      24.352   0.127  53.430  1.00  0.00     0.001 A 
HETATM    2  C4  UNL     1      23.386  -0.885  53.536  1.00  0.00     0.014 A 
HETATM    3  C5  UNL     1      22.041  -0.768  53.254  1.00  0.00     0.043 A 
HETATM    4  C6  UNL     1      21.622   0.474  52.825  1.00  0.00     0.118 A 
HETATM    5  F1  UNL     1      20.309   0.620  52.539  1.00  0.00    -0.206 F 
HETATM    6  C7  UNL     1      22.541   1.494  52.708  1.00  0.00     0.072 A 
HETATM    7  C8  UNL     1      23.880   1.371  52.992  1.00  0.00     0.044 A 
ENDROOT
BRANCH   7   8
HETATM    8  N2  UNL     1      24.794   2.450  52.868  1.00  0.00    -0.344 N 
HETATM    9  H10 UNL     1      25.243   2.882  53.701  1.00  0.00     0.167 HD
BRANCH   8  10
HETATM   10  C9  UNL     1      25.151   3.008  51.601  1.00  0.00     0.108 A 
HETATM   11  N3  UNL     1      24.419   3.886  51.009  1.00  0.00    -0.236 NA
HETATM   12  C10 UNL     1      25.018   4.256  49.775  1.00  0.00     0.055 A 
HETATM   13  C15 UNL     1      26.143   3.590  49.609  1.00  0.00     0.012 A 
HETATM   14  C16 UNL     1      26.360   2.689  50.796  1.00  0.00     0.108 A 
BRANCH  12  15
HETATM   15  C11 UNL     1      24.465   5.220  48.843  1.00  0.00     0.027 C 
HETATM   16  C12 UNL     1      23.300   5.232  48.228  1.00  0.00    -0.024 C 
BRANCH  16  17
HETATM   17  C13 UNL     1      22.002   4.576  47.992  1.00  0.00     0.038 C 
BRANCH  17  18
HETATM   18  C14 UNL     1      22.232   3.166  47.436  1.00  0.00     0.089 C 
HETATM   19 BR1  UNL     1      22.057   1.937  48.900  1.00  0.00    -0.096 Br
ENDBRANCH  17  18
ENDBRANCH  16  17
ENDBRANCH  12  15
ENDBRANCH   8  10
ENDBRANCH   7   8
BRANCH   1  20
HETATM   20  C2  UNL     1      25.772  -0.154  53.758  1.00  0.00     0.249 C 
HETATM   21  C1  UNL     1      26.492  -0.906  52.652  1.00  0.00     0.047 C 
BRANCH  20  22
HETATM   22  N1  UNL     1      26.001  -0.669  55.068  1.00  0.00     0.086 N 
HETATM   23  H5  UNL     1      26.213  -1.696  55.036  1.00  0.00     0.313 HD
HETATM   24  H6  UNL     1      26.799  -0.202  55.555  1.00  0.00     0.313 HD
ENDBRANCH  20  22
ENDBRANCH   1  20
TORSDOF 7
ENDMDL
MODEL 6
REMARK VINA RESULT:      -6.7      4.493      6.327
REMARK  7 active torsions:
REMARK  status: ('A' for Active; 'I' for Inactive)
REMARK    1  A    between atoms: C2_2  and  N1_3 
REMARK    2  A    between atoms: C2_2  and  C3_4 
REMARK    3  A    between atoms: C8_10  and  N2_11 
REMARK    4  A    between atoms: N2_11  and  C9_12 
REMARK    5  A    between atoms: C10_14  and  C11_15 
REMARK    6  A    between atoms: C12_16  and  C13_17 
REMARK    7  A    between atoms: C13_17  and  C14_18 
ROOT
HETATM    1  C3  UNL     1      25.559   6.270  49.804  1.00  0.00     0.001 A 
HETATM    2  C4  UNL     1      26.466   7.283  49.457  1.00  0.00     0.014 A 
HETATM    3  C5  UNL     1      27.648   7.123  48.765  1.00  0.00     0.043 A 
HETATM    4  C6  UNL     1      27.952   5.834  48.381  1.00  0.00     0.118 A 
HETATM    5  F1  UNL     1      29.103   5.645  47.699  1.00  0.00    -0.206 F 
HETATM    6  C7  UNL     1      27.086   4.811  48.703  1.00  0.00     0.072 A 
HETATM    7  C8  UNL     1      25.910   4.977  49.395  1.00  0.00     0.044 A 
ENDROOT
BRANCH   7   8
HETATM    8  N2  UNL     1      25.049   3.895  49.716  1.00  0.00    -0.344 N 
HETATM    9  H10 UNL     1      24.132   3.769  49.241  1.00  0.00     0.167 HD
BRANCH   8  10
HETATM   10  C9  UNL     1      25.384   2.918  50.705  1.00  0.00     0.108 A 
HETATM   11  N3  UNL     1      24.491   2.189  51.278  1.00  0.00    -0.236 NA
HETATM   12  C10 UNL     1      25.111   1.315  52.209  1.00  0.00     0.055 A 
HETATM   13  C15 UNL     1      26.414   1.511  52.205  1.00  0.00     0.012 A 
HETATM   14  C16 UNL     1      26.745   2.593  51.211  1.00  0.00     0.108 A 
BRANCH  12  15
HETATM   15  C11 UNL     1      24.408   0.355  53.039  1.00  0.00     0.027 C 
HETATM   16  C12 UNL     1      23.127   0.268  53.334  1.00  0.00    -0.024 C 
BRANCH  16  17
HETATM   17  C13 UNL     1      21.767   0.814  53.180  1.00  0.00     0.038 C 
BRANCH  17  18
HETATM   18  C14 UNL     1      20.746  -0.328  53.224  1.00  0.00     0.089 C 
HETATM   19 BR1  UNL     1      21.411  -1.645  54.453  1.00  0.00    -0.096 Br
ENDBRANCH  17  18
ENDBRANCH  16  17
ENDBRANCH  12  15
ENDBRANCH   8  10
ENDBRANCH   7   8
BRANCH   1  20
HETATM   20  C2  UNL     1      24.315   6.599  50.544  1.00  0.00     0.249 C 
HETATM   21  C1  UNL     1      23.465   7.636  49.831  1.00  0.00     0.047 C 
BRANCH  20  22
HETATM   22  N1  UNL     1      24.484   6.832  51.941  1.00  0.00     0.086 N 
HETATM   23  H5  UNL     1      24.021   7.728  52.230  1.00  0.00     0.313 HD
HETATM   24  H6  UNL     1      24.083   6.070  52.531  1.00  0.00     0.313 HD
ENDBRANCH  20  22
ENDBRANCH   1  20
TORSDOF 7
ENDMDL
MODEL 7
REMARK VINA RESULT:      -6.5      3.912      5.606
REMARK  7 active torsions:
REMARK  status: ('A' for Active; 'I' for Inactive)
REMARK    1  A    between atoms: C2_2  and  N1_3 
REMARK    2  A    between atoms: C2_2  and  C3_4 
REMARK    3  A    between atoms: C8_10  and  N2_11 
REMARK    4  A    between atoms: N2_11  and  C9_12 
REMARK    5  A    between atoms: C10_14  and  C11_15 
REMARK    6  A    between atoms: C12_16  and  C13_17 
REMARK    7  A    between atoms: C13_17  and  C14_18 
ROOT
HETATM    1  C3  UNL     1      24.757  -0.132  53.874  1.00  0.00     0.001 A 
HETATM    2  C4  UNL     1      24.510  -1.010  54.940  1.00  0.00     0.014 A 
HETATM    3  C5  UNL     1      23.282  -1.503  55.329  1.00  0.00     0.043 A 
HETATM    4  C6  UNL     1      22.201  -1.081  54.585  1.00  0.00     0.118 A 
HETATM    5  F1  UNL     1      20.984  -1.549  54.941  1.00  0.00    -0.206 F 
HETATM    6  C7  UNL     1      22.402  -0.218  53.530  1.00  0.00     0.072 A 
HETATM    7  C8  UNL     1      23.629   0.271  53.148  1.00  0.00     0.044 A 
ENDROOT
BRANCH   7   8
HETATM    8  N2  UNL     1      23.793   1.167  52.059  1.00  0.00    -0.344 N 
HETATM    9  H10 UNL     1      24.107   0.836  51.124  1.00  0.00     0.167 HD
BRANCH   8  10
HETATM   10  C9  UNL     1      23.539   2.569  52.179  1.00  0.00     0.108 A 
HETATM   11  N3  UNL     1      22.701   3.181  51.416  1.00  0.00    -0.236 NA
HETATM   12  C10 UNL     1      22.657   4.557  51.761  1.00  0.00     0.055 A 
HETATM   13  C15 UNL     1      23.485   4.795  52.758  1.00  0.00     0.012 A 
HETATM   14  C16 UNL     1      24.164   3.508  53.149  1.00  0.00     0.108 A 
BRANCH  12  15
HETATM   15  C11 UNL     1      21.824   5.548  51.106  1.00  0.00     0.027 C 
HETATM   16  C12 UNL     1      22.093   6.345  50.092  1.00  0.00    -0.024 C 
BRANCH  16  17
HETATM   17  C13 UNL     1      23.066   6.803  49.084  1.00  0.00     0.038 C 
BRANCH  17  18
HETATM   18  C14 UNL     1      23.720   5.591  48.413  1.00  0.00     0.089 C 
HETATM   19 BR1  UNL     1      25.412   5.302  49.274  1.00  0.00    -0.096 Br
ENDBRANCH  17  18
ENDBRANCH  16  17
ENDBRANCH  12  15
ENDBRANCH   8  10
ENDBRANCH   7   8
BRANCH   1  20
HETATM   20  C2  UNL     1      26.142   0.304  53.566  1.00  0.00     0.249 C 
HETATM   21  C1  UNL     1      27.023  -0.838  53.088  1.00  0.00     0.047 C 
BRANCH  20  22
HETATM   22  N1  UNL     1      26.745   1.145  54.547  1.00  0.00     0.086 N 
HETATM   23  H5  UNL     1      27.592   0.686  54.964  1.00  0.00     0.313 HD
HETATM   24  H6  UNL     1      27.049   2.066  54.161  1.00  0.00     0.313 HD
ENDBRANCH  20  22
ENDBRANCH   1  20
TORSDOF 7
ENDMDL
MODEL 8
REMARK VINA RESULT:      -6.5      2.525      3.669
REMARK  7 active torsions:
REMARK  status: ('A' for Active; 'I' for Inactive)
REMARK    1  A    between atoms: C2_2  and  N1_3 
REMARK    2  A    between atoms: C2_2  and  C3_4 
REMARK    3  A    between atoms: C8_10  and  N2_11 
REMARK    4  A    between atoms: N2_11  and  C9_12 
REMARK    5  A    between atoms: C10_14  and  C11_15 
REMARK    6  A    between atoms: C12_16  and  C13_17 
REMARK    7  A    between atoms: C13_17  and  C14_18 
ROOT
HETATM    1  C3  UNL     1      26.527   0.239  52.814  1.00  0.00     0.001 A 
HETATM    2  C4  UNL     1      27.220   1.190  52.051  1.00  0.00     0.014 A 
HETATM    3  C5  UNL     1      26.683   2.310  51.451  1.00  0.00     0.043 A 
HETATM    4  C6  UNL     1      25.330   2.499  51.631  1.00  0.00     0.118 A 
HETATM    5  F1  UNL     1      24.774   3.589  51.057  1.00  0.00    -0.206 F 
HETATM    6  C7  UNL     1      24.613   1.586  52.375  1.00  0.00     0.072 A 
HETATM    7  C8  UNL     1      25.154   0.471  52.969  1.00  0.00     0.044 A 
ENDROOT
BRANCH   7   8
HETATM    8  N2  UNL     1      24.380  -0.451  53.721  1.00  0.00    -0.344 N 
HETATM    9  H10 UNL     1      24.825  -1.177  54.318  1.00  0.00     0.167 HD
BRANCH   8  10
HETATM   10  C9  UNL     1      22.950  -0.441  53.703  1.00  0.00     0.108 A 
HETATM   11  N3  UNL     1      22.280  -0.060  52.671  1.00  0.00    -0.236 NA
HETATM   12  C10 UNL     1      20.889  -0.156  52.942  1.00  0.00     0.055 A 
HETATM   13  C15 UNL     1      20.703  -0.606  54.166  1.00  0.00     0.012 A 
HETATM   14  C16 UNL     1      22.043  -0.846  54.810  1.00  0.00     0.108 A 
BRANCH  12  15
HETATM   15  C11 UNL     1      19.838   0.196  52.006  1.00  0.00     0.027 C 
HETATM   16  C12 UNL     1      19.919   0.635  50.766  1.00  0.00    -0.024 C 
BRANCH  16  17
HETATM   17  C13 UNL     1      20.772   1.025  49.630  1.00  0.00     0.038 C 
BRANCH  17  18
HETATM   18  C14 UNL     1      21.603   2.256  50.008  1.00  0.00     0.089 C 
HETATM   19 BR1  UNL     1      22.700   2.695  48.496  1.00  0.00    -0.096 Br
ENDBRANCH  17  18
ENDBRANCH  16  17
ENDBRANCH  12  15
ENDBRANCH   8  10
ENDBRANCH   7   8
BRANCH   1  20
HETATM   20  C2  UNL     1      27.247  -0.914  53.411  1.00  0.00     0.249 C 
HETATM   21  C1  UNL     1      28.686  -0.585  53.769  1.00  0.00     0.047 C 
BRANCH  20  22
HETATM   22  N1  UNL     1      27.077  -2.154  52.728  1.00  0.00     0.086 N 
HETATM   23  H5  UNL     1      27.719  -2.887  53.115  1.00  0.00     0.313 HD
HETATM   24  H6  UNL     1      26.103  -2.526  52.797  1.00  0.00     0.313 HD
ENDBRANCH  20  22
ENDBRANCH   1  20
TORSDOF 7
ENDMDL
MODEL 9
REMARK VINA RESULT:      -6.5      3.159      4.863
REMARK  7 active torsions:
REMARK  status: ('A' for Active; 'I' for Inactive)
REMARK    1  A    between atoms: C2_2  and  N1_3 
REMARK    2  A    between atoms: C2_2  and  C3_4 
REMARK    3  A    between atoms: C8_10  and  N2_11 
REMARK    4  A    between atoms: N2_11  and  C9_12 
REMARK    5  A    between atoms: C10_14  and  C11_15 
REMARK    6  A    between atoms: C12_16  and  C13_17 
REMARK    7  A    between atoms: C13_17  and  C14_18 
ROOT
HETATM    1  C3  UNL     1      24.942   0.471  53.406  1.00  0.00     0.001 A 
HETATM    2  C4  UNL     1      25.782  -0.644  53.268  1.00  0.00     0.014 A 
HETATM    3  C5  UNL     1      27.158  -0.628  53.171  1.00  0.00     0.043 A 
HETATM    4  C6  UNL     1      27.750   0.616  53.217  1.00  0.00     0.118 A 
HETATM    5  F1  UNL     1      29.097   0.665  53.126  1.00  0.00    -0.206 F 
HETATM    6  C7  UNL     1      26.958   1.737  53.353  1.00  0.00     0.072 A 
HETATM    7  C8  UNL     1      25.587   1.714  53.447  1.00  0.00     0.044 A 
ENDROOT
BRANCH   7   8
HETATM    8  N2  UNL     1      24.806   2.892  53.576  1.00  0.00    -0.344 N 
HETATM    9  H10 UNL     1      24.659   3.349  54.499  1.00  0.00     0.167 HD
BRANCH   8  10
HETATM   10  C9  UNL     1      24.178   3.519  52.455  1.00  0.00     0.108 A 
HETATM   11  N3  UNL     1      24.272   3.043  51.262  1.00  0.00    -0.236 NA
HETATM   12  C10 UNL     1      23.553   3.869  50.359  1.00  0.00     0.055 A 
HETATM   13  C15 UNL     1      23.005   4.874  51.013  1.00  0.00     0.012 A 
HETATM   14  C16 UNL     1      23.355   4.758  52.473  1.00  0.00     0.108 A 
BRANCH  12  15
HETATM   15  C11 UNL     1      23.446   3.637  48.931  1.00  0.00     0.027 C 
HETATM   16  C12 UNL     1      22.742   2.742  48.269  1.00  0.00    -0.024 C 
BRANCH  16  17
HETATM   17  C13 UNL     1      21.798   1.611  48.310  1.00  0.00     0.038 C 
BRANCH  17  18
HETATM   18  C14 UNL     1      20.373   2.137  48.509  1.00  0.00     0.089 C 
HETATM   19 BR1  UNL     1      20.042   2.195  50.400  1.00  0.00    -0.096 Br
ENDBRANCH  17  18
ENDBRANCH  16  17
ENDBRANCH  12  15
ENDBRANCH   8  10
ENDBRANCH   7   8
BRANCH   1  20
HETATM   20  C2  UNL     1      23.472   0.294  53.512  1.00  0.00     0.249 C 
HETATM   21  C1  UNL     1      23.084  -0.883  54.390  1.00  0.00     0.047 C 
BRANCH  20  22
HETATM   22  N1  UNL     1      22.762   0.370  52.278  1.00  0.00     0.086 N 
HETATM   23  H5  UNL     1      22.344  -0.560  52.028  1.00  0.00     0.313 HD
HETATM   24  H6  UNL     1      21.983   1.065  52.298  1.00  0.00     0.313 HD
ENDBRANCH  20  22
ENDBRANCH   1  20
TORSDOF 7
ENDMDL
