MODEL 1
REMARK VINA RESULT:      -7.5      0.000      0.000
REMARK  3 active torsions:
REMARK  status: ('A' for Active; 'I' for Inactive)
REMARK    1  A    between atoms: C3_3  and  C4_5 
REMARK    2  A    between atoms: C10_13  and  N2_14 
REMARK    3  A    between atoms: N2_14  and  C11_15 
ROOT
HETATM    1  C4  UNL     1      24.837   5.014  49.028  1.00  0.00     0.025 C 
HETATM    2  C5  UNL     1      24.039   4.473  49.938  1.00  0.00    -0.037 C 
HETATM    3  C6  UNL     1      23.607   5.037  51.215  1.00  0.00     0.156 C 
HETATM    4  N1  UNL     1      24.192   4.384  52.383  1.00  0.00    -0.385 N 
HETATM    5  C7  UNL     1      24.301   2.980  52.691  1.00  0.00     0.067 A 
HETATM    6  C8  UNL     1      24.169   1.965  51.840  1.00  0.00     0.100 A 
HETATM    7  O1  UNL     1      23.901   2.102  50.488  1.00  0.00    -0.347 OA
HETATM    8  C9  UNL     1      23.506   3.124  49.651  1.00  0.00     0.211 C 
HETATM    9  C10 UNL     1      24.450   1.592  53.207  1.00  0.00     0.193 A 
HETATM   10  H8  UNL     1      24.615   4.982  53.158  1.00  0.00     0.159 HD
ENDROOT
BRANCH   9  11
HETATM   11  N2  UNL     1      25.768   1.305  53.688  1.00  0.00    -0.372 N 
HETATM   12  H12 UNL     1      26.267   1.914  54.371  1.00  0.00     0.161 HD
BRANCH  11  13
HETATM   13  C11 UNL     1      26.757   0.332  53.520  1.00  0.00     0.059 A 
HETATM   14  C12 UNL     1      28.069   0.479  53.569  1.00  0.00     0.018 A 
HETATM   15 BR2  UNL     1      28.921   2.175  53.903  1.00  0.00    -0.053 Br
HETATM   16  C13 UNL     1      29.114  -0.530  53.407  1.00  0.00     0.070 A 
HETATM   17  C14 UNL     1      28.657  -1.906  53.100  1.00  0.00     0.153 A 
HETATM   18  N3  UNL     1      27.234  -2.070  53.048  1.00  0.00    -0.299 NA
HETATM   19  C15 UNL     1      26.464  -1.063  53.238  1.00  0.00     0.140 A 
ENDBRANCH  11  13
ENDBRANCH   9  11
BRANCH   1  20
HETATM   20  C3  UNL     1      25.547   6.260  48.914  1.00  0.00     0.007 C 
HETATM   21  C2  UNL     1      26.877   6.277  48.714  1.00  0.00    -0.012 C 
HETATM   22  C1  UNL     1      27.581   4.968  48.610  1.00  0.00     0.037 C 
HETATM   23 BR1  UNL     1      24.800   8.012  49.024  1.00  0.00    -0.051 Br
ENDBRANCH   1  20
TORSDOF 3
ENDMDL
MODEL 2
REMARK VINA RESULT:      -7.0      3.473      4.153
REMARK  3 active torsions:
REMARK  status: ('A' for Active; 'I' for Inactive)
REMARK    1  A    between atoms: C3_3  and  C4_5 
REMARK    2  A    between atoms: C10_13  and  N2_14 
REMARK    3  A    between atoms: N2_14  and  C11_15 
ROOT
HETATM    1  C4  UNL     1      20.722   1.266  49.964  1.00  0.00     0.025 C 
HETATM    2  C5  UNL     1      21.172   1.426  51.201  1.00  0.00    -0.037 C 
HETATM    3  C6  UNL     1      21.885   2.571  51.765  1.00  0.00     0.156 C 
HETATM    4  N1  UNL     1      23.292   2.311  52.055  1.00  0.00    -0.385 N 
HETATM    5  C7  UNL     1      23.897   1.203  52.749  1.00  0.00     0.067 A 
HETATM    6  C8  UNL     1      23.336   0.024  53.009  1.00  0.00     0.100 A 
HETATM    7  O1  UNL     1      22.049  -0.333  52.642  1.00  0.00    -0.347 OA
HETATM    8  C9  UNL     1      20.937   0.320  52.153  1.00  0.00     0.211 C 
HETATM    9  C10 UNL     1      24.691   0.181  53.485  1.00  0.00     0.193 A 
HETATM   10  H8  UNL     1      24.029   3.011  51.732  1.00  0.00     0.159 HD
ENDROOT
BRANCH   9  11
HETATM   11  N2  UNL     1      25.836  -0.278  52.758  1.00  0.00    -0.372 N 
HETATM   12  H12 UNL     1      25.846  -0.378  51.721  1.00  0.00     0.161 HD
BRANCH  11  13
HETATM   13  C11 UNL     1      27.143  -0.700  53.016  1.00  0.00     0.059 A 
HETATM   14  C12 UNL     1      28.202   0.035  53.301  1.00  0.00     0.018 A 
HETATM   15 BR2  UNL     1      28.140   1.958  53.421  1.00  0.00    -0.053 Br
HETATM   16  C13 UNL     1      29.571  -0.393  53.584  1.00  0.00     0.070 A 
HETATM   17  C14 UNL     1      29.834  -1.849  53.500  1.00  0.00     0.153 A 
HETATM   18  N3  UNL     1      28.686  -2.651  53.194  1.00  0.00    -0.299 NA
HETATM   19  C15 UNL     1      27.549  -2.095  52.994  1.00  0.00     0.140 A 
ENDBRANCH  11  13
ENDBRANCH   9  11
BRANCH   1  20
HETATM   20  C3  UNL     1      20.739   2.064  48.767  1.00  0.00     0.007 C 
HETATM   21  C2  UNL     1      19.614   2.641  48.310  1.00  0.00    -0.012 C 
HETATM   22  C1  UNL     1      18.360   2.429  49.085  1.00  0.00     0.037 C 
HETATM   23 BR1  UNL     1      22.253   2.432  47.665  1.00  0.00    -0.051 Br
ENDBRANCH   1  20
TORSDOF 3
ENDMDL
MODEL 3
REMARK VINA RESULT:      -7.0      1.717      1.908
REMARK  3 active torsions:
REMARK  status: ('A' for Active; 'I' for Inactive)
REMARK    1  A    between atoms: C3_3  and  C4_5 
REMARK    2  A    between atoms: C10_13  and  N2_14 
REMARK    3  A    between atoms: N2_14  and  C11_15 
ROOT
HETATM    1  C4  UNL     1      25.003   6.123  48.661  1.00  0.00     0.025 C 
HETATM    2  C5  UNL     1      24.023   5.891  49.522  1.00  0.00    -0.037 C 
HETATM    3  C6  UNL     1      23.719   6.600  50.764  1.00  0.00     0.156 C 
HETATM    4  N1  UNL     1      23.995   5.829  51.973  1.00  0.00    -0.385 N 
HETATM    5  C7  UNL     1      23.632   4.473  52.299  1.00  0.00     0.067 A 
HETATM    6  C8  UNL     1      23.232   3.529  51.450  1.00  0.00     0.100 A 
HETATM    7  O1  UNL     1      23.101   3.705  50.083  1.00  0.00    -0.347 OA
HETATM    8  C9  UNL     1      23.103   4.775  49.213  1.00  0.00     0.211 C 
HETATM    9  C10 UNL     1      23.298   3.126  52.836  1.00  0.00     0.193 A 
HETATM   10  H8  UNL     1      24.541   6.283  52.768  1.00  0.00     0.159 HD
ENDROOT
BRANCH   9  11
HETATM   11  N2  UNL     1      24.424   2.447  53.403  1.00  0.00    -0.372 N 
HETATM   12  H12 UNL     1      24.940   2.805  54.235  1.00  0.00     0.161 HD
BRANCH  11  13
HETATM   13  C11 UNL     1      25.175   1.290  53.178  1.00  0.00     0.059 A 
HETATM   14  C12 UNL     1      26.074   1.066  52.238  1.00  0.00     0.018 A 
HETATM   15 BR2  UNL     1      26.552   2.379  50.911  1.00  0.00    -0.053 Br
HETATM   16  C13 UNL     1      26.875  -0.134  51.997  1.00  0.00     0.070 A 
HETATM   17  C14 UNL     1      26.622  -1.283  52.898  1.00  0.00     0.153 A 
HETATM   18  N3  UNL     1      25.648  -1.043  53.922  1.00  0.00    -0.299 NA
HETATM   19  C15 UNL     1      25.055   0.091  53.990  1.00  0.00     0.140 A 
ENDBRANCH  11  13
ENDBRANCH   9  11
BRANCH   1  20
HETATM   20  C3  UNL     1      26.080   7.074  48.583  1.00  0.00     0.007 C 
HETATM   21  C2  UNL     1      27.359   6.661  48.530  1.00  0.00    -0.012 C 
HETATM   22  C1  UNL     1      27.617   5.194  48.550  1.00  0.00     0.037 C 
HETATM   23 BR1  UNL     1      25.922   8.975  48.548  1.00  0.00    -0.051 Br
ENDBRANCH   1  20
TORSDOF 3
ENDMDL
MODEL 4
REMARK VINA RESULT:      -7.0      3.715      5.331
REMARK  3 active torsions:
REMARK  status: ('A' for Active; 'I' for Inactive)
REMARK    1  A    between atoms: C3_3  and  C4_5 
REMARK    2  A    between atoms: C10_13  and  N2_14 
REMARK    3  A    between atoms: N2_14  and  C11_15 
ROOT
HETATM    1  C4  UNL     1      20.027   1.971  52.206  1.00  0.00     0.025 C 
HETATM    2  C5  UNL     1      20.944   2.635  51.517  1.00  0.00    -0.037 C 
HETATM    3  C6  UNL     1      21.421   2.377  50.159  1.00  0.00     0.156 C 
HETATM    4  N1  UNL     1      22.785   1.859  50.096  1.00  0.00    -0.385 N 
HETATM    5  C7  UNL     1      23.977   2.331  50.754  1.00  0.00     0.067 A 
HETATM    6  C8  UNL     1      24.038   3.153  51.800  1.00  0.00     0.100 A 
HETATM    7  O1  UNL     1      22.935   3.695  52.439  1.00  0.00    -0.347 OA
HETATM    8  C9  UNL     1      21.584   3.790  52.183  1.00  0.00     0.211 C 
HETATM    9  C10 UNL     1      25.314   2.705  51.292  1.00  0.00     0.193 A 
HETATM   10  H8  UNL     1      22.993   1.009  49.488  1.00  0.00     0.159 HD
ENDROOT
BRANCH   9  11
HETATM   11  N2  UNL     1      26.033   1.596  51.843  1.00  0.00    -0.372 N 
HETATM   12  H12 UNL     1      25.802   0.604  51.620  1.00  0.00     0.161 HD
BRANCH  11  13
HETATM   13  C11 UNL     1      27.103   1.366  52.712  1.00  0.00     0.059 A 
HETATM   14  C12 UNL     1      27.582   0.210  53.136  1.00  0.00     0.018 A 
HETATM   15 BR2  UNL     1      26.846  -1.488  52.601  1.00  0.00    -0.053 Br
HETATM   16  C13 UNL     1      28.707  -0.045  54.035  1.00  0.00     0.070 A 
HETATM   17  C14 UNL     1      29.386   1.148  54.591  1.00  0.00     0.153 A 
HETATM   18  N3  UNL     1      28.871   2.404  54.131  1.00  0.00    -0.299 NA
HETATM   19  C15 UNL     1      27.881   2.433  53.319  1.00  0.00     0.140 A 
ENDBRANCH  11  13
ENDBRANCH   9  11
BRANCH   1  20
HETATM   20  C3  UNL     1      19.193   0.828  51.946  1.00  0.00     0.007 C 
HETATM   21  C2  UNL     1      19.307  -0.290  52.685  1.00  0.00    -0.012 C 
HETATM   22  C1  UNL     1      20.318  -0.299  53.779  1.00  0.00     0.037 C 
HETATM   23 BR1  UNL     1      17.857   0.678  50.591  1.00  0.00    -0.051 Br
ENDBRANCH   1  20
TORSDOF 3
ENDMDL
MODEL 5
REMARK VINA RESULT:      -6.8      3.352      5.003
REMARK  3 active torsions:
REMARK  status: ('A' for Active; 'I' for Inactive)
REMARK    1  A    between atoms: C3_3  and  C4_5 
REMARK    2  A    between atoms: C10_13  and  N2_14 
REMARK    3  A    between atoms: N2_14  and  C11_15 
ROOT
HETATM    1  C4  UNL     1      20.400   1.789  52.637  1.00  0.00     0.025 C 
HETATM    2  C5  UNL     1      21.443   2.252  51.963  1.00  0.00    -0.037 C 
HETATM    3  C6  UNL     1      22.115   1.654  50.810  1.00  0.00     0.156 C 
HETATM    4  N1  UNL     1      23.447   1.131  51.102  1.00  0.00    -0.385 N 
HETATM    5  C7  UNL     1      24.541   1.749  51.808  1.00  0.00     0.067 A 
HETATM    6  C8  UNL     1      24.475   2.809  52.610  1.00  0.00     0.100 A 
HETATM    7  O1  UNL     1      23.312   3.502  52.903  1.00  0.00    -0.347 OA
HETATM    8  C9  UNL     1      22.023   3.535  52.414  1.00  0.00     0.211 C 
HETATM    9  C10 UNL     1      25.793   2.241  52.446  1.00  0.00     0.193 A 
HETATM   10  H8  UNL     1      23.708   0.153  50.770  1.00  0.00     0.159 HD
ENDROOT
BRANCH   9  11
HETATM   11  N2  UNL     1      26.364   1.305  53.367  1.00  0.00    -0.372 N 
HETATM   12  H12 UNL     1      26.038   1.209  54.352  1.00  0.00     0.161 HD
BRANCH  11  13
HETATM   13  C11 UNL     1      27.365   0.330  53.387  1.00  0.00     0.059 A 
HETATM   14  C12 UNL     1      28.649   0.479  53.660  1.00  0.00     0.018 A 
HETATM   15 BR2  UNL     1      29.434   2.180  54.112  1.00  0.00    -0.053 Br
HETATM   16  C13 UNL     1      29.705  -0.532  53.696  1.00  0.00     0.070 A 
HETATM   17  C14 UNL     1      29.305  -1.913  53.335  1.00  0.00     0.153 A 
HETATM   18  N3  UNL     1      27.912  -2.078  53.040  1.00  0.00    -0.299 NA
HETATM   19  C15 UNL     1      27.123  -1.069  53.079  1.00  0.00     0.140 A 
ENDBRANCH  11  13
ENDBRANCH   9  11
BRANCH   1  20
HETATM   20  C3  UNL     1      19.565   0.622  52.537  1.00  0.00     0.007 C 
HETATM   21  C2  UNL     1      19.773  -0.442  53.332  1.00  0.00    -0.012 C 
HETATM   22  C1  UNL     1      20.889  -0.366  54.316  1.00  0.00     0.037 C 
HETATM   23 BR1  UNL     1      18.103   0.366  51.338  1.00  0.00    -0.051 Br
ENDBRANCH   1  20
TORSDOF 3
ENDMDL
MODEL 6
REMARK VINA RESULT:      -6.8      3.060      7.445
REMARK  3 active torsions:
REMARK  status: ('A' for Active; 'I' for Inactive)
REMARK    1  A    between atoms: C3_3  and  C4_5 
REMARK    2  A    between atoms: C10_13  and  N2_14 
REMARK    3  A    between atoms: N2_14  and  C11_15 
ROOT
HETATM    1  C4  UNL     1      23.863   1.791  52.863  1.00  0.00     0.025 C 
HETATM    2  C5  UNL     1      23.339   2.593  51.947  1.00  0.00    -0.037 C 
HETATM    3  C6  UNL     1      23.547   2.573  50.499  1.00  0.00     0.156 C 
HETATM    4  N1  UNL     1      24.334   3.694  49.995  1.00  0.00    -0.385 N 
HETATM    5  C7  UNL     1      24.201   5.104  50.265  1.00  0.00     0.067 A 
HETATM    6  C8  UNL     1      23.528   5.663  51.269  1.00  0.00     0.100 A 
HETATM    7  O1  UNL     1      22.834   4.959  52.239  1.00  0.00    -0.347 OA
HETATM    8  C9  UNL     1      22.426   3.654  52.421  1.00  0.00     0.211 C 
HETATM    9  C10 UNL     1      24.181   6.588  50.372  1.00  0.00     0.193 A 
HETATM   10  H8  UNL     1      25.140   3.506  49.323  1.00  0.00     0.159 HD
ENDROOT
BRANCH   9  11
HETATM   11  N2  UNL     1      25.470   7.155  50.631  1.00  0.00    -0.372 N 
HETATM   12  H12 UNL     1      25.970   7.034  51.537  1.00  0.00     0.161 HD
BRANCH  11  13
HETATM   13  C11 UNL     1      26.425   7.934  49.973  1.00  0.00     0.059 A 
HETATM   14  C12 UNL     1      27.334   7.550  49.094  1.00  0.00     0.018 A 
HETATM   15 BR2  UNL     1      27.526   5.722  48.517  1.00  0.00    -0.053 Br
HETATM   16  C13 UNL     1      28.331   8.356  48.390  1.00  0.00     0.070 A 
HETATM   17  C14 UNL     1      28.370   9.797  48.730  1.00  0.00     0.153 A 
HETATM   18  N3  UNL     1      27.384  10.218  49.682  1.00  0.00    -0.299 NA
HETATM   19  C15 UNL     1      26.571   9.364  50.184  1.00  0.00     0.140 A 
ENDBRANCH  11  13
ENDBRANCH   9  11
BRANCH   1  20
HETATM   20  C3  UNL     1      24.766   0.672  52.835  1.00  0.00     0.007 C 
HETATM   21  C2  UNL     1      24.415  -0.509  53.376  1.00  0.00    -0.012 C 
HETATM   22  C1  UNL     1      23.064  -0.615  53.995  1.00  0.00     0.037 C 
HETATM   23 BR1  UNL     1      26.521   0.643  52.086  1.00  0.00    -0.051 Br
ENDBRANCH   1  20
TORSDOF 3
ENDMDL
MODEL 7
REMARK VINA RESULT:      -6.8      2.812      7.292
REMARK  3 active torsions:
REMARK  status: ('A' for Active; 'I' for Inactive)
REMARK    1  A    between atoms: C3_3  and  C4_5 
REMARK    2  A    between atoms: C10_13  and  N2_14 
REMARK    3  A    between atoms: N2_14  and  C11_15 
ROOT
HETATM    1  C4  UNL     1      27.494  -0.135  54.156  1.00  0.00     0.025 C 
HETATM    2  C5  UNL     1      26.489  -0.289  53.307  1.00  0.00    -0.037 C 
HETATM    3  C6  UNL     1      26.464  -0.012  51.871  1.00  0.00     0.156 C 
HETATM    4  N1  UNL     1      25.654   1.146  51.502  1.00  0.00    -0.385 N 
HETATM    5  C7  UNL     1      24.315   1.495  51.904  1.00  0.00     0.067 A 
HETATM    6  C8  UNL     1      23.637   0.998  52.936  1.00  0.00     0.100 A 
HETATM    7  O1  UNL     1      24.128   0.043  53.812  1.00  0.00    -0.347 OA
HETATM    8  C9  UNL     1      25.215  -0.803  53.855  1.00  0.00     0.211 C 
HETATM    9  C10 UNL     1      22.932   1.986  52.154  1.00  0.00     0.193 A 
HETATM   10  H8  UNL     1      26.059   1.876  50.840  1.00  0.00     0.159 HD
ENDROOT
BRANCH   9  11
HETATM   11  N2  UNL     1      22.879   3.373  52.505  1.00  0.00    -0.372 N 
HETATM   12  H12 UNL     1      22.971   3.713  53.485  1.00  0.00     0.161 HD
BRANCH  11  13
HETATM   13  C11 UNL     1      22.719   4.610  51.874  1.00  0.00     0.059 A 
HETATM   14  C12 UNL     1      21.635   5.108  51.307  1.00  0.00     0.018 A 
HETATM   15 BR2  UNL     1      19.959   4.159  51.237  1.00  0.00    -0.053 Br
HETATM   16  C13 UNL     1      21.451   6.403  50.654  1.00  0.00     0.070 A 
HETATM   17  C14 UNL     1      22.648   7.272  50.569  1.00  0.00     0.153 A 
HETATM   18  N3  UNL     1      23.826   6.736  51.186  1.00  0.00    -0.299 NA
HETATM   19  C15 UNL     1      23.793   5.578  51.733  1.00  0.00     0.140 A 
ENDBRANCH  11  13
ENDBRANCH   9  11
BRANCH   1  20
HETATM   20  C3  UNL     1      28.854   0.323  54.047  1.00  0.00     0.007 C 
HETATM   21  C2  UNL     1      29.829  -0.510  53.642  1.00  0.00    -0.012 C 
HETATM   22  C1  UNL     1      29.451  -1.912  53.308  1.00  0.00     0.037 C 
HETATM   23 BR1  UNL     1      29.500   2.076  54.434  1.00  0.00    -0.051 Br
ENDBRANCH   1  20
TORSDOF 3
ENDMDL
MODEL 8
REMARK VINA RESULT:      -6.7      3.565      4.176
REMARK  3 active torsions:
REMARK  status: ('A' for Active; 'I' for Inactive)
REMARK    1  A    between atoms: C3_3  and  C4_5 
REMARK    2  A    between atoms: C10_13  and  N2_14 
REMARK    3  A    between atoms: N2_14  and  C11_15 
ROOT
HETATM    1  C4  UNL     1      25.424   6.300  48.461  1.00  0.00     0.025 C 
HETATM    2  C5  UNL     1      24.517   6.482  49.410  1.00  0.00    -0.037 C 
HETATM    3  C6  UNL     1      24.730   6.848  50.809  1.00  0.00     0.156 C 
HETATM    4  N1  UNL     1      24.457   5.769  51.755  1.00  0.00    -0.385 N 
HETATM    5  C7  UNL     1      23.319   4.889  51.839  1.00  0.00     0.067 A 
HETATM    6  C8  UNL     1      22.413   4.664  50.891  1.00  0.00     0.100 A 
HETATM    7  O1  UNL     1      22.423   5.256  49.638  1.00  0.00    -0.347 OA
HETATM    8  C9  UNL     1      23.100   6.294  49.033  1.00  0.00     0.211 C 
HETATM    9  C10 UNL     1      22.210   3.938  52.123  1.00  0.00     0.193 A 
HETATM   10  H8  UNL     1      25.167   5.555  52.520  1.00  0.00     0.159 HD
ENDROOT
BRANCH   9  11
HETATM   11  N2  UNL     1      22.655   2.592  52.323  1.00  0.00    -0.372 N 
HETATM   12  H12 UNL     1      23.597   2.257  52.029  1.00  0.00     0.161 HD
BRANCH  11  13
HETATM   13  C11 UNL     1      22.173   1.397  52.863  1.00  0.00     0.059 A 
HETATM   14  C12 UNL     1      22.858   0.338  53.256  1.00  0.00     0.018 A 
HETATM   15 BR2  UNL     1      24.780   0.238  53.152  1.00  0.00    -0.053 Br
HETATM   16  C13 UNL     1      22.368  -0.913  53.833  1.00  0.00     0.070 A 
HETATM   17  C14 UNL     1      20.898  -1.047  53.959  1.00  0.00     0.153 A 
HETATM   18  N3  UNL     1      20.151   0.101  53.535  1.00  0.00    -0.299 NA
HETATM   19  C15 UNL     1      20.760   1.127  53.069  1.00  0.00     0.140 A 
ENDBRANCH  11  13
ENDBRANCH   9  11
BRANCH   1  20
HETATM   20  C3  UNL     1      26.860   6.377  48.401  1.00  0.00     0.007 C 
HETATM   21  C2  UNL     1      27.619   5.320  48.741  1.00  0.00    -0.012 C 
HETATM   22  C1  UNL     1      26.924   4.075  49.173  1.00  0.00     0.037 C 
HETATM   23 BR1  UNL     1      27.899   7.887  47.872  1.00  0.00    -0.051 Br
ENDBRANCH   1  20
TORSDOF 3
ENDMDL
MODEL 9
REMARK VINA RESULT:      -6.7      4.158      6.879
REMARK  3 active torsions:
REMARK  status: ('A' for Active; 'I' for Inactive)
REMARK    1  A    between atoms: C3_3  and  C4_5 
REMARK    2  A    between atoms: C10_13  and  N2_14 
REMARK    3  A    between atoms: N2_14  and  C11_15 
ROOT
HETATM    1  C4  UNL     1      27.151   1.234  52.125  1.00  0.00     0.025 C 
HETATM    2  C5  UNL     1      26.164   2.117  52.178  1.00  0.00    -0.037 C 
HETATM    3  C6  UNL     1      25.387   2.538  53.343  1.00  0.00     0.156 C 
HETATM    4  N1  UNL     1      24.004   2.069  53.337  1.00  0.00    -0.385 N 
HETATM    5  C7  UNL     1      23.023   2.115  52.282  1.00  0.00     0.067 A 
HETATM    6  C8  UNL     1      23.255   2.316  50.987  1.00  0.00     0.100 A 
HETATM    7  O1  UNL     1      24.509   2.517  50.435  1.00  0.00    -0.347 OA
HETATM    8  C9  UNL     1      25.777   2.774  50.911  1.00  0.00     0.211 C 
HETATM    9  C10 UNL     1      21.868   2.128  51.344  1.00  0.00     0.193 A 
HETATM   10  H8  UNL     1      23.603   1.617  54.216  1.00  0.00     0.159 HD
ENDROOT
BRANCH   9  11
HETATM   11  N2  UNL     1      21.198   0.866  51.252  1.00  0.00    -0.372 N 
HETATM   12  H12 UNL     1      21.604   0.044  50.757  1.00  0.00     0.161 HD
BRANCH  11  13
HETATM   13  C11 UNL     1      19.998   0.282  51.668  1.00  0.00     0.059 A 
HETATM   14  C12 UNL     1      19.745  -0.359  52.795  1.00  0.00     0.018 A 
HETATM   15 BR2  UNL     1      21.072  -0.629  54.167  1.00  0.00    -0.053 Br
HETATM   16  C13 UNL     1      18.494  -0.965  53.248  1.00  0.00     0.070 A 
HETATM   17  C14 UNL     1      17.353  -0.897  52.306  1.00  0.00     0.153 A 
HETATM   18  N3  UNL     1      17.622  -0.199  51.083  1.00  0.00    -0.299 NA
HETATM   19  C15 UNL     1      18.787   0.288  50.866  1.00  0.00     0.140 A 
ENDBRANCH  11  13
ENDBRANCH   9  11
BRANCH   1  20
HETATM   20  C3  UNL     1      27.816   0.396  53.087  1.00  0.00     0.007 C 
HETATM   21  C2  UNL     1      27.506  -0.909  53.194  1.00  0.00    -0.012 C 
HETATM   22  C1  UNL     1      26.461  -1.451  52.281  1.00  0.00     0.037 C 
HETATM   23 BR1  UNL     1      29.168   0.931  54.322  1.00  0.00    -0.051 Br
ENDBRANCH   1  20
TORSDOF 3
ENDMDL
