MODEL 1
REMARK VINA RESULT:      -8.9      0.000      0.000
REMARK  5 active torsions:
REMARK  status: ('A' for Active; 'I' for Inactive)
REMARK    1  A    between atoms: C7_7  and  N1_8 
REMARK    2  A    between atoms: N1_8  and  C8_9 
REMARK    3  A    between atoms: C13_16  and  O1_17 
REMARK    4  A    between atoms: O1_17  and  C14_18 
REMARK    5  A    between atoms: C14_18  and  C15_19 
ROOT
HETATM    1  C1  UNL     1      26.783   4.353  49.171  1.00  0.00     0.018 C 
HETATM    2  C2  UNL     1      25.780   4.108  49.787  1.00  0.00    -0.078 C 
HETATM    3  C3  UNL     1      24.596   3.810  50.541  1.00  0.00     0.019 A 
HETATM    4  C4  UNL     1      24.076   4.813  51.329  1.00  0.00     0.021 A 
HETATM    5  C5  UNL     1      22.943   4.536  52.053  1.00  0.00     0.004 A 
HETATM    6  C6  UNL     1      22.351   3.307  51.994  1.00  0.00     0.029 A 
HETATM    7  C7  UNL     1      22.844   2.257  51.207  1.00  0.00     0.035 A 
HETATM    8  C20 UNL     1      23.980   2.601  50.507  1.00  0.00     0.050 A 
ENDROOT
BRANCH   7   9
HETATM    9  N1  UNL     1      22.198   0.996  51.173  1.00  0.00    -0.340 N 
HETATM   10  H5  UNL     1      22.132   0.565  50.218  1.00  0.00     0.167 HD
BRANCH   9  11
HETATM   11  C8  UNL     1      21.646   0.273  52.262  1.00  0.00     0.143 A 
HETATM   12  N2  UNL     1      20.353   0.003  52.479  1.00  0.00    -0.223 NA
HETATM   13  C9  UNL     1      19.850  -0.673  53.497  1.00  0.00     0.236 A 
HETATM   14  N3  UNL     1      20.705  -1.150  54.425  1.00  0.00    -0.241 NA
HETATM   15  C10 UNL     1      22.032  -0.941  54.314  1.00  0.00     0.075 A 
HETATM   16  C11 UNL     1      22.479  -0.228  53.225  1.00  0.00     0.053 A 
HETATM   17  C19 UNL     1      23.063  -1.291  55.066  1.00  0.00     0.070 A 
HETATM   18  C12 UNL     1      23.796  -0.168  53.356  1.00  0.00     0.028 A 
HETATM   19  C13 UNL     1      24.261  -0.767  54.416  1.00  0.00     0.083 A 
BRANCH  19  20
HETATM   20  O1  UNL     1      25.593  -0.869  54.813  1.00  0.00    -0.348 OA
BRANCH  20  21
HETATM   21  C14 UNL     1      26.549   0.118  54.639  1.00  0.00     0.207 C 
BRANCH  21  22
HETATM   22  C15 UNL     1      27.693  -0.241  53.732  1.00  0.00     0.145 C 
HETATM   23  C16 UNL     1      28.969   0.254  54.428  1.00  0.00     0.036 C 
HETATM   24  C17 UNL     1      30.001  -0.504  53.613  1.00  0.00     0.029 C 
HETATM   25  C18 UNL     1      29.248  -1.766  53.259  1.00  0.00     0.168 C 
HETATM   26  O2  UNL     1      27.932  -1.590  53.658  1.00  0.00    -0.384 OA
ENDBRANCH  21  22
ENDBRANCH  20  21
ENDBRANCH  19  20
ENDBRANCH   9  11
ENDBRANCH   7   9
TORSDOF 5
ENDMDL
MODEL 2
REMARK VINA RESULT:      -8.2      3.081      6.293
REMARK  5 active torsions:
REMARK  status: ('A' for Active; 'I' for Inactive)
REMARK    1  A    between atoms: C7_7  and  N1_8 
REMARK    2  A    between atoms: N1_8  and  C8_9 
REMARK    3  A    between atoms: C13_16  and  O1_17 
REMARK    4  A    between atoms: O1_17  and  C14_18 
REMARK    5  A    between atoms: C14_18  and  C15_19 
ROOT
HETATM    1  C1  UNL     1      20.058   2.195  50.950  1.00  0.00     0.018 C 
HETATM    2  C2  UNL     1      20.662   1.510  51.732  1.00  0.00    -0.078 C 
HETATM    3  C3  UNL     1      21.389   0.711  52.676  1.00  0.00     0.019 A 
HETATM    4  C4  UNL     1      20.724   0.311  53.815  1.00  0.00     0.021 A 
HETATM    5  C5  UNL     1      21.412  -0.454  54.724  1.00  0.00     0.004 A 
HETATM    6  C6  UNL     1      22.713  -0.808  54.506  1.00  0.00     0.029 A 
HETATM    7  C7  UNL     1      23.430  -0.425  53.365  1.00  0.00     0.035 A 
HETATM    8  C20 UNL     1      22.683   0.340  52.495  1.00  0.00     0.050 A 
ENDROOT
BRANCH   7   9
HETATM    9  N1  UNL     1      24.780  -0.814  53.178  1.00  0.00    -0.340 N 
HETATM   10  H5  UNL     1      24.913  -1.631  52.531  1.00  0.00     0.167 HD
BRANCH   9  11
HETATM   11  C8  UNL     1      25.940  -0.234  53.754  1.00  0.00     0.143 A 
HETATM   12  N2  UNL     1      26.548  -0.603  54.887  1.00  0.00    -0.223 NA
HETATM   13  C9  UNL     1      27.630  -0.055  55.415  1.00  0.00     0.236 A 
HETATM   14  N3  UNL     1      28.195   0.982  54.764  1.00  0.00    -0.241 NA
HETATM   15  C10 UNL     1      27.671   1.443  53.611  1.00  0.00     0.075 A 
HETATM   16  C11 UNL     1      26.544   0.820  53.125  1.00  0.00     0.053 A 
HETATM   17  C19 UNL     1      28.022   2.422  52.793  1.00  0.00     0.070 A 
HETATM   18  C12 UNL     1      26.242   1.457  52.003  1.00  0.00     0.028 A 
HETATM   19  C13 UNL     1      27.053   2.432  51.701  1.00  0.00     0.083 A 
BRANCH  19  20
HETATM   20  O1  UNL     1      26.987   3.271  50.590  1.00  0.00    -0.348 OA
BRANCH  20  21
HETATM   21  C14 UNL     1      26.094   3.129  49.541  1.00  0.00     0.207 C 
BRANCH  21  22
HETATM   22  C15 UNL     1      24.954   4.108  49.523  1.00  0.00     0.145 C 
HETATM   23  C16 UNL     1      23.669   3.274  49.420  1.00  0.00     0.036 C 
HETATM   24  C17 UNL     1      22.655   4.339  49.797  1.00  0.00     0.029 C 
HETATM   25  C18 UNL     1      23.450   5.192  50.760  1.00  0.00     0.168 C 
HETATM   26  O2  UNL     1      24.762   4.749  50.721  1.00  0.00    -0.384 OA
ENDBRANCH  21  22
ENDBRANCH  20  21
ENDBRANCH  19  20
ENDBRANCH   9  11
ENDBRANCH   7   9
TORSDOF 5
ENDMDL
MODEL 3
REMARK VINA RESULT:      -8.2      1.772      2.677
REMARK  5 active torsions:
REMARK  status: ('A' for Active; 'I' for Inactive)
REMARK    1  A    between atoms: C7_7  and  N1_8 
REMARK    2  A    between atoms: N1_8  and  C8_9 
REMARK    3  A    between atoms: C13_16  and  O1_17 
REMARK    4  A    between atoms: O1_17  and  C14_18 
REMARK    5  A    between atoms: C14_18  and  C15_19 
ROOT
HETATM    1  C1  UNL     1      28.085   5.119  48.477  1.00  0.00     0.018 C 
HETATM    2  C2  UNL     1      26.944   5.364  48.767  1.00  0.00    -0.078 C 
HETATM    3  C3  UNL     1      25.590   5.670  49.128  1.00  0.00     0.019 A 
HETATM    4  C4  UNL     1      24.963   6.684  48.437  1.00  0.00     0.021 A 
HETATM    5  C5  UNL     1      23.666   6.984  48.777  1.00  0.00     0.004 A 
HETATM    6  C6  UNL     1      23.020   6.299  49.766  1.00  0.00     0.029 A 
HETATM    7  C7  UNL     1      23.617   5.262  50.495  1.00  0.00     0.035 A 
HETATM    8  C20 UNL     1      24.915   5.012  50.106  1.00  0.00     0.050 A 
ENDROOT
BRANCH   7   9
HETATM    9  N1  UNL     1      22.910   4.576  51.514  1.00  0.00    -0.340 N 
HETATM   10  H5  UNL     1      22.563   5.190  52.293  1.00  0.00     0.167 HD
BRANCH   9  11
HETATM   11  C8  UNL     1      22.628   3.188  51.594  1.00  0.00     0.143 A 
HETATM   12  N2  UNL     1      21.617   2.535  51.009  1.00  0.00    -0.223 NA
HETATM   13  C9  UNL     1      21.363   1.240  51.089  1.00  0.00     0.236 A 
HETATM   14  N3  UNL     1      22.194   0.479  51.830  1.00  0.00    -0.241 NA
HETATM   15  C10 UNL     1      23.248   1.024  52.468  1.00  0.00     0.075 A 
HETATM   16  C11 UNL     1      23.446   2.380  52.335  1.00  0.00     0.053 A 
HETATM   17  C19 UNL     1      24.194   0.514  53.240  1.00  0.00     0.070 A 
HETATM   18  C12 UNL     1      24.529   2.653  53.047  1.00  0.00     0.028 A 
HETATM   19  C13 UNL     1      25.064   1.620  53.633  1.00  0.00     0.083 A 
BRANCH  19  20
HETATM   20  O1  UNL     1      26.200   1.600  54.441  1.00  0.00    -0.348 OA
BRANCH  20  21
HETATM   21  C14 UNL     1      26.879   0.456  54.826  1.00  0.00     0.207 C 
BRANCH  21  22
HETATM   22  C15 UNL     1      27.845  -0.095  53.815  1.00  0.00     0.145 C 
HETATM   23  C16 UNL     1      29.250   0.265  54.318  1.00  0.00     0.036 C 
HETATM   24  C17 UNL     1      30.070  -0.661  53.439  1.00  0.00     0.029 C 
HETATM   25  C18 UNL     1      29.129  -1.832  53.265  1.00  0.00     0.168 C 
HETATM   26  O2  UNL     1      27.906  -1.466  53.805  1.00  0.00    -0.384 OA
ENDBRANCH  21  22
ENDBRANCH  20  21
ENDBRANCH  19  20
ENDBRANCH   9  11
ENDBRANCH   7   9
TORSDOF 5
ENDMDL
MODEL 4
REMARK VINA RESULT:      -7.9      3.286      5.870
REMARK  5 active torsions:
REMARK  status: ('A' for Active; 'I' for Inactive)
REMARK    1  A    between atoms: C7_7  and  N1_8 
REMARK    2  A    between atoms: N1_8  and  C8_9 
REMARK    3  A    between atoms: C13_16  and  O1_17 
REMARK    4  A    between atoms: O1_17  and  C14_18 
REMARK    5  A    between atoms: C14_18  and  C15_19 
ROOT
HETATM    1  C1  UNL     1      28.898   7.597  47.660  1.00  0.00     0.018 C 
HETATM    2  C2  UNL     1      28.041   6.851  48.051  1.00  0.00    -0.078 C 
HETATM    3  C3  UNL     1      27.019   5.970  48.538  1.00  0.00     0.019 A 
HETATM    4  C4  UNL     1      25.713   6.402  48.449  1.00  0.00     0.021 A 
HETATM    5  C5  UNL     1      24.728   5.564  48.913  1.00  0.00     0.004 A 
HETATM    6  C6  UNL     1      25.033   4.344  49.444  1.00  0.00     0.029 A 
HETATM    7  C7  UNL     1      26.344   3.863  49.555  1.00  0.00     0.035 A 
HETATM    8  C20 UNL     1      27.283   4.750  49.072  1.00  0.00     0.050 A 
ENDROOT
BRANCH   7   9
HETATM    9  N1  UNL     1      26.617   2.589  50.113  1.00  0.00    -0.340 N 
HETATM   10  H5  UNL     1      26.733   1.819  49.407  1.00  0.00     0.167 HD
BRANCH   9  11
HETATM   11  C8  UNL     1      26.747   2.250  51.484  1.00  0.00     0.143 A 
HETATM   12  N2  UNL     1      27.824   2.423  52.259  1.00  0.00    -0.223 NA
HETATM   13  C9  UNL     1      27.934   2.103  53.538  1.00  0.00     0.236 A 
HETATM   14  N3  UNL     1      26.866   1.546  54.144  1.00  0.00    -0.241 NA
HETATM   15  C10 UNL     1      25.724   1.322  53.465  1.00  0.00     0.075 A 
HETATM   16  C11 UNL     1      25.687   1.682  52.137  1.00  0.00     0.053 A 
HETATM   17  C19 UNL     1      24.558   0.801  53.813  1.00  0.00     0.070 A 
HETATM   18  C12 UNL     1      24.473   1.360  51.715  1.00  0.00     0.028 A 
HETATM   19  C13 UNL     1      23.709   0.827  52.625  1.00  0.00     0.083 A 
BRANCH  19  20
HETATM   20  O1  UNL     1      22.393   0.392  52.475  1.00  0.00    -0.348 OA
BRANCH  20  21
HETATM   21  C14 UNL     1      21.302   1.223  52.283  1.00  0.00     0.207 C 
BRANCH  21  22
HETATM   22  C15 UNL     1      20.855   1.386  50.857  1.00  0.00     0.145 C 
HETATM   23  C16 UNL     1      21.391   2.746  50.389  1.00  0.00     0.036 C 
HETATM   24  C17 UNL     1      21.203   2.581  48.892  1.00  0.00     0.029 C 
HETATM   25  C18 UNL     1      21.410   1.093  48.719  1.00  0.00     0.168 C 
HETATM   26  O2  UNL     1      21.484   0.534  49.985  1.00  0.00    -0.384 OA
ENDBRANCH  21  22
ENDBRANCH  20  21
ENDBRANCH  19  20
ENDBRANCH   9  11
ENDBRANCH   7   9
TORSDOF 5
ENDMDL
MODEL 5
REMARK VINA RESULT:      -7.9      2.807      5.571
REMARK  5 active torsions:
REMARK  status: ('A' for Active; 'I' for Inactive)
REMARK    1  A    between atoms: C7_7  and  N1_8 
REMARK    2  A    between atoms: N1_8  and  C8_9 
REMARK    3  A    between atoms: C13_16  and  O1_17 
REMARK    4  A    between atoms: O1_17  and  C14_18 
REMARK    5  A    between atoms: C14_18  and  C15_19 
ROOT
HETATM    1  C1  UNL     1      22.229   2.112  47.823  1.00  0.00     0.018 C 
HETATM    2  C2  UNL     1      22.616   2.469  48.904  1.00  0.00    -0.078 C 
HETATM    3  C3  UNL     1      23.085   2.914  50.184  1.00  0.00     0.019 A 
HETATM    4  C4  UNL     1      22.208   3.634  50.966  1.00  0.00     0.021 A 
HETATM    5  C5  UNL     1      22.649   4.064  52.193  1.00  0.00     0.004 A 
HETATM    6  C6  UNL     1      23.914   3.786  52.625  1.00  0.00     0.029 A 
HETATM    7  C7  UNL     1      24.840   3.058  51.866  1.00  0.00     0.035 A 
HETATM    8  C20 UNL     1      24.335   2.657  50.648  1.00  0.00     0.050 A 
ENDROOT
BRANCH   7   9
HETATM    9  N1  UNL     1      26.144   2.791  52.352  1.00  0.00    -0.340 N 
HETATM   10  H5  UNL     1      26.891   3.419  51.964  1.00  0.00     0.167 HD
BRANCH   9  11
HETATM   11  C8  UNL     1      26.539   1.794  53.280  1.00  0.00     0.143 A 
HETATM   12  N2  UNL     1      27.717   1.697  53.909  1.00  0.00    -0.223 NA
HETATM   13  C9  UNL     1      28.074   0.763  54.774  1.00  0.00     0.236 A 
HETATM   14  N3  UNL     1      27.178  -0.201  55.069  1.00  0.00    -0.241 NA
HETATM   15  C10 UNL     1      25.957  -0.209  54.498  1.00  0.00     0.075 A 
HETATM   16  C11 UNL     1      25.659   0.798  53.608  1.00  0.00     0.053 A 
HETATM   17  C19 UNL     1      24.917  -1.019  54.612  1.00  0.00     0.070 A 
HETATM   18  C12 UNL     1      24.421   0.559  53.202  1.00  0.00     0.028 A 
HETATM   19  C13 UNL     1      23.874  -0.498  53.732  1.00  0.00     0.083 A 
BRANCH  19  20
HETATM   20  O1  UNL     1      22.592  -0.993  53.497  1.00  0.00    -0.348 OA
BRANCH  20  21
HETATM   21  C14 UNL     1      21.446  -0.565  54.148  1.00  0.00     0.207 C 
BRANCH  21  22
HETATM   22  C15 UNL     1      20.445   0.155  53.290  1.00  0.00     0.145 C 
HETATM   23  C16 UNL     1      21.029   0.177  51.869  1.00  0.00     0.036 C 
HETATM   24  C17 UNL     1      19.780   0.565  51.098  1.00  0.00     0.029 C 
HETATM   25  C18 UNL     1      18.693  -0.075  51.931  1.00  0.00     0.168 C 
HETATM   26  O2  UNL     1      19.284  -0.549  53.092  1.00  0.00    -0.384 OA
ENDBRANCH  21  22
ENDBRANCH  20  21
ENDBRANCH  19  20
ENDBRANCH   9  11
ENDBRANCH   7   9
TORSDOF 5
ENDMDL
MODEL 6
REMARK VINA RESULT:      -7.9      3.039      5.394
REMARK  5 active torsions:
REMARK  status: ('A' for Active; 'I' for Inactive)
REMARK    1  A    between atoms: C7_7  and  N1_8 
REMARK    2  A    between atoms: N1_8  and  C8_9 
REMARK    3  A    between atoms: C13_16  and  O1_17 
REMARK    4  A    between atoms: O1_17  and  C14_18 
REMARK    5  A    between atoms: C14_18  and  C15_19 
ROOT
HETATM    1  C1  UNL     1      31.919   4.589  47.645  1.00  0.00     0.018 C 
HETATM    2  C2  UNL     1      30.869   5.132  47.864  1.00  0.00    -0.078 C 
HETATM    3  C3  UNL     1      29.620   5.780  48.147  1.00  0.00     0.019 A 
HETATM    4  C4  UNL     1      29.622   7.155  48.226  1.00  0.00     0.021 A 
HETATM    5  C5  UNL     1      28.431   7.783  48.497  1.00  0.00     0.004 A 
HETATM    6  C6  UNL     1      27.283   7.067  48.681  1.00  0.00     0.029 A 
HETATM    7  C7  UNL     1      27.232   5.669  48.610  1.00  0.00     0.035 A 
HETATM    8  C20 UNL     1      28.458   5.102  48.336  1.00  0.00     0.050 A 
ENDROOT
BRANCH   7   9
HETATM    9  N1  UNL     1      26.018   4.964  48.807  1.00  0.00    -0.340 N 
HETATM   10  H5  UNL     1      25.789   4.270  48.052  1.00  0.00     0.167 HD
BRANCH   9  11
HETATM   11  C8  UNL     1      25.105   5.091  49.885  1.00  0.00     0.143 A 
HETATM   12  N2  UNL     1      24.318   6.139  50.157  1.00  0.00    -0.223 NA
HETATM   13  C9  UNL     1      23.469   6.246  51.165  1.00  0.00     0.236 A 
HETATM   14  N3  UNL     1      23.367   5.208  52.019  1.00  0.00    -0.241 NA
HETATM   15  C10 UNL     1      24.110   4.097  51.848  1.00  0.00     0.075 A 
HETATM   16  C11 UNL     1      24.971   4.060  50.775  1.00  0.00     0.053 A 
HETATM   17  C19 UNL     1      24.200   2.963  52.525  1.00  0.00     0.070 A 
HETATM   18  C12 UNL     1      25.569   2.879  50.838  1.00  0.00     0.028 A 
HETATM   19  C13 UNL     1      25.190   2.136  51.839  1.00  0.00     0.083 A 
BRANCH  19  20
HETATM   20  O1  UNL     1      25.640   0.856  52.159  1.00  0.00    -0.348 OA
BRANCH  20  21
HETATM   21  C14 UNL     1      25.479   0.244  53.391  1.00  0.00     0.207 C 
BRANCH  21  22
HETATM   22  C15 UNL     1      26.745  -0.215  54.057  1.00  0.00     0.145 C 
HETATM   23  C16 UNL     1      27.753  -0.486  52.930  1.00  0.00     0.036 C 
HETATM   24  C17 UNL     1      29.027  -0.551  53.753  1.00  0.00     0.029 C 
HETATM   25  C18 UNL     1      28.721   0.418  54.871  1.00  0.00     0.168 C 
HETATM   26  O2  UNL     1      27.386   0.775  54.758  1.00  0.00    -0.384 OA
ENDBRANCH  21  22
ENDBRANCH  20  21
ENDBRANCH  19  20
ENDBRANCH   9  11
ENDBRANCH   7   9
TORSDOF 5
ENDMDL
MODEL 7
REMARK VINA RESULT:      -7.8      2.287      4.099
REMARK  5 active torsions:
REMARK  status: ('A' for Active; 'I' for Inactive)
REMARK    1  A    between atoms: C7_7  and  N1_8 
REMARK    2  A    between atoms: N1_8  and  C8_9 
REMARK    3  A    between atoms: C13_16  and  O1_17 
REMARK    4  A    between atoms: O1_17  and  C14_18 
REMARK    5  A    between atoms: C14_18  and  C15_19 
ROOT
HETATM    1  C1  UNL     1      27.019   9.291  47.003  1.00  0.00     0.018 C 
HETATM    2  C2  UNL     1      27.009   8.227  47.564  1.00  0.00    -0.078 C 
HETATM    3  C3  UNL     1      26.987   6.949  48.215  1.00  0.00     0.019 A 
HETATM    4  C4  UNL     1      28.028   6.085  47.952  1.00  0.00     0.021 A 
HETATM    5  C5  UNL     1      28.014   4.859  48.572  1.00  0.00     0.004 A 
HETATM    6  C6  UNL     1      27.004   4.510  49.420  1.00  0.00     0.029 A 
HETATM    7  C7  UNL     1      25.926   5.354  49.718  1.00  0.00     0.035 A 
HETATM    8  C20 UNL     1      26.000   6.566  49.065  1.00  0.00     0.050 A 
ENDROOT
BRANCH   7   9
HETATM    9  N1  UNL     1      24.897   4.952  50.606  1.00  0.00    -0.340 N 
HETATM   10  H5  UNL     1      24.718   5.619  51.397  1.00  0.00     0.167 HD
BRANCH   9  11
HETATM   11  C8  UNL     1      24.105   3.777  50.542  1.00  0.00     0.143 A 
HETATM   12  N2  UNL     1      23.101   3.525  49.694  1.00  0.00    -0.223 NA
HETATM   13  C9  UNL     1      22.369   2.425  49.644  1.00  0.00     0.236 A 
HETATM   14  N3  UNL     1      22.643   1.443  50.526  1.00  0.00    -0.241 NA
HETATM   15  C10 UNL     1      23.632   1.582  51.431  1.00  0.00     0.075 A 
HETATM   16  C11 UNL     1      24.350   2.756  51.420  1.00  0.00     0.053 A 
HETATM   17  C19 UNL     1      24.095   0.790  52.385  1.00  0.00     0.070 A 
HETATM   18  C12 UNL     1      25.244   2.635  52.390  1.00  0.00     0.028 A 
HETATM   19  C13 UNL     1      25.190   1.505  53.036  1.00  0.00     0.083 A 
BRANCH  19  20
HETATM   20  O1  UNL     1      25.998   1.098  54.096  1.00  0.00    -0.348 OA
BRANCH  20  21
HETATM   21  C14 UNL     1      27.371   0.926  54.025  1.00  0.00     0.207 C 
BRANCH  21  22
HETATM   22  C15 UNL     1      27.835  -0.254  53.220  1.00  0.00     0.145 C 
HETATM   23  C16 UNL     1      29.192  -0.672  53.806  1.00  0.00     0.036 C 
HETATM   24  C17 UNL     1      29.320  -2.045  53.172  1.00  0.00     0.029 C 
HETATM   25  C18 UNL     1      27.874  -2.478  53.084  1.00  0.00     0.168 C 
HETATM   26  O2  UNL     1      27.092  -1.388  53.430  1.00  0.00    -0.384 OA
ENDBRANCH  21  22
ENDBRANCH  20  21
ENDBRANCH  19  20
ENDBRANCH   9  11
ENDBRANCH   7   9
TORSDOF 5
ENDMDL
MODEL 8
REMARK VINA RESULT:      -7.7      2.097      5.346
REMARK  5 active torsions:
REMARK  status: ('A' for Active; 'I' for Inactive)
REMARK    1  A    between atoms: C7_7  and  N1_8 
REMARK    2  A    between atoms: N1_8  and  C8_9 
REMARK    3  A    between atoms: C13_16  and  O1_17 
REMARK    4  A    between atoms: O1_17  and  C14_18 
REMARK    5  A    between atoms: C14_18  and  C15_19 
ROOT
HETATM    1  C1  UNL     1      22.914  -1.264  55.266  1.00  0.00     0.018 C 
HETATM    2  C2  UNL     1      22.205  -0.870  54.379  1.00  0.00    -0.078 C 
HETATM    3  C3  UNL     1      21.360  -0.419  53.311  1.00  0.00     0.019 A 
HETATM    4  C4  UNL     1      20.004  -0.623  53.445  1.00  0.00     0.021 A 
HETATM    5  C5  UNL     1      19.188  -0.195  52.427  1.00  0.00     0.004 A 
HETATM    6  C6  UNL     1      19.704   0.413  51.319  1.00  0.00     0.029 A 
HETATM    7  C7  UNL     1      21.074   0.641  51.138  1.00  0.00     0.035 A 
HETATM    8  C20 UNL     1      21.836   0.189  52.194  1.00  0.00     0.050 A 
ENDROOT
BRANCH   7   9
HETATM    9  N1  UNL     1      21.568   1.276  49.971  1.00  0.00    -0.340 N 
HETATM   10  H5  UNL     1      21.721   0.632  49.155  1.00  0.00     0.167 HD
BRANCH   9  11
HETATM   11  C8  UNL     1      21.870   2.650  49.791  1.00  0.00     0.143 A 
HETATM   12  N2  UNL     1      21.048   3.605  49.340  1.00  0.00    -0.223 NA
HETATM   13  C9  UNL     1      21.340   4.884  49.177  1.00  0.00     0.236 A 
HETATM   14  N3  UNL     1      22.587   5.293  49.489  1.00  0.00    -0.241 NA
HETATM   15  C10 UNL     1      23.505   4.421  49.953  1.00  0.00     0.075 A 
HETATM   16  C11 UNL     1      23.124   3.106  50.096  1.00  0.00     0.053 A 
HETATM   17  C19 UNL     1      24.767   4.558  50.324  1.00  0.00     0.070 A 
HETATM   18  C12 UNL     1      24.193   2.475  50.559  1.00  0.00     0.028 A 
HETATM   19  C13 UNL     1      25.235   3.237  50.736  1.00  0.00     0.083 A 
BRANCH  19  20
HETATM   20  O1  UNL     1      26.490   2.857  51.209  1.00  0.00    -0.348 OA
BRANCH  20  21
HETATM   21  C14 UNL     1      26.836   1.570  51.589  1.00  0.00     0.207 C 
BRANCH  21  22
HETATM   22  C15 UNL     1      27.097   1.377  53.056  1.00  0.00     0.145 C 
HETATM   23  C16 UNL     1      25.849   0.691  53.631  1.00  0.00     0.036 C 
HETATM   24  C17 UNL     1      26.414   0.233  54.964  1.00  0.00     0.029 C 
HETATM   25  C18 UNL     1      27.861  -0.025  54.612  1.00  0.00     0.168 C 
HETATM   26  O2  UNL     1      28.064   0.441  53.322  1.00  0.00    -0.384 OA
ENDBRANCH  21  22
ENDBRANCH  20  21
ENDBRANCH  19  20
ENDBRANCH   9  11
ENDBRANCH   7   9
TORSDOF 5
ENDMDL
MODEL 9
REMARK VINA RESULT:      -7.7      2.700      5.332
REMARK  5 active torsions:
REMARK  status: ('A' for Active; 'I' for Inactive)
REMARK    1  A    between atoms: C7_7  and  N1_8 
REMARK    2  A    between atoms: N1_8  and  C8_9 
REMARK    3  A    between atoms: C13_16  and  O1_17 
REMARK    4  A    between atoms: O1_17  and  C14_18 
REMARK    5  A    between atoms: C14_18  and  C15_19 
ROOT
HETATM    1  C1  UNL     1      24.686   7.154  47.839  1.00  0.00     0.018 C 
HETATM    2  C2  UNL     1      24.594   6.332  48.711  1.00  0.00    -0.078 C 
HETATM    3  C3  UNL     1      24.495   5.363  49.765  1.00  0.00     0.019 A 
HETATM    4  C4  UNL     1      23.441   5.487  50.644  1.00  0.00     0.021 A 
HETATM    5  C5  UNL     1      23.339   4.565  51.656  1.00  0.00     0.004 A 
HETATM    6  C6  UNL     1      24.252   3.558  51.787  1.00  0.00     0.029 A 
HETATM    7  C7  UNL     1      25.339   3.393  50.918  1.00  0.00     0.035 A 
HETATM    8  C20 UNL     1      25.383   4.349  49.927  1.00  0.00     0.050 A 
ENDROOT
BRANCH   7   9
HETATM    9  N1  UNL     1      26.265   2.332  51.089  1.00  0.00    -0.340 N 
HETATM   10  H5  UNL     1      26.435   1.759  50.226  1.00  0.00     0.167 HD
BRANCH   9  11
HETATM   11  C8  UNL     1      26.966   1.972  52.269  1.00  0.00     0.143 A 
HETATM   12  N2  UNL     1      28.160   2.427  52.668  1.00  0.00    -0.223 NA
HETATM   13  C9  UNL     1      28.804   2.084  53.771  1.00  0.00     0.236 A 
HETATM   14  N3  UNL     1      28.220   1.188  54.592  1.00  0.00    -0.241 NA
HETATM   15  C10 UNL     1      27.016   0.660  54.295  1.00  0.00     0.075 A 
HETATM   16  C11 UNL     1      26.408   1.067  53.129  1.00  0.00     0.053 A 
HETATM   17  C19 UNL     1      26.242  -0.216  54.915  1.00  0.00     0.070 A 
HETATM   18  C12 UNL     1      25.260   0.408  53.079  1.00  0.00     0.028 A 
HETATM   19  C13 UNL     1      25.049  -0.387  54.089  1.00  0.00     0.083 A 
BRANCH  19  20
HETATM   20  O1  UNL     1      23.938  -1.200  54.308  1.00  0.00    -0.348 OA
BRANCH  20  21
HETATM   21  C14 UNL     1      22.702  -0.752  54.744  1.00  0.00     0.207 C 
BRANCH  21  22
HETATM   22  C15 UNL     1      21.609  -0.759  53.714  1.00  0.00     0.145 C 
HETATM   23  C16 UNL     1      20.651   0.381  54.090  1.00  0.00     0.036 C 
HETATM   24  C17 UNL     1      19.869   0.482  52.793  1.00  0.00     0.029 C 
HETATM   25  C18 UNL     1      20.914   0.089  51.773  1.00  0.00     0.168 C 
HETATM   26  O2  UNL     1      22.025  -0.360  52.469  1.00  0.00    -0.384 OA
ENDBRANCH  21  22
ENDBRANCH  20  21
ENDBRANCH  19  20
ENDBRANCH   9  11
ENDBRANCH   7   9
TORSDOF 5
ENDMDL
