MODEL 1
REMARK VINA RESULT:      -9.4      0.000      0.000
REMARK  3 active torsions:
REMARK  status: ('A' for Active; 'I' for Inactive)
REMARK    1  A    between atoms: C3_4  and  N2_5 
REMARK    2  A    between atoms: N2_5  and  C4_6 
REMARK    3  A    between atoms: C4_6  and  C5_7 
ROOT
HETATM    1  N1  UNL     1      22.294  -1.944  55.349  1.00  0.00    -0.191 NA
HETATM    2  C1  UNL     1      23.037  -1.271  54.767  1.00  0.00     0.103 C 
HETATM    3  C2  UNL     1      23.977  -0.443  54.061  1.00  0.00     0.089 C 
HETATM    4  C3  UNL     1      23.465   0.253  53.066  1.00  0.00     0.061 C 
HETATM    5  C7  UNL     1      24.001   1.228  52.086  1.00  0.00     0.002 C 
HETATM    6  C8  UNL     1      22.932   1.768  51.544  1.00  0.00     0.014 C 
HETATM    7  C9  UNL     1      22.043   2.581  50.732  1.00  0.00     0.196 C 
HETATM    8  O1  UNL     1      21.122   3.402  51.379  1.00  0.00    -0.385 OA
HETATM    9  C10 UNL     1      20.366   4.121  50.444  1.00  0.00     0.194 C 
HETATM   10  C11 UNL     1      21.169   5.300  49.960  1.00  0.00     0.195 C 
HETATM   11  O2  UNL     1      21.407   6.147  51.076  1.00  0.00    -0.378 OA
HETATM   12  C12 UNL     1      22.334   7.170  50.708  1.00  0.00     0.253 C 
HETATM   13  C13 UNL     1      23.572   6.495  50.458  1.00  0.00    -0.118 C 
HETATM   14  C14 UNL     1      24.556   5.945  50.273  1.00  0.00     0.047 A 
HETATM   15  C15 UNL     1      25.778   5.243  50.064  1.00  0.00     0.285 A 
HETATM   16  O3  UNL     1      24.963   4.451  50.701  1.00  0.00     0.000 OA
HETATM   17  N3  UNL     1      26.026   3.915  50.533  1.00  0.00     0.130 N 
HETATM   18  C16 UNL     1      25.621   2.660  51.155  1.00  0.00     0.248 C 
HETATM   19  C17 UNL     1      25.415   1.487  51.698  1.00  0.00     0.003 C 
HETATM   20  C18 UNL     1      26.726   0.784  51.861  1.00  0.00     0.033 C 
HETATM   21  C19 UNL     1      27.011   0.036  52.943  1.00  0.00     0.117 C 
HETATM   22  N4  UNL     1      26.484  -0.422  54.157  1.00  0.00    -0.271 NA
HETATM   23  C20 UNL     1      25.285  -0.627  54.637  1.00  0.00     0.141 C 
HETATM   24  H14 UNL     1      26.968   4.240  50.102  1.00  0.00     0.324 HD
ENDROOT
BRANCH   4  25
HETATM   25  N2  UNL     1      22.082  -0.031  52.972  1.00  0.00    -0.384 N 
HETATM   26  H1  UNL     1      22.100  -0.962  52.483  1.00  0.00     0.160 HD
BRANCH  25  27
HETATM   27  C4  UNL     1      20.771   0.552  53.322  1.00  0.00     0.149 C 
BRANCH  27  28
HETATM   28  C5  UNL     1      19.717  -0.458  53.520  1.00  0.00     0.024 C 
HETATM   29  C6  UNL     1      18.649  -0.397  52.739  1.00  0.00     0.078 C 
HETATM   30 CL1  UNL     1      18.487   0.844  51.509  1.00  0.00    -0.076 Cl
HETATM   31 BR1  UNL     1      17.129  -1.540  52.731  1.00  0.00    -0.038 Br
ENDBRANCH  27  28
ENDBRANCH  25  27
ENDBRANCH   4  25
TORSDOF 3
ENDMDL
MODEL 2
REMARK VINA RESULT:      -9.1      3.437      6.286
REMARK  3 active torsions:
REMARK  status: ('A' for Active; 'I' for Inactive)
REMARK    1  A    between atoms: C3_4  and  N2_5 
REMARK    2  A    between atoms: N2_5  and  C4_6 
REMARK    3  A    between atoms: C4_6  and  C5_7 
ROOT
HETATM    1  N1  UNL     1      27.208   2.161  51.953  1.00  0.00    -0.191 NA
HETATM    2  C1  UNL     1      26.328   1.549  52.398  1.00  0.00     0.103 C 
HETATM    3  C2  UNL     1      25.254   0.773  52.955  1.00  0.00     0.089 C 
HETATM    4  C3  UNL     1      24.061   1.324  52.853  1.00  0.00     0.061 C 
HETATM    5  C7  UNL     1      22.687   0.925  53.242  1.00  0.00     0.002 C 
HETATM    6  C8  UNL     1      21.909   1.777  52.615  1.00  0.00     0.014 C 
HETATM    7  C9  UNL     1      20.749   2.492  52.112  1.00  0.00     0.196 C 
HETATM    8  O1  UNL     1      20.570   2.576  50.732  1.00  0.00    -0.385 OA
HETATM    9  C10 UNL     1      19.398   3.283  50.432  1.00  0.00     0.194 C 
HETATM   10  C11 UNL     1      18.214   2.365  50.590  1.00  0.00     0.195 C 
HETATM   11  O2  UNL     1      18.351   1.317  49.640  1.00  0.00    -0.378 OA
HETATM   12  C12 UNL     1      17.362   0.317  49.889  1.00  0.00     0.253 C 
HETATM   13  C13 UNL     1      17.705  -0.257  51.155  1.00  0.00    -0.118 C 
HETATM   14  C14 UNL     1      17.998  -0.713  52.161  1.00  0.00     0.047 A 
HETATM   15  C15 UNL     1      18.389  -1.280  53.408  1.00  0.00     0.285 A 
HETATM   16  O3  UNL     1      19.392  -0.587  52.949  1.00  0.00     0.000 OA
HETATM   17  N3  UNL     1      19.687  -1.118  53.986  1.00  0.00     0.130 N 
HETATM   18  C16 UNL     1      21.025  -0.543  54.034  1.00  0.00     0.248 C 
HETATM   19  C17 UNL     1      22.253  -0.124  54.207  1.00  0.00     0.003 C 
HETATM   20  C18 UNL     1      22.899  -0.927  55.292  1.00  0.00     0.033 C 
HETATM   21  C19 UNL     1      24.185  -1.316  55.230  1.00  0.00     0.117 C 
HETATM   22  N4  UNL     1      25.337  -1.249  54.437  1.00  0.00    -0.271 NA
HETATM   23  C20 UNL     1      25.797  -0.434  53.524  1.00  0.00     0.141 C 
HETATM   24  H14 UNL     1      19.168  -1.805  54.649  1.00  0.00     0.324 HD
ENDROOT
BRANCH   4  25
HETATM   25  N2  UNL     1      24.188   2.574  52.203  1.00  0.00    -0.384 N 
HETATM   26  H1  UNL     1      24.409   3.203  53.016  1.00  0.00     0.160 HD
BRANCH  25  27
HETATM   27  C4  UNL     1      24.098   3.175  50.856  1.00  0.00     0.149 C 
BRANCH  27  28
HETATM   28  C5  UNL     1      24.215   4.643  50.863  1.00  0.00     0.024 C 
HETATM   29  C6  UNL     1      25.204   5.187  50.171  1.00  0.00     0.078 C 
HETATM   30 CL1  UNL     1      26.341   4.197  49.272  1.00  0.00    -0.076 Cl
HETATM   31 BR1  UNL     1      25.627   7.030  49.970  1.00  0.00    -0.038 Br
ENDBRANCH  27  28
ENDBRANCH  25  27
ENDBRANCH   4  25
TORSDOF 3
ENDMDL
MODEL 3
REMARK VINA RESULT:      -8.8      3.051      6.127
REMARK  3 active torsions:
REMARK  status: ('A' for Active; 'I' for Inactive)
REMARK    1  A    between atoms: C3_4  and  N2_5 
REMARK    2  A    between atoms: N2_5  and  C4_6 
REMARK    3  A    between atoms: C4_6  and  C5_7 
ROOT
HETATM    1  N1  UNL     1      26.967   3.598  50.194  1.00  0.00    -0.191 NA
HETATM    2  C1  UNL     1      26.322   2.820  50.763  1.00  0.00     0.103 C 
HETATM    3  C2  UNL     1      25.539   1.841  51.467  1.00  0.00     0.089 C 
HETATM    4  C3  UNL     1      24.325   2.233  51.798  1.00  0.00     0.061 C 
HETATM    5  C7  UNL     1      23.174   1.605  52.489  1.00  0.00     0.002 C 
HETATM    6  C8  UNL     1      22.169   2.418  52.255  1.00  0.00     0.014 C 
HETATM    7  C9  UNL     1      20.851   3.028  52.224  1.00  0.00     0.196 C 
HETATM    8  O1  UNL     1      20.261   3.265  50.984  1.00  0.00    -0.385 OA
HETATM    9  C10 UNL     1      18.993   3.839  51.147  1.00  0.00     0.194 C 
HETATM   10  C11 UNL     1      18.000   2.756  51.481  1.00  0.00     0.195 C 
HETATM   11  O2  UNL     1      17.941   1.868  50.373  1.00  0.00    -0.378 OA
HETATM   12  C12 UNL     1      17.168   0.719  50.725  1.00  0.00     0.253 C 
HETATM   13  C13 UNL     1      17.926   0.039  51.732  1.00  0.00    -0.118 C 
HETATM   14  C14 UNL     1      18.547  -0.499  52.525  1.00  0.00     0.047 A 
HETATM   15  C15 UNL     1      19.344  -1.165  53.500  1.00  0.00     0.285 A 
HETATM   16  O3  UNL     1      20.095  -0.288  52.896  1.00  0.00     0.000 OA
HETATM   17  N3  UNL     1      20.735  -0.905  53.706  1.00  0.00     0.130 N 
HETATM   18  C16 UNL     1      21.968  -0.164  53.467  1.00  0.00     0.248 C 
HETATM   19  C17 UNL     1      23.147   0.392  53.352  1.00  0.00     0.003 C 
HETATM   20  C18 UNL     1      24.159  -0.450  54.064  1.00  0.00     0.033 C 
HETATM   21  C19 UNL     1      25.398  -0.650  53.578  1.00  0.00     0.117 C 
HETATM   22  N4  UNL     1      26.248  -0.326  52.514  1.00  0.00    -0.271 NA
HETATM   23  C20 UNL     1      26.336   0.654  51.654  1.00  0.00     0.141 C 
HETATM   24  H14 UNL     1      20.504  -1.734  54.368  1.00  0.00     0.324 HD
ENDROOT
BRANCH   4  25
HETATM   25  N2  UNL     1      24.137   3.563  51.351  1.00  0.00    -0.384 N 
HETATM   26  H1  UNL     1      24.225   3.440  50.311  1.00  0.00     0.160 HD
BRANCH  25  27
HETATM   27  C4  UNL     1      23.888   4.920  51.879  1.00  0.00     0.149 C 
BRANCH  27  28
HETATM   28  C5  UNL     1      24.234   5.989  50.926  1.00  0.00     0.024 C 
HETATM   29  C6  UNL     1      23.261   6.790  50.518  1.00  0.00     0.078 C 
HETATM   30 CL1  UNL     1      21.614   6.591  51.091  1.00  0.00    -0.076 Cl
HETATM   31 BR1  UNL     1      23.371   8.255  49.310  1.00  0.00    -0.038 Br
ENDBRANCH  27  28
ENDBRANCH  25  27
ENDBRANCH   4  25
TORSDOF 3
ENDMDL
MODEL 4
REMARK VINA RESULT:      -8.1      5.500      9.443
REMARK  3 active torsions:
REMARK  status: ('A' for Active; 'I' for Inactive)
REMARK    1  A    between atoms: C3_4  and  N2_5 
REMARK    2  A    between atoms: N2_5  and  C4_6 
REMARK    3  A    between atoms: C4_6  and  C5_7 
ROOT
HETATM    1  N1  UNL     1      29.761   8.924  48.787  1.00  0.00    -0.191 NA
HETATM    2  C1  UNL     1      28.660   8.565  48.719  1.00  0.00     0.103 C 
HETATM    3  C2  UNL     1      27.288   8.144  48.632  1.00  0.00     0.089 C 
HETATM    4  C3  UNL     1      27.096   6.848  48.774  1.00  0.00     0.061 C 
HETATM    5  C7  UNL     1      25.908   5.961  48.782  1.00  0.00     0.002 C 
HETATM    6  C8  UNL     1      26.357   4.817  49.247  1.00  0.00     0.014 C 
HETATM    7  C9  UNL     1      26.450   3.443  49.708  1.00  0.00     0.196 C 
HETATM    8  O1  UNL     1      26.908   3.208  51.003  1.00  0.00    -0.385 OA
HETATM    9  C10 UNL     1      26.916   1.835  51.278  1.00  0.00     0.194 C 
HETATM   10  C11 UNL     1      25.519   1.393  51.628  1.00  0.00     0.195 C 
HETATM   11  O2  UNL     1      25.134   2.076  52.813  1.00  0.00    -0.378 OA
HETATM   12  C12 UNL     1      23.747   1.844  53.067  1.00  0.00     0.253 C 
HETATM   13  C13 UNL     1      23.047   2.490  51.998  1.00  0.00    -0.118 C 
HETATM   14  C14 UNL     1      22.502   3.021  51.147  1.00  0.00     0.047 A 
HETATM   15  C15 UNL     1      21.838   3.702  50.085  1.00  0.00     0.285 A 
HETATM   16  O3  UNL     1      23.073   4.115  50.119  1.00  0.00     0.000 OA
HETATM   17  N3  UNL     1      22.460   4.691  49.260  1.00  0.00     0.130 N 
HETATM   18  C16 UNL     1      23.608   5.461  48.796  1.00  0.00     0.248 C 
HETATM   19  C17 UNL     1      24.531   6.232  48.283  1.00  0.00     0.003 C 
HETATM   20  C18 UNL     1      23.885   7.253  47.399  1.00  0.00     0.033 C 
HETATM   21  C19 UNL     1      24.309   8.529  47.344  1.00  0.00     0.117 C 
HETATM   22  N4  UNL     1      25.268   9.412  47.855  1.00  0.00    -0.271 NA
HETATM   23  C20 UNL     1      26.462   9.296  48.374  1.00  0.00     0.141 C 
HETATM   24  H14 UNL     1      21.421   4.677  48.946  1.00  0.00     0.324 HD
ENDROOT
BRANCH   4  25
HETATM   25  N2  UNL     1      28.347   6.219  48.974  1.00  0.00    -0.384 N 
HETATM   26  H1  UNL     1      28.522   6.434  49.988  1.00  0.00     0.160 HD
BRANCH  25  27
HETATM   27  C4  UNL     1      29.364   5.440  48.238  1.00  0.00     0.149 C 
BRANCH  27  28
HETATM   28  C5  UNL     1      30.747   5.820  48.575  1.00  0.00     0.024 C 
HETATM   29  C6  UNL     1      31.730   5.119  48.032  1.00  0.00     0.078 C 
HETATM   30 CL1  UNL     1      31.403   3.780  46.945  1.00  0.00    -0.076 Cl
HETATM   31 BR1  UNL     1      33.604   5.350  48.254  1.00  0.00    -0.038 Br
ENDBRANCH  27  28
ENDBRANCH  25  27
ENDBRANCH   4  25
TORSDOF 3
ENDMDL
MODEL 5
REMARK VINA RESULT:      -8.1      3.323      6.469
REMARK  3 active torsions:
REMARK  status: ('A' for Active; 'I' for Inactive)
REMARK    1  A    between atoms: C3_4  and  N2_5 
REMARK    2  A    between atoms: N2_5  and  C4_6 
REMARK    3  A    between atoms: C4_6  and  C5_7 
ROOT
HETATM    1  N1  UNL     1      25.952   6.240  48.655  1.00  0.00    -0.191 NA
HETATM    2  C1  UNL     1      25.704   5.359  49.367  1.00  0.00     0.103 C 
HETATM    3  C2  UNL     1      25.417   4.258  50.246  1.00  0.00     0.089 C 
HETATM    4  C3  UNL     1      24.208   4.267  50.771  1.00  0.00     0.061 C 
HETATM    5  C7  UNL     1      23.459   3.374  51.687  1.00  0.00     0.002 C 
HETATM    6  C8  UNL     1      22.214   3.787  51.599  1.00  0.00     0.014 C 
HETATM    7  C9  UNL     1      20.779   3.928  51.777  1.00  0.00     0.196 C 
HETATM    8  O1  UNL     1      19.960   3.828  50.654  1.00  0.00    -0.385 OA
HETATM    9  C10 UNL     1      18.614   3.972  51.015  1.00  0.00     0.194 C 
HETATM   10  C11 UNL     1      18.110   2.667  51.573  1.00  0.00     0.195 C 
HETATM   11  O2  UNL     1      18.186   1.696  50.538  1.00  0.00    -0.378 OA
HETATM   12  C12 UNL     1      17.911   0.402  51.078  1.00  0.00     0.253 C 
HETATM   13  C13 UNL     1      19.000   0.116  51.963  1.00  0.00    -0.118 C 
HETATM   14  C14 UNL     1      19.881  -0.104  52.656  1.00  0.00     0.047 A 
HETATM   15  C15 UNL     1      20.996  -0.368  53.503  1.00  0.00     0.285 A 
HETATM   16  O3  UNL     1      21.304   0.636  52.732  1.00  0.00     0.000 OA
HETATM   17  N3  UNL     1      22.231   0.351  53.442  1.00  0.00     0.130 N 
HETATM   18  C16 UNL     1      23.088   1.423  52.950  1.00  0.00     0.248 C 
HETATM   19  C17 UNL     1      23.976   2.316  52.598  1.00  0.00     0.003 C 
HETATM   20  C18 UNL     1      25.310   1.930  53.156  1.00  0.00     0.033 C 
HETATM   21  C19 UNL     1      26.454   2.093  52.465  1.00  0.00     0.117 C 
HETATM   22  N4  UNL     1      26.969   2.563  51.251  1.00  0.00    -0.271 NA
HETATM   23  C20 UNL     1      26.587   3.422  50.343  1.00  0.00     0.141 C 
HETATM   24  H14 UNL     1      22.399  -0.435  54.173  1.00  0.00     0.324 HD
ENDROOT
BRANCH   4  25
HETATM   25  N2  UNL     1      23.514   5.408  50.303  1.00  0.00    -0.384 N 
HETATM   26  H1  UNL     1      23.370   5.155  49.293  1.00  0.00     0.160 HD
BRANCH  25  27
HETATM   27  C4  UNL     1      23.003   6.709  50.780  1.00  0.00     0.149 C 
BRANCH  27  28
HETATM   28  C5  UNL     1      22.890   7.718  49.714  1.00  0.00     0.024 C 
HETATM   29  C6  UNL     1      21.683   7.977  49.234  1.00  0.00     0.078 C 
HETATM   30 CL1  UNL     1      20.262   7.148  49.844  1.00  0.00    -0.076 Cl
HETATM   31 BR1  UNL     1      21.197   9.214  47.874  1.00  0.00    -0.038 Br
ENDBRANCH  27  28
ENDBRANCH  25  27
ENDBRANCH   4  25
TORSDOF 3
ENDMDL
MODEL 6
REMARK VINA RESULT:      -7.9      3.757      5.172
REMARK  3 active torsions:
REMARK  status: ('A' for Active; 'I' for Inactive)
REMARK    1  A    between atoms: C3_4  and  N2_5 
REMARK    2  A    between atoms: N2_5  and  C4_6 
REMARK    3  A    between atoms: C4_6  and  C5_7 
ROOT
HETATM    1  N1  UNL     1      20.575   3.303  52.645  1.00  0.00    -0.191 NA
HETATM    2  C1  UNL     1      21.673   3.346  52.276  1.00  0.00     0.103 C 
HETATM    3  C2  UNL     1      23.043   3.389  51.839  1.00  0.00     0.089 C 
HETATM    4  C3  UNL     1      23.235   3.971  50.672  1.00  0.00     0.061 C 
HETATM    5  C7  UNL     1      24.420   4.268  49.834  1.00  0.00     0.002 C 
HETATM    6  C8  UNL     1      23.977   5.111  48.928  1.00  0.00     0.014 C 
HETATM    7  C9  UNL     1      23.890   6.023  47.801  1.00  0.00     0.196 C 
HETATM    8  O1  UNL     1      23.455   7.326  48.037  1.00  0.00    -0.385 OA
HETATM    9  C10 UNL     1      23.449   8.063  46.846  1.00  0.00     0.194 C 
HETATM   10  C11 UNL     1      24.851   8.522  46.542  1.00  0.00     0.195 C 
HETATM   11  O2  UNL     1      25.260   9.388  47.592  1.00  0.00    -0.378 OA
HETATM   12  C12 UNL     1      26.650   9.684  47.451  1.00  0.00     0.253 C 
HETATM   13  C13 UNL     1      27.332   8.445  47.678  1.00  0.00    -0.118 C 
HETATM   14  C14 UNL     1      27.863   7.453  47.873  1.00  0.00     0.047 A 
HETATM   15  C15 UNL     1      28.508   6.210  48.135  1.00  0.00     0.285 A 
HETATM   16  O3  UNL     1      27.275   6.118  48.545  1.00  0.00     0.000 OA
HETATM   17  N3  UNL     1      27.873   5.102  48.779  1.00  0.00     0.130 N 
HETATM   18  C16 UNL     1      26.719   4.418  49.349  1.00  0.00     0.248 C 
HETATM   19  C17 UNL     1      25.788   3.683  49.901  1.00  0.00     0.003 C 
HETATM   20  C18 UNL     1      26.420   2.488  50.544  1.00  0.00     0.033 C 
HETATM   21  C19 UNL     1      25.998   1.998  51.724  1.00  0.00     0.117 C 
HETATM   22  N4  UNL     1      25.051   2.185  52.738  1.00  0.00    -0.271 NA
HETATM   23  C20 UNL     1      23.867   2.731  52.821  1.00  0.00     0.141 C 
HETATM   24  H14 UNL     1      28.907   4.796  48.648  1.00  0.00     0.324 HD
ENDROOT
BRANCH   4  25
HETATM   25  N2  UNL     1      21.986   4.399  50.163  1.00  0.00    -0.384 N 
HETATM   26  H1  UNL     1      21.983   5.408  50.458  1.00  0.00     0.160 HD
BRANCH  25  27
HETATM   27  C4  UNL     1      20.816   3.880  49.425  1.00  0.00     0.149 C 
BRANCH  27  28
HETATM   28  C5  UNL     1      20.760   4.334  48.025  1.00  0.00     0.024 C 
HETATM   29  C6  UNL     1      21.410   3.621  47.119  1.00  0.00     0.078 C 
HETATM   30 CL1  UNL     1      22.309   2.181  47.563  1.00  0.00    -0.076 Cl
HETATM   31 BR1  UNL     1      21.534   3.927  45.246  1.00  0.00    -0.038 Br
ENDBRANCH  27  28
ENDBRANCH  25  27
ENDBRANCH   4  25
TORSDOF 3
ENDMDL
MODEL 7
REMARK VINA RESULT:      -7.8      2.134      3.069
REMARK  3 active torsions:
REMARK  status: ('A' for Active; 'I' for Inactive)
REMARK    1  A    between atoms: C3_4  and  N2_5 
REMARK    2  A    between atoms: N2_5  and  C4_6 
REMARK    3  A    between atoms: C4_6  and  C5_7 
ROOT
HETATM    1  N1  UNL     1      17.829  -0.924  53.458  1.00  0.00    -0.191 NA
HETATM    2  C1  UNL     1      18.954  -0.647  53.409  1.00  0.00     0.103 C 
HETATM    3  C2  UNL     1      20.351  -0.310  53.372  1.00  0.00     0.089 C 
HETATM    4  C3  UNL     1      20.784   0.137  52.210  1.00  0.00     0.061 C 
HETATM    5  C7  UNL     1      22.088   0.615  51.692  1.00  0.00     0.002 C 
HETATM    6  C8  UNL     1      21.796   1.181  50.543  1.00  0.00     0.014 C 
HETATM    7  C9  UNL     1      21.889   1.876  49.270  1.00  0.00     0.196 C 
HETATM    8  O1  UNL     1      21.143   3.040  49.096  1.00  0.00    -0.385 OA
HETATM    9  C10 UNL     1      21.368   3.580  47.823  1.00  0.00     0.194 C 
HETATM   10  C11 UNL     1      22.668   4.342  47.833  1.00  0.00     0.195 C 
HETATM   11  O2  UNL     1      22.529   5.420  48.749  1.00  0.00    -0.378 OA
HETATM   12  C12 UNL     1      23.799   6.045  48.942  1.00  0.00     0.253 C 
HETATM   13  C13 UNL     1      24.612   5.071  49.605  1.00  0.00    -0.118 C 
HETATM   14  C14 UNL     1      25.244   4.287  50.145  1.00  0.00     0.047 A 
HETATM   15  C15 UNL     1      26.012   3.303  50.832  1.00  0.00     0.285 A 
HETATM   16  O3  UNL     1      24.760   2.950  50.891  1.00  0.00     0.000 OA
HETATM   17  N3  UNL     1      25.447   2.167  51.491  1.00  0.00     0.130 N 
HETATM   18  C16 UNL     1      24.338   1.290  51.847  1.00  0.00     0.248 C 
HETATM   19  C17 UNL     1      23.451   0.421  52.260  1.00  0.00     0.003 C 
HETATM   20  C18 UNL     1      24.075  -0.468  53.289  1.00  0.00     0.033 C 
HETATM   21  C19 UNL     1      23.406  -0.885  54.380  1.00  0.00     0.117 C 
HETATM   22  N4  UNL     1      22.167  -0.814  55.027  1.00  0.00    -0.271 NA
HETATM   23  C20 UNL     1      20.933  -0.589  54.661  1.00  0.00     0.141 C 
HETATM   24  H14 UNL     1      26.507   2.125  51.721  1.00  0.00     0.324 HD
ENDROOT
BRANCH   4  25
HETATM   25  N2  UNL     1      19.705   0.151  51.294  1.00  0.00    -0.384 N 
HETATM   26  H1  UNL     1      19.736  -0.835  50.932  1.00  0.00     0.160 HD
BRANCH  25  27
HETATM   27  C4  UNL     1      18.672   1.062  50.761  1.00  0.00     0.149 C 
BRANCH  27  28
HETATM   28  C5  UNL     1      17.569   0.360  50.081  1.00  0.00     0.024 C 
HETATM   29  C6  UNL     1      16.336   0.594  50.503  1.00  0.00     0.078 C 
HETATM   30 CL1  UNL     1      16.018   1.701  51.827  1.00  0.00    -0.076 Cl
HETATM   31 BR1  UNL     1      14.708  -0.137  49.845  1.00  0.00    -0.038 Br
ENDBRANCH  27  28
ENDBRANCH  25  27
ENDBRANCH   4  25
TORSDOF 3
ENDMDL
MODEL 8
REMARK VINA RESULT:      -7.8      2.673      5.826
REMARK  3 active torsions:
REMARK  status: ('A' for Active; 'I' for Inactive)
REMARK    1  A    between atoms: C3_4  and  N2_5 
REMARK    2  A    between atoms: N2_5  and  C4_6 
REMARK    3  A    between atoms: C4_6  and  C5_7 
ROOT
HETATM    1  N1  UNL     1      18.589   2.840  47.925  1.00  0.00    -0.191 NA
HETATM    2  C1  UNL     1      19.684   3.116  48.190  1.00  0.00     0.103 C 
HETATM    3  C2  UNL     1      21.043   3.470  48.497  1.00  0.00     0.089 C 
HETATM    4  C3  UNL     1      21.467   3.072  49.680  1.00  0.00     0.061 C 
HETATM    5  C7  UNL     1      22.746   3.173  50.421  1.00  0.00     0.002 C 
HETATM    6  C8  UNL     1      22.609   2.336  51.425  1.00  0.00     0.014 C 
HETATM    7  C9  UNL     1      22.848   1.546  52.620  1.00  0.00     0.196 C 
HETATM    8  O1  UNL     1      22.758   0.158  52.524  1.00  0.00    -0.385 OA
HETATM    9  C10 UNL     1      23.033  -0.437  53.762  1.00  0.00     0.194 C 
HETATM   10  C11 UNL     1      24.525  -0.488  53.964  1.00  0.00     0.195 C 
HETATM   11  O2  UNL     1      25.071  -1.317  52.947  1.00  0.00    -0.378 OA
HETATM   12  C12 UNL     1      26.497  -1.229  52.976  1.00  0.00     0.253 C 
HETATM   13  C13 UNL     1      26.808   0.115  52.594  1.00  0.00    -0.118 C 
HETATM   14  C14 UNL     1      27.042   1.186  52.276  1.00  0.00     0.047 A 
HETATM   15  C15 UNL     1      27.314   2.522  51.862  1.00  0.00     0.285 A 
HETATM   16  O3  UNL     1      26.074   2.254  51.566  1.00  0.00     0.000 OA
HETATM   17  N3  UNL     1      26.364   3.362  51.201  1.00  0.00     0.130 N 
HETATM   18  C16 UNL     1      25.032   3.668  50.694  1.00  0.00     0.248 C 
HETATM   19  C17 UNL     1      23.902   4.081  50.180  1.00  0.00     0.003 C 
HETATM   20  C18 UNL     1      24.147   5.331  49.393  1.00  0.00     0.033 C 
HETATM   21  C19 UNL     1      23.525   5.579  48.226  1.00  0.00     0.117 C 
HETATM   22  N4  UNL     1      22.591   5.058  47.323  1.00  0.00    -0.271 NA
HETATM   23  C20 UNL     1      21.590   4.219  47.394  1.00  0.00     0.141 C 
HETATM   24  H14 UNL     1      27.286   3.935  51.210  1.00  0.00     0.324 HD
ENDROOT
BRANCH   4  25
HETATM   25  N2  UNL     1      20.416   2.389  50.336  1.00  0.00    -0.384 N 
HETATM   26  H1  UNL     1      20.354   1.513  49.759  1.00  0.00     0.160 HD
BRANCH  25  27
HETATM   27  C4  UNL     1      19.483   2.549  51.470  1.00  0.00     0.149 C 
BRANCH  27  28
HETATM   28  C5  UNL     1      18.214   1.823  51.289  1.00  0.00     0.024 C 
HETATM   29  C6  UNL     1      18.141   0.584  51.752  1.00  0.00     0.078 C 
HETATM   30 CL1  UNL     1      19.505  -0.172  52.556  1.00  0.00    -0.076 Cl
HETATM   31 BR1  UNL     1      16.664  -0.612  51.687  1.00  0.00    -0.038 Br
ENDBRANCH  27  28
ENDBRANCH  25  27
ENDBRANCH   4  25
TORSDOF 3
ENDMDL
MODEL 9
REMARK VINA RESULT:      -7.4      8.049     11.820
REMARK  3 active torsions:
REMARK  status: ('A' for Active; 'I' for Inactive)
REMARK    1  A    between atoms: C3_4  and  N2_5 
REMARK    2  A    between atoms: N2_5  and  C4_6 
REMARK    3  A    between atoms: C4_6  and  C5_7 
ROOT
HETATM    1  N1  UNL     1      33.447   9.294  43.881  1.00  0.00    -0.191 NA
HETATM    2  C1  UNL     1      32.893   8.514  44.536  1.00  0.00     0.103 C 
HETATM    3  C2  UNL     1      32.219   7.529  45.337  1.00  0.00     0.089 C 
HETATM    4  C3  UNL     1      31.309   8.011  46.161  1.00  0.00     0.061 C 
HETATM    5  C7  UNL     1      30.369   7.421  47.143  1.00  0.00     0.002 C 
HETATM    6  C8  UNL     1      29.541   8.400  47.431  1.00  0.00     0.014 C 
HETATM    7  C9  UNL     1      28.457   9.184  47.996  1.00  0.00     0.196 C 
HETATM    8  O1  UNL     1      27.533   9.760  47.126  1.00  0.00    -0.385 OA
HETATM    9  C10 UNL     1      26.555  10.461  47.843  1.00  0.00     0.194 C 
HETATM   10  C11 UNL     1      25.537   9.485  48.373  1.00  0.00     0.195 C 
HETATM   11  O2  UNL     1      24.907   8.870  47.257  1.00  0.00    -0.378 OA
HETATM   12  C12 UNL     1      24.083   7.795  47.710  1.00  0.00     0.253 C 
HETATM   13  C13 UNL     1      24.983   6.816  48.240  1.00  0.00    -0.118 C 
HETATM   14  C14 UNL     1      25.714   6.039  48.648  1.00  0.00     0.047 A 
HETATM   15  C15 UNL     1      26.643   5.075  49.137  1.00  0.00     0.285 A 
HETATM   16  O3  UNL     1      27.302   5.943  48.423  1.00  0.00     0.000 OA
HETATM   17  N3  UNL     1      28.039   5.084  48.829  1.00  0.00     0.130 N 
HETATM   18  C16 UNL     1      29.236   5.676  48.244  1.00  0.00     0.248 C 
HETATM   19  C17 UNL     1      30.389   6.069  47.767  1.00  0.00     0.003 C 
HETATM   20  C18 UNL     1      31.385   4.960  47.907  1.00  0.00     0.033 C 
HETATM   21  C19 UNL     1      32.303   4.693  46.960  1.00  0.00     0.117 C 
HETATM   22  N4  UNL     1      32.774   5.112  45.710  1.00  0.00    -0.271 NA
HETATM   23  C20 UNL     1      32.760   6.229  45.032  1.00  0.00     0.141 C 
HETATM   24  H14 UNL     1      27.885   4.175  49.401  1.00  0.00     0.324 HD
ENDROOT
BRANCH   4  25
HETATM   25  N2  UNL     1      31.262   9.418  46.017  1.00  0.00    -0.384 N 
HETATM   26  H1  UNL     1      30.845   9.508  45.056  1.00  0.00     0.160 HD
BRANCH  25  27
HETATM   27  C4  UNL     1      31.603  10.653  46.752  1.00  0.00     0.149 C 
BRANCH  27  28
HETATM   28  C5  UNL     1      30.708  11.782  46.443  1.00  0.00     0.024 C 
HETATM   29  C6  UNL     1      30.212  12.472  47.459  1.00  0.00     0.078 C 
HETATM   30 CL1  UNL     1      30.603  12.061  49.119  1.00  0.00    -0.076 Cl
HETATM   31 BR1  UNL     1      29.045  13.972  47.405  1.00  0.00    -0.038 Br
ENDBRANCH  27  28
ENDBRANCH  25  27
ENDBRANCH   4  25
TORSDOF 3
ENDMDL
