MODEL 1
REMARK VINA RESULT:      -8.2      0.000      0.000
REMARK  4 active torsions:
REMARK  status: ('A' for Active; 'I' for Inactive)
REMARK    1  A    between atoms: N1_1  and  C1_2 
REMARK    2  A    between atoms: C1_2  and  N2_4 
REMARK    3  A    between atoms: N2_4  and  N3_5 
REMARK    4  A    between atoms: C13_19  and  C14_20 
ROOT
HETATM    1  N3  UNL     1      26.540  -0.312  54.662  1.00  0.00    -0.176 NA
HETATM    2  C2  UNL     1      25.869  -0.134  53.622  1.00  0.00     0.064 C 
HETATM    3  C3  UNL     1      26.289   0.608  52.290  1.00  0.00     0.027 C 
HETATM    4  C4  UNL     1      26.243   1.749  51.474  1.00  0.00    -0.006 C 
HETATM    5  C5  UNL     1      24.873   2.272  51.608  1.00  0.00     0.059 A 
HETATM    6  C6  UNL     1      23.800   1.629  51.140  1.00  0.00     0.057 A 
HETATM    7  C7  UNL     1      23.224   2.592  52.084  1.00  0.00     0.119 A 
HETATM    8  C8  UNL     1      24.338   3.244  52.489  1.00  0.00     0.042 A 
HETATM    9 CL1  UNL     1      23.879   4.522  53.613  1.00  0.00    -0.089 Cl
HETATM   10  O1  UNL     1      21.749   2.461  52.237  1.00  0.00    -0.358 OA
HETATM   11  C9  UNL     1      21.490   1.101  52.846  1.00  0.00     0.103 A 
HETATM   12  C10 UNL     1      21.810  -0.186  53.460  1.00  0.00     0.036 A 
HETATM   13  C11 UNL     1      23.115  -0.700  53.829  1.00  0.00     0.013 A 
HETATM   14  C12 UNL     1      24.548  -0.790  54.026  1.00  0.00     0.025 A 
HETATM   15  C13 UNL     1      23.951   0.329  53.483  1.00  0.00    -0.001 A 
HETATM   16  C14 UNL     1      22.590   0.390  53.287  1.00  0.00     0.059 A 
ENDROOT
BRANCH   1  17
HETATM   17  N2  UNL     1      27.831   0.095  54.927  1.00  0.00    -0.253 N 
HETATM   18  H3  UNL     1      28.014   0.530  55.841  1.00  0.00     0.191 HD
BRANCH  17  19
HETATM   19  C1  UNL     1      28.944  -0.038  54.030  1.00  0.00     0.185 C 
HETATM   20  S1  UNL     1      29.343  -1.528  53.429  1.00  0.00    -0.040 SA
BRANCH  19  21
HETATM   21  N1  UNL     1      29.769   0.983  53.576  1.00  0.00    -0.375 N 
HETATM   22  H1  UNL     1      30.774   1.100  53.267  1.00  0.00     0.158 HD
HETATM   23  H2  UNL     1      30.387   1.751  53.236  1.00  0.00     0.158 HD
ENDBRANCH  19  21
ENDBRANCH  17  19
ENDBRANCH   1  17
TORSDOF 4
ENDMDL
MODEL 2
REMARK VINA RESULT:      -8.0      2.222      3.477
REMARK  4 active torsions:
REMARK  status: ('A' for Active; 'I' for Inactive)
REMARK    1  A    between atoms: N1_1  and  C1_2 
REMARK    2  A    between atoms: C1_2  and  N2_4 
REMARK    3  A    between atoms: N2_4  and  N3_5 
REMARK    4  A    between atoms: C13_19  and  C14_20 
ROOT
HETATM    1  N3  UNL     1      25.928   0.396  52.580  1.00  0.00    -0.176 NA
HETATM    2  C2  UNL     1      24.792   0.694  53.007  1.00  0.00     0.064 C 
HETATM    3  C3  UNL     1      23.582  -0.266  53.347  1.00  0.00     0.027 C 
HETATM    4  C4  UNL     1      22.347  -0.831  52.989  1.00  0.00    -0.006 C 
HETATM    5  C5  UNL     1      21.606   0.245  52.311  1.00  0.00     0.059 A 
HETATM    6  C6  UNL     1      21.168   1.337  52.942  1.00  0.00     0.057 A 
HETATM    7  C7  UNL     1      21.111   1.727  51.529  1.00  0.00     0.119 A 
HETATM    8  C8  UNL     1      21.515   0.580  50.937  1.00  0.00     0.042 A 
HETATM    9 CL1  UNL     1      21.469   0.790  49.187  1.00  0.00    -0.089 Cl
HETATM   10  O1  UNL     1      20.693   3.139  51.321  1.00  0.00    -0.358 OA
HETATM   11  C9  UNL     1      21.768   4.011  51.933  1.00  0.00     0.103 A 
HETATM   12  C10 UNL     1      23.043   4.334  52.568  1.00  0.00     0.036 A 
HETATM   13  C11 UNL     1      24.125   3.431  52.912  1.00  0.00     0.013 A 
HETATM   14  C12 UNL     1      24.903   2.218  53.061  1.00  0.00     0.025 A 
HETATM   15  C13 UNL     1      23.657   2.221  52.469  1.00  0.00    -0.001 A 
HETATM   16  C14 UNL     1      22.925   3.381  52.351  1.00  0.00     0.059 A 
ENDROOT
BRANCH   1  17
HETATM   17  N2  UNL     1      26.433  -0.854  52.287  1.00  0.00    -0.253 N 
HETATM   18  H3  UNL     1      25.961  -1.397  51.552  1.00  0.00     0.191 HD
BRANCH  17  19
HETATM   19  C1  UNL     1      27.565  -1.462  52.926  1.00  0.00     0.185 C 
HETATM   20  S1  UNL     1      28.706  -0.512  53.658  1.00  0.00    -0.040 SA
BRANCH  19  21
HETATM   21  N1  UNL     1      27.835  -2.822  53.016  1.00  0.00    -0.375 N 
HETATM   22  H1  UNL     1      28.620  -3.445  53.355  1.00  0.00     0.158 HD
HETATM   23  H2  UNL     1      28.035  -3.844  53.082  1.00  0.00     0.158 HD
ENDBRANCH  19  21
ENDBRANCH  17  19
ENDBRANCH   1  17
TORSDOF 4
ENDMDL
MODEL 3
REMARK VINA RESULT:      -7.7      2.090      2.521
REMARK  4 active torsions:
REMARK  status: ('A' for Active; 'I' for Inactive)
REMARK    1  A    between atoms: N1_1  and  C1_2 
REMARK    2  A    between atoms: C1_2  and  N2_4 
REMARK    3  A    between atoms: N2_4  and  N3_5 
REMARK    4  A    between atoms: C13_19  and  C14_20 
ROOT
HETATM    1  N3  UNL     1      26.507   2.016  53.364  1.00  0.00    -0.176 NA
HETATM    2  C2  UNL     1      25.988   1.981  52.227  1.00  0.00     0.064 C 
HETATM    3  C3  UNL     1      26.544   2.574  50.870  1.00  0.00     0.027 C 
HETATM    4  C4  UNL     1      26.529   3.583  49.894  1.00  0.00    -0.006 C 
HETATM    5  C5  UNL     1      25.118   3.978  49.758  1.00  0.00     0.059 A 
HETATM    6  C6  UNL     1      24.183   3.172  49.248  1.00  0.00     0.057 A 
HETATM    7  C7  UNL     1      23.395   4.191  49.949  1.00  0.00     0.119 A 
HETATM    8  C8  UNL     1      24.379   5.001  50.402  1.00  0.00     0.042 A 
HETATM    9 CL1  UNL     1      23.655   6.368  51.248  1.00  0.00    -0.089 Cl
HETATM   10  O1  UNL     1      21.930   3.934  49.915  1.00  0.00    -0.358 OA
HETATM   11  C9  UNL     1      21.692   2.650  50.679  1.00  0.00     0.103 A 
HETATM   12  C10 UNL     1      22.018   1.497  51.516  1.00  0.00     0.036 A 
HETATM   13  C11 UNL     1      23.290   1.173  52.134  1.00  0.00     0.013 A 
HETATM   14  C12 UNL     1      24.679   1.256  52.537  1.00  0.00     0.025 A 
HETATM   15  C13 UNL     1      24.083   2.225  51.757  1.00  0.00    -0.001 A 
HETATM   16  C14 UNL     1      22.767   2.120  51.368  1.00  0.00     0.059 A 
ENDROOT
BRANCH   1  17
HETATM   17  N2  UNL     1      27.706   2.583  53.741  1.00  0.00    -0.253 N 
HETATM   18  H3  UNL     1      27.762   3.609  53.757  1.00  0.00     0.191 HD
BRANCH  17  19
HETATM   19  C1  UNL     1      28.887   1.857  54.113  1.00  0.00     0.185 C 
HETATM   20  S1  UNL     1      29.023   0.252  53.726  1.00  0.00    -0.040 SA
BRANCH  19  21
HETATM   21  N1  UNL     1      29.991   2.360  54.790  1.00  0.00    -0.375 N 
HETATM   22  H1  UNL     1      31.036   2.434  54.640  1.00  0.00     0.158 HD
HETATM   23  H2  UNL     1      30.819   2.738  55.299  1.00  0.00     0.158 HD
ENDBRANCH  19  21
ENDBRANCH  17  19
ENDBRANCH   1  17
TORSDOF 4
ENDMDL
MODEL 4
REMARK VINA RESULT:      -7.6      2.556      4.093
REMARK  4 active torsions:
REMARK  status: ('A' for Active; 'I' for Inactive)
REMARK    1  A    between atoms: N1_1  and  C1_2 
REMARK    2  A    between atoms: C1_2  and  N2_4 
REMARK    3  A    between atoms: N2_4  and  N3_5 
REMARK    4  A    between atoms: C13_19  and  C14_20 
ROOT
HETATM    1  N3  UNL     1      26.721   0.469  51.723  1.00  0.00    -0.176 NA
HETATM    2  C2  UNL     1      25.974   1.453  51.914  1.00  0.00     0.064 C 
HETATM    3  C3  UNL     1      24.704   1.562  52.849  1.00  0.00     0.027 C 
HETATM    4  C4  UNL     1      23.308   1.574  52.998  1.00  0.00    -0.006 C 
HETATM    5  C5  UNL     1      22.794   2.298  51.824  1.00  0.00     0.059 A 
HETATM    6  C6  UNL     1      23.000   3.603  51.627  1.00  0.00     0.057 A 
HETATM    7  C7  UNL     1      22.600   3.126  50.299  1.00  0.00     0.119 A 
HETATM    8  C8  UNL     1      22.359   1.822  50.562  1.00  0.00     0.042 A 
HETATM    9 CL1  UNL     1      21.792   1.033  49.091  1.00  0.00    -0.089 Cl
HETATM   10  O1  UNL     1      22.645   4.184  49.252  1.00  0.00    -0.358 OA
HETATM   11  C9  UNL     1      24.093   4.598  49.108  1.00  0.00     0.103 A 
HETATM   12  C10 UNL     1      25.537   4.553  49.325  1.00  0.00     0.036 A 
HETATM   13  C11 UNL     1      26.293   3.600  50.116  1.00  0.00     0.013 A 
HETATM   14  C12 UNL     1      26.611   2.475  50.972  1.00  0.00     0.025 A 
HETATM   15  C13 UNL     1      25.319   2.754  50.576  1.00  0.00    -0.001 A 
HETATM   16  C14 UNL     1      25.034   3.837  49.777  1.00  0.00     0.059 A 
ENDROOT
BRANCH   1  17
HETATM   17  N2  UNL     1      26.636  -0.791  52.278  1.00  0.00    -0.253 N 
HETATM   18  H3  UNL     1      25.728  -1.271  52.229  1.00  0.00     0.191 HD
BRANCH  17  19
HETATM   19  C1  UNL     1      27.712  -1.489  52.922  1.00  0.00     0.185 C 
HETATM   20  S1  UNL     1      28.911  -0.635  53.679  1.00  0.00    -0.040 SA
BRANCH  19  21
HETATM   21  N1  UNL     1      27.880  -2.867  52.997  1.00  0.00    -0.375 N 
HETATM   22  H1  UNL     1      27.815  -3.625  53.731  1.00  0.00     0.158 HD
HETATM   23  H2  UNL     1      28.007  -3.900  53.051  1.00  0.00     0.158 HD
ENDBRANCH  19  21
ENDBRANCH  17  19
ENDBRANCH   1  17
TORSDOF 4
ENDMDL
MODEL 5
REMARK VINA RESULT:      -7.4      4.475      5.623
REMARK  4 active torsions:
REMARK  status: ('A' for Active; 'I' for Inactive)
REMARK    1  A    between atoms: N1_1  and  C1_2 
REMARK    2  A    between atoms: C1_2  and  N2_4 
REMARK    3  A    between atoms: N2_4  and  N3_5 
REMARK    4  A    between atoms: C13_19  and  C14_20 
ROOT
HETATM    1  N3  UNL     1      21.666   0.567  50.605  1.00  0.00    -0.176 NA
HETATM    2  C2  UNL     1      22.352   0.930  51.585  1.00  0.00     0.064 C 
HETATM    3  C3  UNL     1      23.625   1.868  51.605  1.00  0.00     0.027 C 
HETATM    4  C4  UNL     1      25.019   2.015  51.679  1.00  0.00    -0.006 C 
HETATM    5  C5  UNL     1      25.472   0.990  52.633  1.00  0.00     0.059 A 
HETATM    6  C6  UNL     1      25.182   1.030  53.936  1.00  0.00     0.057 A 
HETATM    7  C7  UNL     1      25.595  -0.362  53.731  1.00  0.00     0.119 A 
HETATM    8  C8  UNL     1      25.921  -0.337  52.419  1.00  0.00     0.042 A 
HETATM    9 CL1  UNL     1      26.517  -1.927  51.944  1.00  0.00    -0.089 Cl
HETATM   10  O1  UNL     1      25.471  -1.202  54.954  1.00  0.00    -0.358 OA
HETATM   11  C9  UNL     1      23.999  -1.268  55.294  1.00  0.00     0.103 A 
HETATM   12  C10 UNL     1      22.562  -1.061  55.119  1.00  0.00     0.036 A 
HETATM   13  C11 UNL     1      21.877  -0.453  53.994  1.00  0.00     0.013 A 
HETATM   14  C12 UNL     1      21.641   0.187  52.716  1.00  0.00     0.025 A 
HETATM   15  C13 UNL     1      22.909  -0.154  53.143  1.00  0.00    -0.001 A 
HETATM   16  C14 UNL     1      23.115  -0.745  54.368  1.00  0.00     0.059 A 
ENDROOT
BRANCH   1  17
HETATM   17  N2  UNL     1      21.837   0.886  49.274  1.00  0.00    -0.253 N 
HETATM   18  H3  UNL     1      22.460   0.287  48.718  1.00  0.00     0.191 HD
BRANCH  17  19
HETATM   19  C1  UNL     1      21.216   1.991  48.600  1.00  0.00     0.185 C 
HETATM   20  S1  UNL     1      22.107   3.337  48.231  1.00  0.00    -0.040 SA
BRANCH  19  21
HETATM   21  N1  UNL     1      19.890   2.074  48.192  1.00  0.00    -0.375 N 
HETATM   22  H1  UNL     1      18.961   2.372  48.602  1.00  0.00     0.158 HD
HETATM   23  H2  UNL     1      18.896   2.136  47.884  1.00  0.00     0.158 HD
ENDBRANCH  19  21
ENDBRANCH  17  19
ENDBRANCH   1  17
TORSDOF 4
ENDMDL
MODEL 6
REMARK VINA RESULT:      -7.3      4.036      4.901
REMARK  4 active torsions:
REMARK  status: ('A' for Active; 'I' for Inactive)
REMARK    1  A    between atoms: N1_1  and  C1_2 
REMARK    2  A    between atoms: C1_2  and  N2_4 
REMARK    3  A    between atoms: N2_4  and  N3_5 
REMARK    4  A    between atoms: C13_19  and  C14_20 
ROOT
HETATM    1  N3  UNL     1      24.587   3.427  51.844  1.00  0.00    -0.176 NA
HETATM    2  C2  UNL     1      23.985   2.417  51.419  1.00  0.00     0.064 C 
HETATM    3  C3  UNL     1      23.290   2.201  50.015  1.00  0.00     0.027 C 
HETATM    4  C4  UNL     1      22.122   2.152  49.237  1.00  0.00    -0.006 C 
HETATM    5  C5  UNL     1      21.102   1.533  50.099  1.00  0.00     0.059 A 
HETATM    6  C6  UNL     1      21.155   0.256  50.487  1.00  0.00     0.057 A 
HETATM    7  C7  UNL     1      20.199   0.848  51.428  1.00  0.00     0.119 A 
HETATM    8  C8  UNL     1      20.146   2.118  50.965  1.00  0.00     0.042 A 
HETATM    9 CL1  UNL     1      18.985   3.032  51.927  1.00  0.00    -0.089 Cl
HETATM   10  O1  UNL     1      19.723  -0.105  52.467  1.00  0.00    -0.358 OA
HETATM   11  C9  UNL     1      20.927  -0.480  53.303  1.00  0.00     0.103 A 
HETATM   12  C10 UNL     1      22.308  -0.433  53.778  1.00  0.00     0.036 A 
HETATM   13  C11 UNL     1      23.372   0.454  53.346  1.00  0.00     0.013 A 
HETATM   14  C12 UNL     1      24.083   1.499  52.637  1.00  0.00     0.025 A 
HETATM   15  C13 UNL     1      22.747   1.238  52.411  1.00  0.00    -0.001 A 
HETATM   16  C14 UNL     1      22.092   0.229  53.081  1.00  0.00     0.059 A 
ENDROOT
BRANCH   1  17
HETATM   17  N2  UNL     1      24.805   4.627  51.201  1.00  0.00    -0.253 N 
HETATM   18  H3  UNL     1      25.589   4.676  50.538  1.00  0.00     0.191 HD
BRANCH  17  19
HETATM   19  C1  UNL     1      24.026   5.819  51.384  1.00  0.00     0.185 C 
HETATM   20  S1  UNL     1      22.457   5.866  50.859  1.00  0.00    -0.040 SA
BRANCH  19  21
HETATM   21  N1  UNL     1      24.447   7.002  51.981  1.00  0.00    -0.375 N 
HETATM   22  H1  UNL     1      24.384   8.041  51.794  1.00  0.00     0.158 HD
HETATM   23  H2  UNL     1      24.764   7.887  52.431  1.00  0.00     0.158 HD
ENDBRANCH  19  21
ENDBRANCH  17  19
ENDBRANCH   1  17
TORSDOF 4
ENDMDL
MODEL 7
REMARK VINA RESULT:      -7.2      4.819      6.342
REMARK  4 active torsions:
REMARK  status: ('A' for Active; 'I' for Inactive)
REMARK    1  A    between atoms: N1_1  and  C1_2 
REMARK    2  A    between atoms: C1_2  and  N2_4 
REMARK    3  A    between atoms: N2_4  and  N3_5 
REMARK    4  A    between atoms: C13_19  and  C14_20 
ROOT
HETATM    1  N3  UNL     1      20.014  -0.342  52.753  1.00  0.00    -0.176 NA
HETATM    2  C2  UNL     1      20.769   0.629  52.977  1.00  0.00     0.064 C 
HETATM    3  C3  UNL     1      20.458   2.173  52.839  1.00  0.00     0.027 C 
HETATM    4  C4  UNL     1      20.567   3.370  52.112  1.00  0.00    -0.006 C 
HETATM    5  C5  UNL     1      21.919   3.353  51.529  1.00  0.00     0.059 A 
HETATM    6  C6  UNL     1      23.030   3.445  52.265  1.00  0.00     0.057 A 
HETATM    7  C7  UNL     1      23.522   2.921  50.986  1.00  0.00     0.119 A 
HETATM    8  C8  UNL     1      22.375   2.893  50.269  1.00  0.00     0.042 A 
HETATM    9 CL1  UNL     1      22.733   2.339  48.635  1.00  0.00    -0.089 Cl
HETATM   10  O1  UNL     1      24.979   2.619  50.992  1.00  0.00    -0.358 OA
HETATM   11  C9  UNL     1      25.192   1.502  51.989  1.00  0.00     0.103 A 
HETATM   12  C10 UNL     1      24.827   0.453  52.939  1.00  0.00     0.036 A 
HETATM   13  C11 UNL     1      23.497   0.008  53.313  1.00  0.00     0.013 A 
HETATM   14  C12 UNL     1      22.053  -0.099  53.371  1.00  0.00     0.025 A 
HETATM   15  C13 UNL     1      22.689   0.797  52.536  1.00  0.00    -0.001 A 
HETATM   16  C14 UNL     1      24.061   0.898  52.508  1.00  0.00     0.059 A 
ENDROOT
BRANCH   1  17
HETATM   17  N2  UNL     1      18.703  -0.327  52.323  1.00  0.00    -0.253 N 
HETATM   18  H3  UNL     1      18.481   0.244  51.497  1.00  0.00     0.191 HD
BRANCH  17  19
HETATM   19  C1  UNL     1      17.621  -1.043  52.934  1.00  0.00     0.185 C 
HETATM   20  S1  UNL     1      16.065  -0.766  52.438  1.00  0.00    -0.040 SA
BRANCH  19  21
HETATM   21  N1  UNL     1      17.721  -1.995  53.942  1.00  0.00    -0.375 N 
HETATM   22  H1  UNL     1      17.779  -3.048  54.024  1.00  0.00     0.158 HD
HETATM   23  H2  UNL     1      17.795  -2.707  54.700  1.00  0.00     0.158 HD
ENDBRANCH  19  21
ENDBRANCH  17  19
ENDBRANCH   1  17
TORSDOF 4
ENDMDL
MODEL 8
REMARK VINA RESULT:      -7.0      4.562      5.788
REMARK  4 active torsions:
REMARK  status: ('A' for Active; 'I' for Inactive)
REMARK    1  A    between atoms: N1_1  and  C1_2 
REMARK    2  A    between atoms: C1_2  and  N2_4 
REMARK    3  A    between atoms: N2_4  and  N3_5 
REMARK    4  A    between atoms: C13_19  and  C14_20 
ROOT
HETATM    1  N3  UNL     1      25.089   4.874  49.193  1.00  0.00    -0.176 NA
HETATM    2  C2  UNL     1      24.035   4.561  49.788  1.00  0.00     0.064 C 
HETATM    3  C3  UNL     1      23.605   4.891  51.274  1.00  0.00     0.027 C 
HETATM    4  C4  UNL     1      23.452   4.483  52.608  1.00  0.00    -0.006 C 
HETATM    5  C5  UNL     1      23.003   3.083  52.543  1.00  0.00     0.059 A 
HETATM    6  C6  UNL     1      21.807   2.723  52.070  1.00  0.00     0.057 A 
HETATM    7  C7  UNL     1      22.565   1.469  52.040  1.00  0.00     0.119 A 
HETATM    8  C8  UNL     1      23.742   1.874  52.569  1.00  0.00     0.042 A 
HETATM    9 CL1  UNL     1      24.825   0.488  52.692  1.00  0.00    -0.089 Cl
HETATM   10  O1  UNL     1      21.806   0.332  51.453  1.00  0.00    -0.358 OA
HETATM   11  C9  UNL     1      21.549   0.678  50.002  1.00  0.00     0.103 A 
HETATM   12  C10 UNL     1      21.647   1.440  48.759  1.00  0.00     0.036 A 
HETATM   13  C11 UNL     1      22.429   2.635  48.502  1.00  0.00     0.013 A 
HETATM   14  C12 UNL     1      23.328   3.753  48.699  1.00  0.00     0.025 A 
HETATM   15  C13 UNL     1      23.060   2.842  49.700  1.00  0.00    -0.001 A 
HETATM   16  C14 UNL     1      22.189   1.796  49.501  1.00  0.00     0.059 A 
ENDROOT
BRANCH   1  17
HETATM   17  N2  UNL     1      26.163   5.593  49.675  1.00  0.00    -0.253 N 
HETATM   18  H3  UNL     1      26.868   5.084  50.224  1.00  0.00     0.191 HD
BRANCH  17  19
HETATM   19  C1  UNL     1      26.378   6.998  49.475  1.00  0.00     0.185 C 
HETATM   20  S1  UNL     1      26.377   7.621  47.941  1.00  0.00    -0.040 SA
BRANCH  19  21
HETATM   21  N1  UNL     1      26.595   7.953  50.462  1.00  0.00    -0.375 N 
HETATM   22  H1  UNL     1      27.085   8.016  51.397  1.00  0.00     0.158 HD
HETATM   23  H2  UNL     1      26.756   8.670  51.201  1.00  0.00     0.158 HD
ENDBRANCH  19  21
ENDBRANCH  17  19
ENDBRANCH   1  17
TORSDOF 4
ENDMDL
MODEL 9
REMARK VINA RESULT:      -7.0      4.479      5.858
REMARK  4 active torsions:
REMARK  status: ('A' for Active; 'I' for Inactive)
REMARK    1  A    between atoms: N1_1  and  C1_2 
REMARK    2  A    between atoms: C1_2  and  N2_4 
REMARK    3  A    between atoms: N2_4  and  N3_5 
REMARK    4  A    between atoms: C13_19  and  C14_20 
ROOT
HETATM    1  N3  UNL     1      21.245   0.312  51.302  1.00  0.00    -0.176 NA
HETATM    2  C2  UNL     1      21.926   0.932  52.147  1.00  0.00     0.064 C 
HETATM    3  C3  UNL     1      22.034   2.493  52.376  1.00  0.00     0.027 C 
HETATM    4  C4  UNL     1      22.739   3.695  52.207  1.00  0.00    -0.006 C 
HETATM    5  C5  UNL     1      24.160   3.341  52.354  1.00  0.00     0.059 A 
HETATM    6  C6  UNL     1      24.694   2.939  53.510  1.00  0.00     0.057 A 
HETATM    7  C7  UNL     1      25.689   2.513  52.520  1.00  0.00     0.119 A 
HETATM    8  C8  UNL     1      25.128   2.982  51.383  1.00  0.00     0.042 A 
HETATM    9 CL1  UNL     1      26.198   2.633  50.026  1.00  0.00    -0.089 Cl
HETATM   10  O1  UNL     1      26.827   1.758  53.111  1.00  0.00    -0.358 OA
HETATM   11  C9  UNL     1      26.256   0.478  53.680  1.00  0.00     0.103 A 
HETATM   12  C10 UNL     1      25.248  -0.543  53.961  1.00  0.00     0.036 A 
HETATM   13  C11 UNL     1      23.871  -0.589  53.506  1.00  0.00     0.013 A 
HETATM   14  C12 UNL     1      22.634  -0.231  52.843  1.00  0.00     0.025 A 
HETATM   15  C13 UNL     1      23.773   0.541  52.736  1.00  0.00    -0.001 A 
HETATM   16  C14 UNL     1      24.935   0.194  53.388  1.00  0.00     0.059 A 
ENDROOT
BRANCH   1  17
HETATM   17  N2  UNL     1      20.403   0.826  50.338  1.00  0.00    -0.253 N 
HETATM   18  H3  UNL     1      20.832   1.335  49.554  1.00  0.00     0.191 HD
BRANCH  17  19
HETATM   19  C1  UNL     1      18.972   0.711  50.339  1.00  0.00     0.185 C 
HETATM   20  S1  UNL     1      18.209  -0.063  51.588  1.00  0.00    -0.040 SA
BRANCH  19  21
HETATM   21  N1  UNL     1      18.100   1.197  49.372  1.00  0.00    -0.375 N 
HETATM   22  H1  UNL     1      17.773   0.926  48.403  1.00  0.00     0.158 HD
HETATM   23  H2  UNL     1      17.446   1.564  48.647  1.00  0.00     0.158 HD
ENDBRANCH  19  21
ENDBRANCH  17  19
ENDBRANCH   1  17
TORSDOF 4
ENDMDL
