MODEL 1
REMARK VINA RESULT:      -8.4      0.000      0.000
REMARK  9 active torsions:
REMARK  status: ('A' for Active; 'I' for Inactive)
REMARK    1  A    between atoms: C2_2  and  C3_3 
REMARK    2  A    between atoms: C7_9  and  N3_10 
REMARK    3  A    between atoms: N3_10  and  C8_11 
REMARK    4  A    between atoms: C16_21  and  O1_22 
REMARK    5  A    between atoms: O1_22  and  C17_23 
REMARK    6  A    between atoms: C17_23  and  C18_24 
REMARK    7  A    between atoms: C18_24  and  O2_25 
REMARK    8  A    between atoms: C18_24  and  C19_26 
REMARK    9  A    between atoms: C19_26  and  N4_27 
ROOT
HETATM    1  C3  UNL     1      19.804   0.066  52.132  1.00  0.00    -0.023 A 
HETATM    2  C4  UNL     1      20.093  -0.511  53.349  1.00  0.00     0.042 A 
HETATM    3  C5  UNL     1      21.401  -0.642  53.757  1.00  0.00     0.072 A 
HETATM    4  N1  UNL     1      21.610  -1.219  54.964  1.00  0.00    -0.241 NA
HETATM    5  C6  UNL     1      22.885  -1.376  55.423  1.00  0.00     0.236 A 
HETATM    6  N2  UNL     1      23.898  -0.954  54.665  1.00  0.00    -0.224 NA
HETATM    7  C7  UNL     1      23.785  -0.376  53.467  1.00  0.00     0.142 A 
HETATM    8  C14 UNL     1      22.493  -0.228  53.026  1.00  0.00     0.041 A 
HETATM    9  C15 UNL     1      22.137   0.339  51.824  1.00  0.00     0.055 A 
HETATM   10  C16 UNL     1      20.853   0.502  51.350  1.00  0.00     0.076 A 
ENDROOT
BRANCH  10  11
HETATM   11  O1  UNL     1      20.545   1.076  50.140  1.00  0.00    -0.348 OA
BRANCH  11  12
HETATM   12  C17 UNL     1      21.379   1.099  49.014  1.00  0.00     0.209 C 
BRANCH  12  13
HETATM   13  C18 UNL     1      21.655   2.579  48.708  1.00  0.00     0.170 C 
BRANCH  13  14
HETATM   14  O2  UNL     1      21.466   2.737  47.339  1.00  0.00    -0.392 OA
HETATM   15  H16 UNL     1      22.305   2.649  46.838  1.00  0.00     0.210 HD
ENDBRANCH  13  14
BRANCH  13  16
HETATM   16  C19 UNL     1      23.052   2.858  49.145  1.00  0.00     0.308 C 
BRANCH  16  17
HETATM   17  N4  UNL     1      23.213   3.708  50.267  1.00  0.00     0.116 N 
HETATM   18  C20 UNL     1      24.164   3.307  51.249  1.00  0.00     0.301 C 
HETATM   19  C21 UNL     1      23.584   3.970  52.506  1.00  0.00     0.200 C 
HETATM   20  O3  UNL     1      22.217   3.882  52.295  1.00  0.00    -0.361 OA
HETATM   21  C22 UNL     1      22.039   4.163  50.929  1.00  0.00     0.440 C 
ENDBRANCH  16  17
ENDBRANCH  13  16
ENDBRANCH  12  13
ENDBRANCH  11  12
ENDBRANCH  10  11
BRANCH   1  22
HETATM   22  C2  UNL     1      18.413   0.218  51.674  1.00  0.00     0.037 C 
HETATM   23  C1  UNL     1      17.563  -0.864  52.314  1.00  0.00     0.010 C 
ENDBRANCH   1  22
BRANCH   7  24
HETATM   24  N3  UNL     1      24.847   0.080  52.653  1.00  0.00    -0.340 N 
HETATM   25  H8  UNL     1      24.686   0.532  51.753  1.00  0.00     0.167 HD
BRANCH  24  26
HETATM   26  C8  UNL     1      26.235  -0.003  52.914  1.00  0.00     0.035 A 
HETATM   27  C9  UNL     1      26.929  -1.181  52.818  1.00  0.00     0.032 A 
HETATM   28  C10 UNL     1      28.278  -1.310  53.073  1.00  0.00     0.046 A 
HETATM   29  C11 UNL     1      29.027  -0.202  53.454  1.00  0.00     0.138 A 
HETATM   30  F1  UNL     1      30.338  -0.249  53.717  1.00  0.00    -0.204 F 
HETATM   31  C12 UNL     1      28.356   0.995  53.557  1.00  0.00     0.074 A 
HETATM   32 CL1  UNL     1      29.228   2.435  54.031  1.00  0.00    -0.081 Cl
HETATM   33  C13 UNL     1      27.022   1.054  53.291  1.00  0.00     0.056 A 
ENDBRANCH  24  26
ENDBRANCH   7  24
TORSDOF 9
ENDMDL
MODEL 2
REMARK VINA RESULT:      -8.2      3.682      6.734
REMARK  9 active torsions:
REMARK  status: ('A' for Active; 'I' for Inactive)
REMARK    1  A    between atoms: C2_2  and  C3_3 
REMARK    2  A    between atoms: C7_9  and  N3_10 
REMARK    3  A    between atoms: N3_10  and  C8_11 
REMARK    4  A    between atoms: C16_21  and  O1_22 
REMARK    5  A    between atoms: O1_22  and  C17_23 
REMARK    6  A    between atoms: C17_23  and  C18_24 
REMARK    7  A    between atoms: C18_24  and  O2_25 
REMARK    8  A    between atoms: C18_24  and  C19_26 
REMARK    9  A    between atoms: C19_26  and  N4_27 
ROOT
HETATM    1  C3  UNL     1      23.039   0.789  53.058  1.00  0.00    -0.023 A 
HETATM    2  C4  UNL     1      21.792   1.212  52.652  1.00  0.00     0.042 A 
HETATM    3  C5  UNL     1      21.605   2.513  52.242  1.00  0.00     0.072 A 
HETATM    4  N1  UNL     1      20.354   2.859  51.857  1.00  0.00    -0.241 NA
HETATM    5  C6  UNL     1      20.106   4.135  51.442  1.00  0.00     0.236 A 
HETATM    6  N2  UNL     1      21.110   5.013  51.426  1.00  0.00    -0.224 NA
HETATM    7  C7  UNL     1      22.370   4.760  51.787  1.00  0.00     0.142 A 
HETATM    8  C14 UNL     1      22.596   3.470  52.201  1.00  0.00     0.041 A 
HETATM    9  C15 UNL     1      23.814   2.984  52.618  1.00  0.00     0.055 A 
HETATM   10  C16 UNL     1      24.076   1.699  53.041  1.00  0.00     0.076 A 
ENDROOT
BRANCH  10  11
HETATM   11  O1  UNL     1      25.312   1.258  53.450  1.00  0.00    -0.348 OA
BRANCH  11  12
HETATM   12  C17 UNL     1      26.386   2.077  53.822  1.00  0.00     0.209 C 
BRANCH  12  13
HETATM   13  C18 UNL     1      27.515   1.797  52.819  1.00  0.00     0.170 C 
BRANCH  13  14
HETATM   14  O2  UNL     1      27.448   2.805  51.863  1.00  0.00    -0.392 OA
HETATM   15  H16 UNL     1      27.290   3.686  52.266  1.00  0.00     0.210 HD
ENDBRANCH  13  14
BRANCH  13  16
HETATM   16  C19 UNL     1      27.267   0.439  52.258  1.00  0.00     0.308 C 
BRANCH  16  17
HETATM   17  N4  UNL     1      27.674  -0.664  53.050  1.00  0.00     0.116 N 
HETATM   18  C20 UNL     1      29.076  -0.895  53.161  1.00  0.00     0.301 C 
HETATM   19  C21 UNL     1      29.104  -2.408  53.416  1.00  0.00     0.200 C 
HETATM   20  O3  UNL     1      28.037  -2.865  52.658  1.00  0.00    -0.361 OA
HETATM   21  C22 UNL     1      27.022  -1.910  52.840  1.00  0.00     0.440 C 
ENDBRANCH  16  17
ENDBRANCH  13  16
ENDBRANCH  12  13
ENDBRANCH  11  12
ENDBRANCH  10  11
BRANCH   1  22
HETATM   22  C2  UNL     1      23.264  -0.597  53.499  1.00  0.00     0.037 C 
HETATM   23  C1  UNL     1      22.187  -0.977  54.498  1.00  0.00     0.010 C 
ENDBRANCH   1  22
BRANCH   7  24
HETATM   24  N3  UNL     1      23.446   5.677  51.774  1.00  0.00    -0.340 N 
HETATM   25  H8  UNL     1      23.745   6.175  52.611  1.00  0.00     0.167 HD
BRANCH  24  26
HETATM   26  C8  UNL     1      24.251   6.050  50.672  1.00  0.00     0.035 A 
HETATM   27  C9  UNL     1      24.006   7.178  49.935  1.00  0.00     0.032 A 
HETATM   28  C10 UNL     1      24.758   7.575  48.849  1.00  0.00     0.046 A 
HETATM   29  C11 UNL     1      25.846   6.814  48.436  1.00  0.00     0.138 A 
HETATM   30  F1  UNL     1      26.621   7.134  47.394  1.00  0.00    -0.204 F 
HETATM   31  C12 UNL     1      26.117   5.675  49.159  1.00  0.00     0.074 A 
HETATM   32 CL1  UNL     1      27.469   4.664  48.703  1.00  0.00    -0.081 Cl
HETATM   33  C13 UNL     1      25.334   5.340  50.222  1.00  0.00     0.056 A 
ENDBRANCH  24  26
ENDBRANCH   7  24
TORSDOF 9
ENDMDL
MODEL 3
REMARK VINA RESULT:      -8.0      3.375      5.374
REMARK  9 active torsions:
REMARK  status: ('A' for Active; 'I' for Inactive)
REMARK    1  A    between atoms: C2_2  and  C3_3 
REMARK    2  A    between atoms: C7_9  and  N3_10 
REMARK    3  A    between atoms: N3_10  and  C8_11 
REMARK    4  A    between atoms: C16_21  and  O1_22 
REMARK    5  A    between atoms: O1_22  and  C17_23 
REMARK    6  A    between atoms: C17_23  and  C18_24 
REMARK    7  A    between atoms: C18_24  and  O2_25 
REMARK    8  A    between atoms: C18_24  and  C19_26 
REMARK    9  A    between atoms: C19_26  and  N4_27 
ROOT
HETATM    1  C3  UNL     1      23.273  -0.062  53.360  1.00  0.00    -0.023 A 
HETATM    2  C4  UNL     1      24.591   0.033  53.749  1.00  0.00     0.042 A 
HETATM    3  C5  UNL     1      25.461   0.836  53.046  1.00  0.00     0.072 A 
HETATM    4  N1  UNL     1      26.742   0.880  53.484  1.00  0.00    -0.241 NA
HETATM    5  C6  UNL     1      27.650   1.658  52.828  1.00  0.00     0.236 A 
HETATM    6  N2  UNL     1      27.250   2.359  51.766  1.00  0.00    -0.224 NA
HETATM    7  C7  UNL     1      26.013   2.375  51.266  1.00  0.00     0.142 A 
HETATM    8  C14 UNL     1      25.115   1.584  51.943  1.00  0.00     0.041 A 
HETATM    9  C15 UNL     1      23.788   1.446  51.607  1.00  0.00     0.055 A 
HETATM   10  C16 UNL     1      22.861   0.663  52.261  1.00  0.00     0.076 A 
ENDROOT
BRANCH  10  11
HETATM   11  O1  UNL     1      21.543   0.555  51.889  1.00  0.00    -0.348 OA
BRANCH  11  12
HETATM   12  C17 UNL     1      20.492   1.344  52.378  1.00  0.00     0.209 C 
BRANCH  12  13
HETATM   13  C18 UNL     1      20.519   2.651  51.571  1.00  0.00     0.170 C 
BRANCH  13  14
HETATM   14  O2  UNL     1      19.829   3.592  52.328  1.00  0.00    -0.392 OA
HETATM   15  H16 UNL     1      19.257   3.173  53.007  1.00  0.00     0.210 HD
ENDBRANCH  13  14
BRANCH  13  16
HETATM   16  C19 UNL     1      19.871   2.363  50.260  1.00  0.00     0.308 C 
BRANCH  16  17
HETATM   17  N4  UNL     1      20.656   2.579  49.099  1.00  0.00     0.116 N 
HETATM   18  C20 UNL     1      21.336   1.449  48.562  1.00  0.00     0.301 C 
HETATM   19  C21 UNL     1      22.529   2.126  47.873  1.00  0.00     0.200 C 
HETATM   20  O3  UNL     1      22.802   3.194  48.714  1.00  0.00    -0.361 OA
HETATM   21  C22 UNL     1      21.543   3.691  49.095  1.00  0.00     0.440 C 
ENDBRANCH  16  17
ENDBRANCH  13  16
ENDBRANCH  12  13
ENDBRANCH  11  12
ENDBRANCH  10  11
BRANCH   1  22
HETATM   22  C2  UNL     1      22.324  -0.913  54.096  1.00  0.00     0.037 C 
HETATM   23  C1  UNL     1      22.983  -1.394  55.375  1.00  0.00     0.010 C 
ENDBRANCH   1  22
BRANCH   7  24
HETATM   24  N3  UNL     1      25.571   3.112  50.144  1.00  0.00    -0.340 N 
HETATM   25  H8  UNL     1      24.848   2.764  49.516  1.00  0.00     0.167 HD
BRANCH  24  26
HETATM   26  C8  UNL     1      26.021   4.382  49.712  1.00  0.00     0.035 A 
HETATM   27  C9  UNL     1      27.116   4.534  48.902  1.00  0.00     0.032 A 
HETATM   28  C10 UNL     1      27.596   5.751  48.464  1.00  0.00     0.046 A 
HETATM   29  C11 UNL     1      26.962   6.929  48.843  1.00  0.00     0.138 A 
HETATM   30  F1  UNL     1      27.368   8.145  48.459  1.00  0.00    -0.204 F 
HETATM   31  C12 UNL     1      25.858   6.807  49.656  1.00  0.00     0.074 A 
HETATM   32 CL1  UNL     1      25.006   8.243  50.176  1.00  0.00    -0.081 Cl
HETATM   33  C13 UNL     1      25.437   5.574  50.052  1.00  0.00     0.056 A 
ENDBRANCH  24  26
ENDBRANCH   7  24
TORSDOF 9
ENDMDL
MODEL 4
REMARK VINA RESULT:      -8.0      6.321      9.076
REMARK  9 active torsions:
REMARK  status: ('A' for Active; 'I' for Inactive)
REMARK    1  A    between atoms: C2_2  and  C3_3 
REMARK    2  A    between atoms: C7_9  and  N3_10 
REMARK    3  A    between atoms: N3_10  and  C8_11 
REMARK    4  A    between atoms: C16_21  and  O1_22 
REMARK    5  A    between atoms: O1_22  and  C17_23 
REMARK    6  A    between atoms: C17_23  and  C18_24 
REMARK    7  A    between atoms: C18_24  and  O2_25 
REMARK    8  A    between atoms: C18_24  and  C19_26 
REMARK    9  A    between atoms: C19_26  and  N4_27 
ROOT
HETATM    1  C3  UNL     1      27.401   6.987  47.843  1.00  0.00    -0.023 A 
HETATM    2  C4  UNL     1      26.052   6.928  48.120  1.00  0.00     0.042 A 
HETATM    3  C5  UNL     1      25.533   5.844  48.790  1.00  0.00     0.072 A 
HETATM    4  N1  UNL     1      24.200   5.852  49.027  1.00  0.00    -0.241 NA
HETATM    5  C6  UNL     1      23.627   4.805  49.687  1.00  0.00     0.236 A 
HETATM    6  N2  UNL     1      24.401   3.794  50.086  1.00  0.00    -0.224 NA
HETATM    7  C7  UNL     1      25.719   3.702  49.896  1.00  0.00     0.142 A 
HETATM    8  C14 UNL     1      26.274   4.768  49.229  1.00  0.00     0.041 A 
HETATM    9  C15 UNL     1      27.610   4.889  48.923  1.00  0.00     0.055 A 
HETATM   10  C16 UNL     1      28.199   5.941  48.256  1.00  0.00     0.076 A 
ENDROOT
BRANCH  10  11
HETATM   11  O1  UNL     1      29.542   6.019  47.972  1.00  0.00    -0.348 OA
BRANCH  11  12
HETATM   12  C17 UNL     1      30.498   6.701  48.737  1.00  0.00     0.209 C 
BRANCH  12  13
HETATM   13  C18 UNL     1      31.576   5.670  49.105  1.00  0.00     0.170 C 
BRANCH  13  14
HETATM   14  O2  UNL     1      31.369   5.349  50.442  1.00  0.00    -0.392 OA
HETATM   15  H16 UNL     1      31.905   4.577  50.724  1.00  0.00     0.210 HD
ENDBRANCH  13  14
BRANCH  13  16
HETATM   16  C19 UNL     1      32.895   6.315  48.852  1.00  0.00     0.308 C 
BRANCH  16  17
HETATM   17  N4  UNL     1      33.798   5.616  48.013  1.00  0.00     0.116 N 
HETATM   18  C20 UNL     1      33.235   4.676  47.102  1.00  0.00     0.301 C 
HETATM   19  C21 UNL     1      34.403   3.694  46.935  1.00  0.00     0.200 C 
HETATM   20  O3  UNL     1      34.984   3.694  48.194  1.00  0.00    -0.361 OA
HETATM   21  C22 UNL     1      34.949   5.035  48.614  1.00  0.00     0.440 C 
ENDBRANCH  16  17
ENDBRANCH  13  16
ENDBRANCH  12  13
ENDBRANCH  11  12
ENDBRANCH  10  11
BRANCH   1  22
HETATM   22  C2  UNL     1      27.980   8.136  47.129  1.00  0.00     0.037 C 
HETATM   23  C1  UNL     1      27.070   8.505  45.971  1.00  0.00     0.010 C 
ENDBRANCH   1  22
BRANCH   7  24
HETATM   24  N3  UNL     1      26.554   2.641  50.313  1.00  0.00    -0.340 N 
HETATM   25  H8  UNL     1      27.238   2.212  49.691  1.00  0.00     0.167 HD
BRANCH  24  26
HETATM   26  C8  UNL     1      26.592   2.018  51.582  1.00  0.00     0.035 A 
HETATM   27  C9  UNL     1      27.598   2.251  52.483  1.00  0.00     0.032 A 
HETATM   28  C10 UNL     1      27.682   1.659  53.725  1.00  0.00     0.046 A 
HETATM   29  C11 UNL     1      26.706   0.758  54.137  1.00  0.00     0.138 A 
HETATM   30  F1  UNL     1      26.718   0.145  55.326  1.00  0.00    -0.204 F 
HETATM   31  C12 UNL     1      25.682   0.504  53.253  1.00  0.00     0.074 A 
HETATM   32 CL1  UNL     1      24.415  -0.616  53.697  1.00  0.00    -0.081 Cl
HETATM   33  C13 UNL     1      25.659   1.124  52.041  1.00  0.00     0.056 A 
ENDBRANCH  24  26
ENDBRANCH   7  24
TORSDOF 9
ENDMDL
MODEL 5
REMARK VINA RESULT:      -7.8      3.847      6.683
REMARK  9 active torsions:
REMARK  status: ('A' for Active; 'I' for Inactive)
REMARK    1  A    between atoms: C2_2  and  C3_3 
REMARK    2  A    between atoms: C7_9  and  N3_10 
REMARK    3  A    between atoms: N3_10  and  C8_11 
REMARK    4  A    between atoms: C16_21  and  O1_22 
REMARK    5  A    between atoms: O1_22  and  C17_23 
REMARK    6  A    between atoms: C17_23  and  C18_24 
REMARK    7  A    between atoms: C18_24  and  O2_25 
REMARK    8  A    between atoms: C18_24  and  C19_26 
REMARK    9  A    between atoms: C19_26  and  N4_27 
ROOT
HETATM    1  C3  UNL     1      27.035   0.320  53.236  1.00  0.00    -0.023 A 
HETATM    2  C4  UNL     1      26.529  -0.391  54.301  1.00  0.00     0.042 A 
HETATM    3  C5  UNL     1      25.171  -0.577  54.423  1.00  0.00     0.072 A 
HETATM    4  N1  UNL     1      24.745  -1.286  55.496  1.00  0.00    -0.241 NA
HETATM    5  C6  UNL     1      23.410  -1.503  55.671  1.00  0.00     0.236 A 
HETATM    6  N2  UNL     1      22.554  -1.009  54.775  1.00  0.00    -0.224 NA
HETATM    7  C7  UNL     1      22.884  -0.302  53.692  1.00  0.00     0.142 A 
HETATM    8  C14 UNL     1      24.233  -0.096  53.537  1.00  0.00     0.041 A 
HETATM    9  C15 UNL     1      24.802   0.603  52.497  1.00  0.00     0.055 A 
HETATM   10  C16 UNL     1      26.149   0.830  52.310  1.00  0.00     0.076 A 
ENDROOT
BRANCH  10  11
HETATM   11  O1  UNL     1      26.673   1.537  51.254  1.00  0.00    -0.348 OA
BRANCH  11  12
HETATM   12  C17 UNL     1      26.824   2.929  51.201  1.00  0.00     0.209 C 
BRANCH  12  13
HETATM   13  C18 UNL     1      26.192   3.385  49.877  1.00  0.00     0.170 C 
BRANCH  13  14
HETATM   14  O2  UNL     1      27.242   3.799  49.064  1.00  0.00    -0.392 OA
HETATM   15  H16 UNL     1      27.219   4.765  48.895  1.00  0.00     0.210 HD
ENDBRANCH  13  14
BRANCH  13  16
HETATM   16  C19 UNL     1      25.238   4.480  50.208  1.00  0.00     0.308 C 
BRANCH  16  17
HETATM   17  N4  UNL     1      23.857   4.178  50.101  1.00  0.00     0.116 N 
HETATM   18  C20 UNL     1      23.046   4.461  51.238  1.00  0.00     0.301 C 
HETATM   19  C21 UNL     1      21.922   3.431  51.059  1.00  0.00     0.200 C 
HETATM   20  O3  UNL     1      22.587   2.347  50.507  1.00  0.00    -0.361 OA
HETATM   21  C22 UNL     1      23.494   2.903  49.588  1.00  0.00     0.440 C 
ENDBRANCH  16  17
ENDBRANCH  13  16
ENDBRANCH  12  13
ENDBRANCH  11  12
ENDBRANCH  10  11
BRANCH   1  22
HETATM   22  C2  UNL     1      28.484   0.532  53.083  1.00  0.00     0.037 C 
HETATM   23  C1  UNL     1      29.223  -0.556  53.840  1.00  0.00     0.010 C 
ENDBRANCH   1  22
BRANCH   7  24
HETATM   24  N3  UNL     1      21.992   0.226  52.732  1.00  0.00    -0.340 N 
HETATM   25  H8  UNL     1      22.285   0.914  52.038  1.00  0.00     0.167 HD
BRANCH  24  26
HETATM   26  C8  UNL     1      20.620  -0.076  52.567  1.00  0.00     0.035 A 
HETATM   27  C9  UNL     1      19.917  -0.812  53.484  1.00  0.00     0.032 A 
HETATM   28  C10 UNL     1      18.583  -1.140  53.359  1.00  0.00     0.046 A 
HETATM   29  C11 UNL     1      17.860  -0.718  52.249  1.00  0.00     0.138 A 
HETATM   30  F1  UNL     1      16.565  -0.995  52.058  1.00  0.00    -0.204 F 
HETATM   31  C12 UNL     1      18.540   0.025  51.311  1.00  0.00     0.074 A 
HETATM   32 CL1  UNL     1      17.702   0.594  49.886  1.00  0.00    -0.081 Cl
HETATM   33  C13 UNL     1      19.858   0.313  51.495  1.00  0.00     0.056 A 
ENDBRANCH  24  26
ENDBRANCH   7  24
TORSDOF 9
ENDMDL
MODEL 6
REMARK VINA RESULT:      -7.7      3.907      7.953
REMARK  9 active torsions:
REMARK  status: ('A' for Active; 'I' for Inactive)
REMARK    1  A    between atoms: C2_2  and  C3_3 
REMARK    2  A    between atoms: C7_9  and  N3_10 
REMARK    3  A    between atoms: N3_10  and  C8_11 
REMARK    4  A    between atoms: C16_21  and  O1_22 
REMARK    5  A    between atoms: O1_22  and  C17_23 
REMARK    6  A    between atoms: C17_23  and  C18_24 
REMARK    7  A    between atoms: C18_24  and  O2_25 
REMARK    8  A    between atoms: C18_24  and  C19_26 
REMARK    9  A    between atoms: C19_26  and  N4_27 
ROOT
HETATM    1  C3  UNL     1      26.239   5.125  49.267  1.00  0.00    -0.023 A 
HETATM    2  C4  UNL     1      25.333   6.112  48.945  1.00  0.00     0.042 A 
HETATM    3  C5  UNL     1      24.139   6.200  49.624  1.00  0.00     0.072 A 
HETATM    4  N1  UNL     1      23.297   7.194  49.255  1.00  0.00    -0.241 NA
HETATM    5  C6  UNL     1      22.098   7.331  49.891  1.00  0.00     0.236 A 
HETATM    6  N2  UNL     1      21.786   6.477  50.867  1.00  0.00    -0.224 NA
HETATM    7  C7  UNL     1      22.552   5.471  51.295  1.00  0.00     0.142 A 
HETATM    8  C14 UNL     1      23.754   5.352  50.640  1.00  0.00     0.041 A 
HETATM    9  C15 UNL     1      24.700   4.392  50.912  1.00  0.00     0.055 A 
HETATM   10  C16 UNL     1      25.914   4.243  50.276  1.00  0.00     0.076 A 
ENDROOT
BRANCH  10  11
HETATM   11  O1  UNL     1      26.830   3.265  50.582  1.00  0.00    -0.348 OA
BRANCH  11  12
HETATM   12  C17 UNL     1      26.527   1.996  51.093  1.00  0.00     0.209 C 
BRANCH  12  13
HETATM   13  C18 UNL     1      27.216   1.902  52.462  1.00  0.00     0.170 C 
BRANCH  13  14
HETATM   14  O2  UNL     1      28.237   2.847  52.452  1.00  0.00    -0.392 OA
HETATM   15  H16 UNL     1      27.894   3.762  52.549  1.00  0.00     0.210 HD
ENDBRANCH  13  14
BRANCH  13  16
HETATM   16  C19 UNL     1      27.712   0.504  52.602  1.00  0.00     0.308 C 
BRANCH  16  17
HETATM   17  N4  UNL     1      27.084  -0.301  53.585  1.00  0.00     0.116 N 
HETATM   18  C20 UNL     1      25.731  -0.677  53.342  1.00  0.00     0.301 C 
HETATM   19  C21 UNL     1      25.217  -0.862  54.777  1.00  0.00     0.200 C 
HETATM   20  O3  UNL     1      25.909   0.114  55.477  1.00  0.00    -0.361 OA
HETATM   21  C22 UNL     1      27.211   0.092  54.946  1.00  0.00     0.440 C 
ENDBRANCH  16  17
ENDBRANCH  13  16
ENDBRANCH  12  13
ENDBRANCH  11  12
ENDBRANCH  10  11
BRANCH   1  22
HETATM   22  C2  UNL     1      27.523   5.012  48.556  1.00  0.00     0.037 C 
HETATM   23  C1  UNL     1      28.003   6.402  48.182  1.00  0.00     0.010 C 
ENDBRANCH   1  22
BRANCH   7  24
HETATM   24  N3  UNL     1      22.238   4.559  52.327  1.00  0.00    -0.340 N 
HETATM   25  H8  UNL     1      22.543   4.701  53.289  1.00  0.00     0.167 HD
BRANCH  24  26
HETATM   26  C8  UNL     1      21.494   3.360  52.226  1.00  0.00     0.035 A 
HETATM   27  C9  UNL     1      20.157   3.350  51.926  1.00  0.00     0.032 A 
HETATM   28  C10 UNL     1      19.391   2.208  51.828  1.00  0.00     0.046 A 
HETATM   29  C11 UNL     1      19.967   0.960  52.037  1.00  0.00     0.138 A 
HETATM   30  F1  UNL     1      19.290  -0.191  51.958  1.00  0.00    -0.204 F 
HETATM   31  C12 UNL     1      21.310   0.938  52.338  1.00  0.00     0.074 A 
HETATM   32 CL1  UNL     1      22.109  -0.593  52.615  1.00  0.00    -0.081 Cl
HETATM   33  C13 UNL     1      22.008   2.104  52.421  1.00  0.00     0.056 A 
ENDBRANCH  24  26
ENDBRANCH   7  24
TORSDOF 9
ENDMDL
MODEL 7
REMARK VINA RESULT:      -7.7      3.396      4.497
REMARK  9 active torsions:
REMARK  status: ('A' for Active; 'I' for Inactive)
REMARK    1  A    between atoms: C2_2  and  C3_3 
REMARK    2  A    between atoms: C7_9  and  N3_10 
REMARK    3  A    between atoms: N3_10  and  C8_11 
REMARK    4  A    between atoms: C16_21  and  O1_22 
REMARK    5  A    between atoms: O1_22  and  C17_23 
REMARK    6  A    between atoms: C17_23  and  C18_24 
REMARK    7  A    between atoms: C18_24  and  O2_25 
REMARK    8  A    between atoms: C18_24  and  C19_26 
REMARK    9  A    between atoms: C19_26  and  N4_27 
ROOT
HETATM    1  C3  UNL     1      22.610   2.694  49.790  1.00  0.00    -0.023 A 
HETATM    2  C4  UNL     1      22.047   1.600  50.410  1.00  0.00     0.042 A 
HETATM    3  C5  UNL     1      22.660   1.039  51.507  1.00  0.00     0.072 A 
HETATM    4  N1  UNL     1      22.052  -0.035  52.065  1.00  0.00    -0.241 NA
HETATM    5  C6  UNL     1      22.612  -0.635  53.155  1.00  0.00     0.236 A 
HETATM    6  N2  UNL     1      23.751  -0.144  53.645  1.00  0.00    -0.224 NA
HETATM    7  C7  UNL     1      24.417   0.907  53.162  1.00  0.00     0.142 A 
HETATM    8  C14 UNL     1      23.835   1.494  52.065  1.00  0.00     0.041 A 
HETATM    9  C15 UNL     1      24.343   2.587  51.401  1.00  0.00     0.055 A 
HETATM   10  C16 UNL     1      23.788   3.201  50.299  1.00  0.00     0.076 A 
ENDROOT
BRANCH  10  11
HETATM   11  O1  UNL     1      24.332   4.293  49.668  1.00  0.00    -0.348 OA
BRANCH  11  12
HETATM   12  C17 UNL     1      25.614   4.811  49.898  1.00  0.00     0.209 C 
BRANCH  12  13
HETATM   13  C18 UNL     1      25.440   6.321  50.119  1.00  0.00     0.170 C 
BRANCH  13  14
HETATM   14  O2  UNL     1      24.125   6.506  50.534  1.00  0.00    -0.392 OA
HETATM   15  H16 UNL     1      23.730   7.321  50.156  1.00  0.00     0.210 HD
ENDBRANCH  13  14
BRANCH  13  16
HETATM   16  C19 UNL     1      25.745   6.985  48.820  1.00  0.00     0.308 C 
BRANCH  16  17
HETATM   17  N4  UNL     1      26.460   8.208  48.881  1.00  0.00     0.116 N 
HETATM   18  C20 UNL     1      27.880   8.121  48.944  1.00  0.00     0.301 C 
HETATM   19  C21 UNL     1      28.220   9.426  49.679  1.00  0.00     0.200 C 
HETATM   20  O3  UNL     1      27.153   9.572  50.551  1.00  0.00    -0.361 OA
HETATM   21  C22 UNL     1      26.020   9.189  49.812  1.00  0.00     0.440 C 
ENDBRANCH  16  17
ENDBRANCH  13  16
ENDBRANCH  12  13
ENDBRANCH  11  12
ENDBRANCH  10  11
BRANCH   1  22
HETATM   22  C2  UNL     1      21.972   3.313  48.616  1.00  0.00     0.037 C 
HETATM   23  C1  UNL     1      22.264   2.464  47.393  1.00  0.00     0.010 C 
ENDBRANCH   1  22
BRANCH   7  24
HETATM   24  N3  UNL     1      25.623   1.441  53.670  1.00  0.00    -0.340 N 
HETATM   25  H8  UNL     1      25.671   2.368  54.092  1.00  0.00     0.167 HD
BRANCH  24  26
HETATM   26  C8  UNL     1      26.900   0.834  53.684  1.00  0.00     0.035 A 
HETATM   27  C9  UNL     1      28.036   1.524  54.019  1.00  0.00     0.032 A 
HETATM   28  C10 UNL     1      29.301   0.976  54.037  1.00  0.00     0.046 A 
HETATM   29  C11 UNL     1      29.489  -0.360  53.701  1.00  0.00     0.138 A 
HETATM   30  F1  UNL     1      30.684  -0.962  53.696  1.00  0.00    -0.204 F 
HETATM   31  C12 UNL     1      28.366  -1.080  53.362  1.00  0.00     0.074 A 
HETATM   32 CL1  UNL     1      28.519  -2.767  52.928  1.00  0.00    -0.081 Cl
HETATM   33  C13 UNL     1      27.145  -0.477  53.365  1.00  0.00     0.056 A 
ENDBRANCH  24  26
ENDBRANCH   7  24
TORSDOF 9
ENDMDL
MODEL 8
REMARK VINA RESULT:      -7.7      4.060      6.741
REMARK  9 active torsions:
REMARK  status: ('A' for Active; 'I' for Inactive)
REMARK    1  A    between atoms: C2_2  and  C3_3 
REMARK    2  A    between atoms: C7_9  and  N3_10 
REMARK    3  A    between atoms: N3_10  and  C8_11 
REMARK    4  A    between atoms: C16_21  and  O1_22 
REMARK    5  A    between atoms: O1_22  and  C17_23 
REMARK    6  A    between atoms: C17_23  and  C18_24 
REMARK    7  A    between atoms: C18_24  and  O2_25 
REMARK    8  A    between atoms: C18_24  and  C19_26 
REMARK    9  A    between atoms: C19_26  and  N4_27 
ROOT
HETATM    1  C3  UNL     1      25.997  -0.180  52.891  1.00  0.00    -0.023 A 
HETATM    2  C4  UNL     1      25.184  -0.847  53.781  1.00  0.00     0.042 A 
HETATM    3  C5  UNL     1      23.856  -0.500  53.895  1.00  0.00     0.072 A 
HETATM    4  N1  UNL     1      23.117  -1.197  54.790  1.00  0.00    -0.241 NA
HETATM    5  C6  UNL     1      21.795  -0.899  54.948  1.00  0.00     0.236 A 
HETATM    6  N2  UNL     1      21.263   0.077  54.210  1.00  0.00    -0.224 NA
HETATM    7  C7  UNL     1      21.914   0.812  53.307  1.00  0.00     0.142 A 
HETATM    8  C14 UNL     1      23.243   0.495  53.165  1.00  0.00     0.041 A 
HETATM    9  C15 UNL     1      24.108   1.119  52.296  1.00  0.00     0.055 A 
HETATM   10  C16 UNL     1      25.444   0.828  52.129  1.00  0.00     0.076 A 
ENDROOT
BRANCH  10  11
HETATM   11  O1  UNL     1      26.272   1.480  51.246  1.00  0.00    -0.348 OA
BRANCH  11  12
HETATM   12  C17 UNL     1      26.685   2.815  51.353  1.00  0.00     0.209 C 
BRANCH  12  13
HETATM   13  C18 UNL     1      26.303   3.496  50.030  1.00  0.00     0.170 C 
BRANCH  13  14
HETATM   14  O2  UNL     1      27.436   4.177  49.598  1.00  0.00    -0.392 OA
HETATM   15  H16 UNL     1      28.017   4.437  50.345  1.00  0.00     0.210 HD
ENDBRANCH  13  14
BRANCH  13  16
HETATM   16  C19 UNL     1      25.152   4.396  50.324  1.00  0.00     0.308 C 
BRANCH  16  17
HETATM   17  N4  UNL     1      23.859   3.820  50.263  1.00  0.00     0.116 N 
HETATM   18  C20 UNL     1      23.543   3.066  49.096  1.00  0.00     0.301 C 
HETATM   19  C21 UNL     1      22.017   3.230  49.046  1.00  0.00     0.200 C 
HETATM   20  O3  UNL     1      21.833   4.517  49.527  1.00  0.00    -0.361 OA
HETATM   21  C22 UNL     1      22.748   4.647  50.587  1.00  0.00     0.440 C 
ENDBRANCH  16  17
ENDBRANCH  13  16
ENDBRANCH  12  13
ENDBRANCH  11  12
ENDBRANCH  10  11
BRANCH   1  22
HETATM   22  C2  UNL     1      27.419  -0.533  52.751  1.00  0.00     0.037 C 
HETATM   23  C1  UNL     1      28.195   0.081  53.901  1.00  0.00     0.010 C 
ENDBRANCH   1  22
BRANCH   7  24
HETATM   24  N3  UNL     1      21.366   1.847  52.516  1.00  0.00    -0.340 N 
HETATM   25  H8  UNL     1      21.844   2.737  52.378  1.00  0.00     0.167 HD
BRANCH  24  26
HETATM   26  C8  UNL     1      20.135   1.843  51.817  1.00  0.00     0.035 A 
HETATM   27  C9  UNL     1      19.714   0.766  51.082  1.00  0.00     0.032 A 
HETATM   28  C10 UNL     1      18.529   0.722  50.378  1.00  0.00     0.046 A 
HETATM   29  C11 UNL     1      17.672   1.816  50.383  1.00  0.00     0.138 A 
HETATM   30  F1  UNL     1      16.506   1.848  49.726  1.00  0.00    -0.204 F 
HETATM   31  C12 UNL     1      18.068   2.913  51.114  1.00  0.00     0.074 A 
HETATM   32 CL1  UNL     1      17.045   4.329  51.171  1.00  0.00    -0.081 Cl
HETATM   33  C13 UNL     1      19.252   2.891  51.787  1.00  0.00     0.056 A 
ENDBRANCH  24  26
ENDBRANCH   7  24
TORSDOF 9
ENDMDL
MODEL 9
REMARK VINA RESULT:      -7.4      4.143      6.803
REMARK  9 active torsions:
REMARK  status: ('A' for Active; 'I' for Inactive)
REMARK    1  A    between atoms: C2_2  and  C3_3 
REMARK    2  A    between atoms: C7_9  and  N3_10 
REMARK    3  A    between atoms: N3_10  and  C8_11 
REMARK    4  A    between atoms: C16_21  and  O1_22 
REMARK    5  A    between atoms: O1_22  and  C17_23 
REMARK    6  A    between atoms: C17_23  and  C18_24 
REMARK    7  A    between atoms: C18_24  and  O2_25 
REMARK    8  A    between atoms: C18_24  and  C19_26 
REMARK    9  A    between atoms: C19_26  and  N4_27 
ROOT
HETATM    1  C3  UNL     1      25.868   0.436  52.781  1.00  0.00    -0.023 A 
HETATM    2  C4  UNL     1      25.377  -0.426  53.737  1.00  0.00     0.042 A 
HETATM    3  C5  UNL     1      24.028  -0.456  54.011  1.00  0.00     0.072 A 
HETATM    4  N1  UNL     1      23.617  -1.327  54.963  1.00  0.00    -0.241 NA
HETATM    5  C6  UNL     1      22.292  -1.402  55.279  1.00  0.00     0.236 A 
HETATM    6  N2  UNL     1      21.431  -0.612  54.636  1.00  0.00    -0.224 NA
HETATM    7  C7  UNL     1      21.747   0.272  53.687  1.00  0.00     0.142 A 
HETATM    8  C14 UNL     1      23.086   0.331  53.386  1.00  0.00     0.041 A 
HETATM    9  C15 UNL     1      23.639   1.166  52.443  1.00  0.00     0.055 A 
HETATM   10  C16 UNL     1      24.976   1.253  52.117  1.00  0.00     0.076 A 
ENDROOT
BRANCH  10  11
HETATM   11  O1  UNL     1      25.484   2.105  51.166  1.00  0.00    -0.348 OA
BRANCH  11  12
HETATM   12  C17 UNL     1      24.971   3.369  50.848  1.00  0.00     0.209 C 
BRANCH  12  13
HETATM   13  C18 UNL     1      25.943   3.991  49.834  1.00  0.00     0.170 C 
BRANCH  13  14
HETATM   14  O2  UNL     1      27.224   3.741  50.316  1.00  0.00    -0.392 OA
HETATM   15  H16 UNL     1      27.209   3.269  51.176  1.00  0.00     0.210 HD
ENDBRANCH  13  14
BRANCH  13  16
HETATM   16  C19 UNL     1      25.618   5.443  49.758  1.00  0.00     0.308 C 
BRANCH  16  17
HETATM   17  N4  UNL     1      24.340   5.837  50.229  1.00  0.00     0.116 N 
HETATM   18  C20 UNL     1      23.356   6.143  49.246  1.00  0.00     0.301 C 
HETATM   19  C21 UNL     1      22.473   7.135  50.015  1.00  0.00     0.200 C 
HETATM   20  O3  UNL     1      23.389   7.811  50.806  1.00  0.00    -0.361 OA
HETATM   21  C22 UNL     1      24.285   6.823  51.252  1.00  0.00     0.440 C 
ENDBRANCH  16  17
ENDBRANCH  13  16
ENDBRANCH  12  13
ENDBRANCH  11  12
ENDBRANCH  10  11
BRANCH   1  22
HETATM   22  C2  UNL     1      27.306   0.486  52.470  1.00  0.00     0.037 C 
HETATM   23  C1  UNL     1      27.984  -0.726  53.080  1.00  0.00     0.010 C 
ENDBRANCH   1  22
BRANCH   7  24
HETATM   24  N3  UNL     1      20.848   1.115  52.995  1.00  0.00    -0.340 N 
HETATM   25  H8  UNL     1      20.897   2.132  53.059  1.00  0.00     0.167 HD
BRANCH  24  26
HETATM   26  C8  UNL     1      19.785   0.734  52.143  1.00  0.00     0.035 A 
HETATM   27  C9  UNL     1      19.668   1.205  50.862  1.00  0.00     0.032 A 
HETATM   28  C10 UNL     1      18.644   0.868  50.001  1.00  0.00     0.046 A 
HETATM   29  C11 UNL     1      17.642  -0.002  50.413  1.00  0.00     0.138 A 
HETATM   30  F1  UNL     1      16.619  -0.376  49.636  1.00  0.00    -0.204 F 
HETATM   31  C12 UNL     1      17.734  -0.493  51.696  1.00  0.00     0.074 A 
HETATM   32 CL1  UNL     1      16.513  -1.595  52.289  1.00  0.00    -0.081 Cl
HETATM   33  C13 UNL     1      18.772  -0.120  52.495  1.00  0.00     0.056 A 
ENDBRANCH  24  26
ENDBRANCH   7  24
TORSDOF 9
ENDMDL
