MODEL 1
REMARK VINA RESULT:      -8.2      0.000      0.000
REMARK  9 active torsions:
REMARK  status: ('A' for Active; 'I' for Inactive)
REMARK    1  A    between atoms: C2_3  and  C3_4 
REMARK    2  A    between atoms: C3_4  and  O1_5 
REMARK    3  A    between atoms: O1_5  and  C4_6 
REMARK    4  A    between atoms: C4_6  and  C5_8 
REMARK    5  A    between atoms: C5_8  and  C6_9 
REMARK    6  A    between atoms: C6_9  and  N2_10 
REMARK    7  A    between atoms: C12_18  and  N5_19 
REMARK    8  A    between atoms: N5_19  and  C13_20 
REMARK    9  A    between atoms: C19_27  and  O3_28 
ROOT
HETATM    1  N2  UNL     1      23.648   1.130  52.511  1.00  0.00    -0.347 N 
HETATM    2  C7  UNL     1      22.811   0.214  53.195  1.00  0.00     0.089 C 
HETATM    3  C8  UNL     1      21.628  -0.300  52.818  1.00  0.00     0.019 C 
HETATM    4  C9  UNL     1      21.216   0.230  51.513  1.00  0.00     0.034 C 
HETATM    5  C10 UNL     1      21.926   1.126  50.848  1.00  0.00     0.099 C 
HETATM    6  N3  UNL     1      21.466   1.554  49.564  1.00  0.00    -0.241 NA
HETATM    7  C11 UNL     1      22.167   2.349  48.820  1.00  0.00     0.235 C 
HETATM    8  N4  UNL     1      23.411   2.824  49.309  1.00  0.00    -0.223 NA
HETATM    9  C12 UNL     1      23.895   2.540  50.477  1.00  0.00     0.168 C 
HETATM   10  C19 UNL     1      23.053   1.865  51.455  1.00  0.00     0.242 C 
ENDROOT
BRANCH   1  11
HETATM   11  C6  UNL     1      24.984   1.209  52.991  1.00  0.00     0.136 C 
BRANCH  11  12
HETATM   12  C5  UNL     1      25.919   0.130  52.493  1.00  0.00     0.131 C 
BRANCH  12  13
HETATM   13  C4  UNL     1      26.311  -0.701  53.683  1.00  0.00     0.260 C 
HETATM   14  O2  UNL     1      25.713  -0.956  54.760  1.00  0.00    -0.265 OA
BRANCH  13  15
HETATM   15  O1  UNL     1      27.555  -1.296  53.555  1.00  0.00    -0.316 OA
BRANCH  15  16
HETATM   16  C3  UNL     1      28.772  -0.597  53.610  1.00  0.00     0.224 C 
BRANCH  16  17
HETATM   17  C2  UNL     1      28.926   0.310  54.756  1.00  0.00     0.109 C 
HETATM   18  N1  UNL     1      28.866   1.590  54.782  1.00  0.00    -0.308 NA
HETATM   19  C1  UNL     1      28.625   2.392  53.616  1.00  0.00     0.177 C 
ENDBRANCH  16  17
ENDBRANCH  15  16
ENDBRANCH  13  15
ENDBRANCH  12  13
ENDBRANCH  11  12
ENDBRANCH   1  11
BRANCH  10  20
HETATM   20  O3  UNL     1      22.424   2.967  52.214  1.00  0.00    -0.359 OA
HETATM   21  H20 UNL     1      22.648   2.882  53.148  1.00  0.00     0.213 HD
ENDBRANCH  10  20
BRANCH   9  22
HETATM   22  N5  UNL     1      25.165   3.104  50.752  1.00  0.00    -0.340 N 
HETATM   23  H15 UNL     1      25.708   2.642  51.518  1.00  0.00     0.167 HD
BRANCH  22  24
HETATM   24  C13 UNL     1      25.723   4.229  50.100  1.00  0.00     0.034 A 
HETATM   25  C14 UNL     1      26.862   3.993  49.303  1.00  0.00     0.029 A 
HETATM   26  C15 UNL     1      27.530   4.947  48.610  1.00  0.00     0.004 A 
HETATM   27  C16 UNL     1      27.127   6.269  48.637  1.00  0.00     0.019 A 
HETATM   28  C17 UNL     1      26.012   6.503  49.415  1.00  0.00     0.013 A 
HETATM   29 BR1  UNL     1      25.433   8.331  49.486  1.00  0.00    -0.051 Br
HETATM   30  C18 UNL     1      25.324   5.543  50.123  1.00  0.00     0.048 A 
ENDBRANCH  22  24
ENDBRANCH   9  22
TORSDOF 9
ENDMDL
MODEL 2
REMARK VINA RESULT:      -8.0      2.793      5.396
REMARK  9 active torsions:
REMARK  status: ('A' for Active; 'I' for Inactive)
REMARK    1  A    between atoms: C2_3  and  C3_4 
REMARK    2  A    between atoms: C3_4  and  O1_5 
REMARK    3  A    between atoms: O1_5  and  C4_6 
REMARK    4  A    between atoms: C4_6  and  C5_8 
REMARK    5  A    between atoms: C5_8  and  C6_9 
REMARK    6  A    between atoms: C6_9  and  N2_10 
REMARK    7  A    between atoms: C12_18  and  N5_19 
REMARK    8  A    between atoms: N5_19  and  C13_20 
REMARK    9  A    between atoms: C19_27  and  O3_28 
ROOT
HETATM    1  N2  UNL     1      25.951   3.071  50.751  1.00  0.00    -0.347 N 
HETATM    2  C7  UNL     1      26.796   3.453  49.680  1.00  0.00     0.089 C 
HETATM    3  C8  UNL     1      26.763   4.567  48.929  1.00  0.00     0.019 C 
HETATM    4  C9  UNL     1      25.659   5.443  49.334  1.00  0.00     0.034 C 
HETATM    5  C10 UNL     1      24.804   5.122  50.292  1.00  0.00     0.099 C 
HETATM    6  N3  UNL     1      23.783   6.056  50.647  1.00  0.00    -0.241 NA
HETATM    7  C11 UNL     1      22.983   5.845  51.642  1.00  0.00     0.235 C 
HETATM    8  N4  UNL     1      23.111   4.639  52.379  1.00  0.00    -0.223 NA
HETATM    9  C12 UNL     1      23.965   3.703  52.109  1.00  0.00     0.168 C 
HETATM   10  C19 UNL     1      24.718   3.760  50.863  1.00  0.00     0.242 C 
ENDROOT
BRANCH   1  11
HETATM   11  C6  UNL     1      26.446   2.019  51.571  1.00  0.00     0.136 C 
BRANCH  11  12
HETATM   12  C5  UNL     1      27.681   2.350  52.377  1.00  0.00     0.131 C 
BRANCH  12  13
HETATM   13  C4  UNL     1      27.384   1.997  53.808  1.00  0.00     0.260 C 
HETATM   14  O2  UNL     1      26.333   2.086  54.493  1.00  0.00    -0.265 OA
BRANCH  13  15
HETATM   15  O1  UNL     1      28.472   1.468  54.483  1.00  0.00    -0.316 OA
BRANCH  15  16
HETATM   16  C3  UNL     1      28.561   0.132  54.910  1.00  0.00     0.224 C 
BRANCH  16  17
HETATM   17  C2  UNL     1      28.985  -0.830  53.882  1.00  0.00     0.109 C 
HETATM   18  N1  UNL     1      28.261  -1.520  53.081  1.00  0.00    -0.308 NA
HETATM   19  C1  UNL     1      26.827  -1.459  53.062  1.00  0.00     0.177 C 
ENDBRANCH  16  17
ENDBRANCH  15  16
ENDBRANCH  13  15
ENDBRANCH  12  13
ENDBRANCH  11  12
ENDBRANCH   1  11
BRANCH  10  20
HETATM   20  O3  UNL     1      23.893   2.994  49.905  1.00  0.00    -0.359 OA
HETATM   21  H20 UNL     1      23.016   3.393  49.846  1.00  0.00     0.213 HD
ENDBRANCH  10  20
BRANCH   9  22
HETATM   22  N5  UNL     1      23.937   2.594  52.988  1.00  0.00    -0.340 N 
HETATM   23  H15 UNL     1      24.671   2.590  53.734  1.00  0.00     0.167 HD
BRANCH  22  24
HETATM   24  C13 UNL     1      23.028   1.512  52.916  1.00  0.00     0.034 A 
HETATM   25  C14 UNL     1      23.498   0.265  53.379  1.00  0.00     0.029 A 
HETATM   26  C15 UNL     1      22.773  -0.880  53.384  1.00  0.00     0.004 A 
HETATM   27  C16 UNL     1      21.472  -0.908  52.915  1.00  0.00     0.019 A 
HETATM   28  C17 UNL     1      21.010   0.310  52.461  1.00  0.00     0.013 A 
HETATM   29 BR1  UNL     1      19.212   0.304  51.790  1.00  0.00    -0.051 Br
HETATM   30  C18 UNL     1      21.736   1.480  52.452  1.00  0.00     0.048 A 
ENDBRANCH  22  24
ENDBRANCH   9  22
TORSDOF 9
ENDMDL
MODEL 3
REMARK VINA RESULT:      -7.8      1.300      1.681
REMARK  9 active torsions:
REMARK  status: ('A' for Active; 'I' for Inactive)
REMARK    1  A    between atoms: C2_3  and  C3_4 
REMARK    2  A    between atoms: C3_4  and  O1_5 
REMARK    3  A    between atoms: O1_5  and  C4_6 
REMARK    4  A    between atoms: C4_6  and  C5_8 
REMARK    5  A    between atoms: C5_8  and  C6_9 
REMARK    6  A    between atoms: C6_9  and  N2_10 
REMARK    7  A    between atoms: C12_18  and  N5_19 
REMARK    8  A    between atoms: N5_19  and  C13_20 
REMARK    9  A    between atoms: C19_27  and  O3_28 
ROOT
HETATM    1  N2  UNL     1      22.741   0.911  52.934  1.00  0.00    -0.347 N 
HETATM    2  C7  UNL     1      21.801   0.263  53.772  1.00  0.00     0.089 C 
HETATM    3  C8  UNL     1      20.559  -0.161  53.484  1.00  0.00     0.019 C 
HETATM    4  C9  UNL     1      20.205   0.147  52.094  1.00  0.00     0.034 C 
HETATM    5  C10 UNL     1      21.018   0.795  51.276  1.00  0.00     0.099 C 
HETATM    6  N3  UNL     1      20.605   1.015  49.925  1.00  0.00    -0.241 NA
HETATM    7  C11 UNL     1      21.394   1.550  49.050  1.00  0.00     0.235 C 
HETATM    8  N4  UNL     1      22.694   1.952  49.456  1.00  0.00    -0.223 NA
HETATM    9  C12 UNL     1      23.148   1.847  50.665  1.00  0.00     0.168 C 
HETATM   10  C19 UNL     1      22.236   1.492  51.743  1.00  0.00     0.242 C 
ENDROOT
BRANCH   1  11
HETATM   11  C6  UNL     1      24.081   0.915  53.411  1.00  0.00     0.136 C 
BRANCH  11  12
HETATM   12  C5  UNL     1      24.723  -0.446  53.556  1.00  0.00     0.131 C 
BRANCH  12  13
HETATM   13  C4  UNL     1      26.049  -0.389  52.850  1.00  0.00     0.260 C 
HETATM   14  O2  UNL     1      26.414   0.199  51.799  1.00  0.00    -0.265 OA
BRANCH  13  15
HETATM   15  O1  UNL     1      27.045  -1.110  53.486  1.00  0.00    -0.316 OA
BRANCH  15  16
HETATM   16  C3  UNL     1      28.362  -0.653  53.657  1.00  0.00     0.224 C 
BRANCH  16  17
HETATM   17  C2  UNL     1      28.577   0.228  54.814  1.00  0.00     0.109 C 
HETATM   18  N1  UNL     1      28.729   1.500  54.837  1.00  0.00    -0.308 NA
HETATM   19  C1  UNL     1      28.714   2.318  53.658  1.00  0.00     0.177 C 
ENDBRANCH  16  17
ENDBRANCH  15  16
ENDBRANCH  13  15
ENDBRANCH  12  13
ENDBRANCH  11  12
ENDBRANCH   1  11
BRANCH  10  20
HETATM   20  O3  UNL     1      21.759   2.793  52.259  1.00  0.00    -0.359 OA
HETATM   21  H20 UNL     1      22.468   3.222  52.752  1.00  0.00     0.213 HD
ENDBRANCH  10  20
BRANCH   9  22
HETATM   22  N5  UNL     1      24.482   2.288  50.844  1.00  0.00    -0.340 N 
HETATM   23  H15 UNL     1      25.104   1.641  51.381  1.00  0.00     0.167 HD
BRANCH  22  24
HETATM   24  C13 UNL     1      25.008   3.518  50.383  1.00  0.00     0.034 A 
HETATM   25  C14 UNL     1      24.233   4.668  50.636  1.00  0.00     0.029 A 
HETATM   26  C15 UNL     1      24.575   5.927  50.267  1.00  0.00     0.004 A 
HETATM   27  C16 UNL     1      25.753   6.181  49.589  1.00  0.00     0.019 A 
HETATM   28  C17 UNL     1      26.514   5.057  49.340  1.00  0.00     0.013 A 
HETATM   29 BR1  UNL     1      28.150   5.372  48.388  1.00  0.00    -0.051 Br
HETATM   30  C18 UNL     1      26.179   3.774  49.710  1.00  0.00     0.048 A 
ENDBRANCH  22  24
ENDBRANCH   9  22
TORSDOF 9
ENDMDL
MODEL 4
REMARK VINA RESULT:      -7.5      3.034      7.202
REMARK  9 active torsions:
REMARK  status: ('A' for Active; 'I' for Inactive)
REMARK    1  A    between atoms: C2_3  and  C3_4 
REMARK    2  A    between atoms: C3_4  and  O1_5 
REMARK    3  A    between atoms: O1_5  and  C4_6 
REMARK    4  A    between atoms: C4_6  and  C5_8 
REMARK    5  A    between atoms: C5_8  and  C6_9 
REMARK    6  A    between atoms: C6_9  and  N2_10 
REMARK    7  A    between atoms: C12_18  and  N5_19 
REMARK    8  A    between atoms: N5_19  and  C13_20 
REMARK    9  A    between atoms: C19_27  and  O3_28 
ROOT
HETATM    1  N2  UNL     1      27.141   1.730  53.139  1.00  0.00    -0.347 N 
HETATM    2  C7  UNL     1      28.322   2.399  53.541  1.00  0.00     0.089 C 
HETATM    3  C8  UNL     1      29.517   1.884  53.877  1.00  0.00     0.019 C 
HETATM    4  C9  UNL     1      29.497   0.419  53.808  1.00  0.00     0.034 C 
HETATM    5  C10 UNL     1      28.412  -0.268  53.490  1.00  0.00     0.099 C 
HETATM    6  N3  UNL     1      28.497  -1.693  53.407  1.00  0.00    -0.241 NA
HETATM    7  C11 UNL     1      27.500  -2.412  53.002  1.00  0.00     0.235 C 
HETATM    8  N4  UNL     1      26.285  -1.765  52.657  1.00  0.00    -0.223 NA
HETATM    9  C12 UNL     1      26.085  -0.488  52.747  1.00  0.00     0.168 C 
HETATM   10  C19 UNL     1      27.067   0.344  53.427  1.00  0.00     0.242 C 
ENDROOT
BRANCH   1  11
HETATM   11  C6  UNL     1      26.161   2.548  52.511  1.00  0.00     0.136 C 
BRANCH  11  12
HETATM   12  C5  UNL     1      26.458   2.935  51.080  1.00  0.00     0.131 C 
BRANCH  12  13
HETATM   13  C4  UNL     1      25.154   3.344  50.452  1.00  0.00     0.260 C 
HETATM   14  O2  UNL     1      24.857   4.292  49.680  1.00  0.00    -0.265 OA
BRANCH  13  15
HETATM   15  O1  UNL     1      24.097   2.514  50.784  1.00  0.00    -0.316 OA
BRANCH  15  16
HETATM   16  C3  UNL     1      22.759   2.934  50.863  1.00  0.00     0.224 C 
BRANCH  16  17
HETATM   17  C2  UNL     1      22.385   3.609  52.114  1.00  0.00     0.109 C 
HETATM   18  N1  UNL     1      22.082   4.840  52.303  1.00  0.00    -0.308 NA
HETATM   19  C1  UNL     1      22.061   5.817  51.253  1.00  0.00     0.177 C 
ENDBRANCH  16  17
ENDBRANCH  15  16
ENDBRANCH  13  15
ENDBRANCH  12  13
ENDBRANCH  11  12
ENDBRANCH   1  11
BRANCH  10  20
HETATM   20  O3  UNL     1      26.599   0.385  54.829  1.00  0.00    -0.359 OA
HETATM   21  H20 UNL     1      25.950   1.090  54.931  1.00  0.00     0.213 HD
ENDBRANCH  10  20
BRANCH   9  22
HETATM   22  N5  UNL     1      24.804  -0.052  52.328  1.00  0.00    -0.340 N 
HETATM   23  H15 UNL     1      24.787   0.531  51.460  1.00  0.00     0.167 HD
BRANCH  22  24
HETATM   24  C13 UNL     1      23.586  -0.321  52.997  1.00  0.00     0.034 A 
HETATM   25  C14 UNL     1      23.688  -0.855  54.297  1.00  0.00     0.029 A 
HETATM   26  C15 UNL     1      22.633  -1.177  55.085  1.00  0.00     0.004 A 
HETATM   27  C16 UNL     1      21.332  -0.998  54.651  1.00  0.00     0.019 A 
HETATM   28  C17 UNL     1      21.230  -0.474  53.379  1.00  0.00     0.013 A 
HETATM   29 BR1  UNL     1      19.438  -0.225  52.739  1.00  0.00    -0.051 Br
HETATM   30  C18 UNL     1      22.293  -0.142  52.570  1.00  0.00     0.048 A 
ENDBRANCH  22  24
ENDBRANCH   9  22
TORSDOF 9
ENDMDL
MODEL 5
REMARK VINA RESULT:      -7.5      2.691      5.272
REMARK  9 active torsions:
REMARK  status: ('A' for Active; 'I' for Inactive)
REMARK    1  A    between atoms: C2_3  and  C3_4 
REMARK    2  A    between atoms: C3_4  and  O1_5 
REMARK    3  A    between atoms: O1_5  and  C4_6 
REMARK    4  A    between atoms: C4_6  and  C5_8 
REMARK    5  A    between atoms: C5_8  and  C6_9 
REMARK    6  A    between atoms: C6_9  and  N2_10 
REMARK    7  A    between atoms: C12_18  and  N5_19 
REMARK    8  A    between atoms: N5_19  and  C13_20 
REMARK    9  A    between atoms: C19_27  and  O3_28 
ROOT
HETATM    1  N2  UNL     1      25.805   3.198  50.925  1.00  0.00    -0.347 N 
HETATM    2  C7  UNL     1      26.775   3.489  49.935  1.00  0.00     0.089 C 
HETATM    3  C8  UNL     1      26.799   4.489  49.039  1.00  0.00     0.019 C 
HETATM    4  C9  UNL     1      25.609   5.338  49.164  1.00  0.00     0.034 C 
HETATM    5  C10 UNL     1      24.642   5.090  50.032  1.00  0.00     0.099 C 
HETATM    6  N3  UNL     1      23.538   5.995  50.112  1.00  0.00    -0.241 NA
HETATM    7  C11 UNL     1      22.614   5.865  51.008  1.00  0.00     0.235 C 
HETATM    8  N4  UNL     1      22.691   4.778  51.917  1.00  0.00    -0.223 NA
HETATM    9  C12 UNL     1      23.618   3.873  51.899  1.00  0.00     0.168 C 
HETATM   10  C19 UNL     1      24.537   3.814  50.771  1.00  0.00     0.242 C 
ENDROOT
BRANCH   1  11
HETATM   11  C6  UNL     1      26.225   2.298  51.943  1.00  0.00     0.136 C 
BRANCH  11  12
HETATM   12  C5  UNL     1      26.579   0.905  51.473  1.00  0.00     0.131 C 
BRANCH  12  13
HETATM   13  C4  UNL     1      26.473  -0.005  52.665  1.00  0.00     0.260 C 
HETATM   14  O2  UNL     1      26.177  -1.224  52.765  1.00  0.00    -0.265 OA
BRANCH  13  15
HETATM   15  O1  UNL     1      26.766   0.620  53.865  1.00  0.00    -0.316 OA
BRANCH  15  16
HETATM   16  C3  UNL     1      27.835   0.259  54.702  1.00  0.00     0.224 C 
BRANCH  16  17
HETATM   17  C2  UNL     1      29.176   0.470  54.137  1.00  0.00     0.109 C 
HETATM   18  N1  UNL     1      29.957  -0.382  53.584  1.00  0.00    -0.308 NA
HETATM   19  C1  UNL     1      29.625  -1.768  53.420  1.00  0.00     0.177 C 
ENDBRANCH  16  17
ENDBRANCH  15  16
ENDBRANCH  13  15
ENDBRANCH  12  13
ENDBRANCH  11  12
ENDBRANCH   1  11
BRANCH  10  20
HETATM   20  O3  UNL     1      23.894   2.876  49.827  1.00  0.00    -0.359 OA
HETATM   21  H20 UNL     1      23.734   2.034  50.269  1.00  0.00     0.213 HD
ENDBRANCH  10  20
BRANCH   9  22
HETATM   22  N5  UNL     1      23.515   2.890  52.913  1.00  0.00    -0.340 N 
HETATM   23  H15 UNL     1      24.134   3.032  53.744  1.00  0.00     0.167 HD
BRANCH  22  24
HETATM   24  C13 UNL     1      22.678   1.750  52.870  1.00  0.00     0.034 A 
HETATM   25  C14 UNL     1      23.188   0.573  53.454  1.00  0.00     0.029 A 
HETATM   26  C15 UNL     1      22.533  -0.613  53.503  1.00  0.00     0.004 A 
HETATM   27  C16 UNL     1      21.268  -0.756  52.962  1.00  0.00     0.019 A 
HETATM   28  C17 UNL     1      20.766   0.394  52.390  1.00  0.00     0.013 A 
HETATM   29 BR1  UNL     1      19.018   0.227  51.616  1.00  0.00    -0.051 Br
HETATM   30  C18 UNL     1      21.421   1.604  52.334  1.00  0.00     0.048 A 
ENDBRANCH  22  24
ENDBRANCH   9  22
TORSDOF 9
ENDMDL
MODEL 6
REMARK VINA RESULT:      -7.4      1.524      1.862
REMARK  9 active torsions:
REMARK  status: ('A' for Active; 'I' for Inactive)
REMARK    1  A    between atoms: C2_3  and  C3_4 
REMARK    2  A    between atoms: C3_4  and  O1_5 
REMARK    3  A    between atoms: O1_5  and  C4_6 
REMARK    4  A    between atoms: C4_6  and  C5_8 
REMARK    5  A    between atoms: C5_8  and  C6_9 
REMARK    6  A    between atoms: C6_9  and  N2_10 
REMARK    7  A    between atoms: C12_18  and  N5_19 
REMARK    8  A    between atoms: N5_19  and  C13_20 
REMARK    9  A    between atoms: C19_27  and  O3_28 
ROOT
HETATM    1  N2  UNL     1      22.466   1.795  51.889  1.00  0.00    -0.347 N 
HETATM    2  C7  UNL     1      21.438   1.007  52.464  1.00  0.00     0.089 C 
HETATM    3  C8  UNL     1      20.399   0.401  51.866  1.00  0.00     0.019 C 
HETATM    4  C9  UNL     1      20.397   0.659  50.422  1.00  0.00     0.034 C 
HETATM    5  C10 UNL     1      21.298   1.427  49.831  1.00  0.00     0.099 C 
HETATM    6  N3  UNL     1      21.243   1.589  48.412  1.00  0.00    -0.241 NA
HETATM    7  C11 UNL     1      22.153   2.243  47.765  1.00  0.00     0.235 C 
HETATM    8  N4  UNL     1      23.218   2.834  48.493  1.00  0.00    -0.223 NA
HETATM    9  C12 UNL     1      23.335   2.793  49.783  1.00  0.00     0.168 C 
HETATM   10  C19 UNL     1      22.225   2.298  50.586  1.00  0.00     0.242 C 
ENDROOT
BRANCH   1  11
HETATM   11  C6  UNL     1      23.608   1.999  52.711  1.00  0.00     0.136 C 
BRANCH  11  12
HETATM   12  C5  UNL     1      24.246   0.743  53.260  1.00  0.00     0.131 C 
BRANCH  12  13
HETATM   13  C4  UNL     1      25.553   0.558  52.538  1.00  0.00     0.260 C 
HETATM   14  O2  UNL     1      26.096   1.208  51.608  1.00  0.00    -0.265 OA
BRANCH  13  15
HETATM   15  O1  UNL     1      26.287  -0.523  52.995  1.00  0.00    -0.316 OA
BRANCH  15  16
HETATM   16  C3  UNL     1      27.660  -0.474  53.292  1.00  0.00     0.224 C 
BRANCH  16  17
HETATM   17  C2  UNL     1      28.004   0.162  54.572  1.00  0.00     0.109 C 
HETATM   18  N1  UNL     1      28.497   1.327  54.782  1.00  0.00    -0.308 NA
HETATM   19  C1  UNL     1      28.813   2.252  53.732  1.00  0.00     0.177 C 
ENDBRANCH  16  17
ENDBRANCH  15  16
ENDBRANCH  13  15
ENDBRANCH  12  13
ENDBRANCH  11  12
ENDBRANCH   1  11
BRANCH  10  20
HETATM   20  O3  UNL     1      21.440   3.509  50.905  1.00  0.00    -0.359 OA
HETATM   21  H20 UNL     1      20.876   3.733  50.155  1.00  0.00     0.213 HD
ENDBRANCH  10  20
BRANCH   9  22
HETATM   22  N5  UNL     1      24.488   3.430  50.300  1.00  0.00    -0.340 N 
HETATM   23  H15 UNL     1      24.776   3.134  51.261  1.00  0.00     0.167 HD
BRANCH  22  24
HETATM   24  C13 UNL     1      25.241   4.429  49.638  1.00  0.00     0.034 A 
HETATM   25  C14 UNL     1      24.536   5.578  49.226  1.00  0.00     0.029 A 
HETATM   26  C15 UNL     1      25.088   6.632  48.577  1.00  0.00     0.004 A 
HETATM   27  C16 UNL     1      26.434   6.656  48.261  1.00  0.00     0.019 A 
HETATM   28  C17 UNL     1      27.127   5.533  48.664  1.00  0.00     0.013 A 
HETATM   29 BR1  UNL     1      28.996   5.526  48.229  1.00  0.00    -0.051 Br
HETATM   30  C18 UNL     1      26.578   4.457  49.324  1.00  0.00     0.048 A 
ENDBRANCH  22  24
ENDBRANCH   9  22
TORSDOF 9
ENDMDL
MODEL 7
REMARK VINA RESULT:      -7.1      3.068      6.842
REMARK  9 active torsions:
REMARK  status: ('A' for Active; 'I' for Inactive)
REMARK    1  A    between atoms: C2_3  and  C3_4 
REMARK    2  A    between atoms: C3_4  and  O1_5 
REMARK    3  A    between atoms: O1_5  and  C4_6 
REMARK    4  A    between atoms: C4_6  and  C5_8 
REMARK    5  A    between atoms: C5_8  and  C6_9 
REMARK    6  A    between atoms: C6_9  and  N2_10 
REMARK    7  A    between atoms: C12_18  and  N5_19 
REMARK    8  A    between atoms: N5_19  and  C13_20 
REMARK    9  A    between atoms: C19_27  and  O3_28 
ROOT
HETATM    1  N2  UNL     1      26.780   1.928  52.325  1.00  0.00    -0.347 N 
HETATM    2  C7  UNL     1      28.087   2.303  52.722  1.00  0.00     0.089 C 
HETATM    3  C8  UNL     1      28.808   1.882  53.775  1.00  0.00     0.019 C 
HETATM    4  C9  UNL     1      28.051   0.915  54.578  1.00  0.00     0.034 C 
HETATM    5  C10 UNL     1      26.809   0.562  54.291  1.00  0.00     0.099 C 
HETATM    6  N3  UNL     1      26.164  -0.418  55.107  1.00  0.00    -0.241 NA
HETATM    7  C11 UNL     1      24.990  -0.879  54.817  1.00  0.00     0.235 C 
HETATM    8  N4  UNL     1      24.320  -0.375  53.673  1.00  0.00    -0.223 NA
HETATM    9  C12 UNL     1      24.790   0.550  52.897  1.00  0.00     0.168 C 
HETATM   10  C19 UNL     1      25.980   1.286  53.303  1.00  0.00     0.242 C 
ENDROOT
BRANCH   1  11
HETATM   11  C6  UNL     1      26.428   2.269  50.989  1.00  0.00     0.136 C 
BRANCH  11  12
HETATM   12  C5  UNL     1      25.790   3.628  50.812  1.00  0.00     0.131 C 
BRANCH  12  13
HETATM   13  C4  UNL     1      26.365   4.228  49.559  1.00  0.00     0.260 C 
HETATM   14  O2  UNL     1      27.449   4.024  48.954  1.00  0.00    -0.265 OA
BRANCH  13  15
HETATM   15  O1  UNL     1      25.538   5.168  48.968  1.00  0.00    -0.316 OA
BRANCH  15  16
HETATM   16  C3  UNL     1      24.188   5.355  49.306  1.00  0.00     0.224 C 
BRANCH  16  17
HETATM   17  C2  UNL     1      23.231   5.149  48.209  1.00  0.00     0.109 C 
HETATM   18  N1  UNL     1      22.637   4.071  47.852  1.00  0.00    -0.308 NA
HETATM   19  C1  UNL     1      22.828   2.810  48.511  1.00  0.00     0.177 C 
ENDBRANCH  16  17
ENDBRANCH  15  16
ENDBRANCH  13  15
ENDBRANCH  12  13
ENDBRANCH  11  12
ENDBRANCH   1  11
BRANCH  10  20
HETATM   20  O3  UNL     1      25.451   2.458  54.031  1.00  0.00    -0.359 OA
HETATM   21  H20 UNL     1      26.169   2.891  54.508  1.00  0.00     0.213 HD
ENDBRANCH  10  20
BRANCH   9  22
HETATM   22  N5  UNL     1      23.964   0.886  51.798  1.00  0.00    -0.340 N 
HETATM   23  H15 UNL     1      24.422   0.841  50.858  1.00  0.00     0.167 HD
BRANCH  22  24
HETATM   24  C13 UNL     1      22.612   1.293  51.881  1.00  0.00     0.034 A 
HETATM   25  C14 UNL     1      22.380   2.640  52.227  1.00  0.00     0.029 A 
HETATM   26  C15 UNL     1      21.155   3.205  52.357  1.00  0.00     0.004 A 
HETATM   27  C16 UNL     1      20.001   2.471  52.152  1.00  0.00     0.019 A 
HETATM   28  C17 UNL     1      20.224   1.153  51.813  1.00  0.00     0.013 A 
HETATM   29 BR1  UNL     1      18.643   0.101  51.534  1.00  0.00    -0.051 Br
HETATM   30  C18 UNL     1      21.463   0.568  51.677  1.00  0.00     0.048 A 
ENDBRANCH  22  24
ENDBRANCH   9  22
TORSDOF 9
ENDMDL
MODEL 8
REMARK VINA RESULT:      -7.0      1.932      2.511
REMARK  9 active torsions:
REMARK  status: ('A' for Active; 'I' for Inactive)
REMARK    1  A    between atoms: C2_3  and  C3_4 
REMARK    2  A    between atoms: C3_4  and  O1_5 
REMARK    3  A    between atoms: O1_5  and  C4_6 
REMARK    4  A    between atoms: C4_6  and  C5_8 
REMARK    5  A    between atoms: C5_8  and  C6_9 
REMARK    6  A    between atoms: C6_9  and  N2_10 
REMARK    7  A    between atoms: C12_18  and  N5_19 
REMARK    8  A    between atoms: N5_19  and  C13_20 
REMARK    9  A    between atoms: C19_27  and  O3_28 
ROOT
HETATM    1  N2  UNL     1      22.603   0.294  52.808  1.00  0.00    -0.347 N 
HETATM    2  C7  UNL     1      22.380  -0.360  54.044  1.00  0.00     0.089 C 
HETATM    3  C8  UNL     1      21.237  -0.852  54.550  1.00  0.00     0.019 C 
HETATM    4  C9  UNL     1      20.113  -0.620  53.636  1.00  0.00     0.034 C 
HETATM    5  C10 UNL     1      20.245   0.031  52.491  1.00  0.00     0.099 C 
HETATM    6  N3  UNL     1      19.102   0.175  51.644  1.00  0.00    -0.241 NA
HETATM    7  C11 UNL     1      19.189   0.708  50.469  1.00  0.00     0.235 C 
HETATM    8  N4  UNL     1      20.450   1.185  50.025  1.00  0.00    -0.223 NA
HETATM    9  C12 UNL     1      21.535   1.152  50.732  1.00  0.00     0.168 C 
HETATM   10  C19 UNL     1      21.458   0.801  52.143  1.00  0.00     0.242 C 
ENDROOT
BRANCH   1  11
HETATM   11  C6  UNL     1      23.963   0.379  52.400  1.00  0.00     0.136 C 
BRANCH  11  12
HETATM   12  C5  UNL     1      24.927   0.875  53.454  1.00  0.00     0.131 C 
BRANCH  12  13
HETATM   13  C4  UNL     1      25.859  -0.261  53.772  1.00  0.00     0.260 C 
HETATM   14  O2  UNL     1      25.794  -1.185  54.624  1.00  0.00    -0.265 OA
BRANCH  13  15
HETATM   15  O1  UNL     1      26.986  -0.293  52.969  1.00  0.00    -0.316 OA
BRANCH  15  16
HETATM   16  C3  UNL     1      28.293  -0.477  53.450  1.00  0.00     0.224 C 
BRANCH  16  17
HETATM   17  C2  UNL     1      28.640   0.308  54.644  1.00  0.00     0.109 C 
HETATM   18  N1  UNL     1      28.831   1.571  54.746  1.00  0.00    -0.308 NA
HETATM   19  C1  UNL     1      28.732   2.477  53.638  1.00  0.00     0.177 C 
ENDBRANCH  16  17
ENDBRANCH  15  16
ENDBRANCH  13  15
ENDBRANCH  12  13
ENDBRANCH  11  12
ENDBRANCH   1  11
BRANCH  10  20
HETATM   20  O3  UNL     1      21.299   2.099  52.832  1.00  0.00    -0.359 OA
HETATM   21  H20 UNL     1      20.388   2.192  53.135  1.00  0.00     0.213 HD
ENDBRANCH  10  20
BRANCH   9  22
HETATM   22  N5  UNL     1      22.687   1.661  50.084  1.00  0.00    -0.340 N 
HETATM   23  H15 UNL     1      23.443   0.963  49.894  1.00  0.00     0.167 HD
BRANCH  22  24
HETATM   24  C13 UNL     1      22.891   3.010  49.712  1.00  0.00     0.034 A 
HETATM   25  C14 UNL     1      22.646   3.334  48.361  1.00  0.00     0.029 A 
HETATM   26  C15 UNL     1      22.791   4.570  47.825  1.00  0.00     0.004 A 
HETATM   27  C16 UNL     1      23.206   5.642  48.593  1.00  0.00     0.019 A 
HETATM   28  C17 UNL     1      23.447   5.328  49.914  1.00  0.00     0.013 A 
HETATM   29 BR1  UNL     1      24.039   6.791  51.007  1.00  0.00    -0.051 Br
HETATM   30  C18 UNL     1      23.302   4.078  50.472  1.00  0.00     0.048 A 
ENDBRANCH  22  24
ENDBRANCH   9  22
TORSDOF 9
ENDMDL
MODEL 9
REMARK VINA RESULT:      -6.9      3.312      5.831
REMARK  9 active torsions:
REMARK  status: ('A' for Active; 'I' for Inactive)
REMARK    1  A    between atoms: C2_3  and  C3_4 
REMARK    2  A    between atoms: C3_4  and  O1_5 
REMARK    3  A    between atoms: O1_5  and  C4_6 
REMARK    4  A    between atoms: C4_6  and  C5_8 
REMARK    5  A    between atoms: C5_8  and  C6_9 
REMARK    6  A    between atoms: C6_9  and  N2_10 
REMARK    7  A    between atoms: C12_18  and  N5_19 
REMARK    8  A    between atoms: N5_19  and  C13_20 
REMARK    9  A    between atoms: C19_27  and  O3_28 
ROOT
HETATM    1  N2  UNL     1      23.551   3.939  51.203  1.00  0.00    -0.347 N 
HETATM    2  C7  UNL     1      24.207   5.194  51.239  1.00  0.00     0.089 C 
HETATM    3  C8  UNL     1      23.693   6.424  51.076  1.00  0.00     0.019 C 
HETATM    4  C9  UNL     1      22.251   6.363  50.811  1.00  0.00     0.034 C 
HETATM    5  C10 UNL     1      21.590   5.221  50.713  1.00  0.00     0.099 C 
HETATM    6  N3  UNL     1      20.178   5.259  50.494  1.00  0.00    -0.241 NA
HETATM    7  C11 UNL     1      19.460   4.182  50.492  1.00  0.00     0.235 C 
HETATM    8  N4  UNL     1      20.102   2.932  50.687  1.00  0.00    -0.223 NA
HETATM    9  C12 UNL     1      21.380   2.781  50.842  1.00  0.00     0.168 C 
HETATM   10  C19 UNL     1      22.267   3.911  50.604  1.00  0.00     0.242 C 
ENDROOT
BRANCH   1  11
HETATM   11  C6  UNL     1      24.284   2.853  51.758  1.00  0.00     0.136 C 
BRANCH  11  12
HETATM   12  C5  UNL     1      24.530   2.930  53.247  1.00  0.00     0.131 C 
BRANCH  12  13
HETATM   13  C4  UNL     1      25.725   2.068  53.544  1.00  0.00     0.260 C 
HETATM   14  O2  UNL     1      26.752   2.270  54.242  1.00  0.00    -0.265 OA
BRANCH  13  15
HETATM   15  O1  UNL     1      25.670   0.822  52.942  1.00  0.00    -0.316 OA
BRANCH  15  16
HETATM   16  C3  UNL     1      26.747   0.226  52.264  1.00  0.00     0.224 C 
BRANCH  16  17
HETATM   17  C2  UNL     1      27.189  -1.069  52.803  1.00  0.00     0.109 C 
HETATM   18  N1  UNL     1      28.197  -1.324  53.552  1.00  0.00    -0.308 NA
HETATM   19  C1  UNL     1      29.114  -0.320  54.011  1.00  0.00     0.177 C 
ENDBRANCH  16  17
ENDBRANCH  15  16
ENDBRANCH  13  15
ENDBRANCH  12  13
ENDBRANCH  11  12
ENDBRANCH   1  11
BRANCH  10  20
HETATM   20  O3  UNL     1      22.636   3.788  49.178  1.00  0.00    -0.359 OA
HETATM   21  H20 UNL     1      22.767   4.667  48.803  1.00  0.00     0.213 HD
ENDBRANCH  10  20
BRANCH   9  22
HETATM   22  N5  UNL     1      21.804   1.446  51.045  1.00  0.00    -0.340 N 
HETATM   23  H15 UNL     1      22.551   1.105  50.396  1.00  0.00     0.167 HD
BRANCH  22  24
HETATM   24  C13 UNL     1      21.287   0.559  52.019  1.00  0.00     0.034 A 
HETATM   25  C14 UNL     1      22.197   0.088  52.987  1.00  0.00     0.029 A 
HETATM   26  C15 UNL     1      21.884  -0.768  53.990  1.00  0.00     0.004 A 
HETATM   27  C16 UNL     1      20.599  -1.258  54.141  1.00  0.00     0.019 A 
HETATM   28  C17 UNL     1      19.707  -0.799  53.195  1.00  0.00     0.013 A 
HETATM   29 BR1  UNL     1      17.917  -1.471  53.365  1.00  0.00    -0.051 Br
HETATM   30  C18 UNL     1      20.012   0.070  52.172  1.00  0.00     0.048 A 
ENDBRANCH  22  24
ENDBRANCH   9  22
TORSDOF 9
ENDMDL
