MODEL 1
REMARK VINA RESULT:      -5.8      0.000      0.000
REMARK  7 active torsions:
REMARK  status: ('A' for Active; 'I' for Inactive)
REMARK    1  A    between atoms: C2_2  and  C3_3 
REMARK    2  A    between atoms: C4_4  and  N1_5 
REMARK    3  A    between atoms: N1_5  and  C5_6 
REMARK    4  A    between atoms: C9_11  and  N2_12 
REMARK    5  A    between atoms: N2_12  and  C11_14 
REMARK    6  A    between atoms: C11_14  and  C12_15 
REMARK    7  A    between atoms: C14_18  and  O2_19 
ROOT
HETATM    1  C12 UNL     1      27.730   0.416  54.318  1.00  0.00     0.154 C 
HETATM    2  C13 UNL     1      28.326   1.616  53.801  1.00  0.00     0.060 C 
HETATM    3  N3  UNL     1      28.827   2.582  53.392  1.00  0.00    -0.197 NA
ENDROOT
BRANCH   1   4
HETATM    4  C11 UNL     1      26.302   0.529  54.765  1.00  0.00     0.286 C 
BRANCH   4   5
HETATM    5  N2  UNL     1      25.430  -0.220  53.929  1.00  0.00     0.092 N 
HETATM    6  C10 UNL     1      26.102  -1.164  53.074  1.00  0.00     0.310 C 
BRANCH   5   7
HETATM    7  C9  UNL     1      24.578   0.558  53.077  1.00  0.00     0.258 C 
HETATM    8  C8  UNL     1      24.822   2.054  53.170  1.00  0.00     0.065 C 
HETATM    9  C7  UNL     1      23.758   2.816  52.412  1.00  0.00     0.173 C 
HETATM   10  O1  UNL     1      22.478   2.375  52.743  1.00  0.00    -0.358 OA
HETATM   11  C5  UNL     1      22.338   1.113  52.188  1.00  0.00     0.158 C 
HETATM   12  C6  UNL     1      20.888   0.664  52.126  1.00  0.00     0.074 C 
HETATM   13  C14 UNL     1      23.154   0.154  52.996  1.00  0.00     0.209 C 
BRANCH  11  14
HETATM   14  N1  UNL     1      22.767   1.204  50.797  1.00  0.00    -0.366 N 
HETATM   15  H6  UNL     1      23.788   1.300  50.608  1.00  0.00     0.162 HD
BRANCH  14  16
HETATM   16  C4  UNL     1      21.764   1.159  49.804  1.00  0.00     0.086 C 
HETATM   17  C3  UNL     1      21.262   1.487  48.635  1.00  0.00     0.016 C 
BRANCH  17  18
HETATM   18  C2  UNL     1      21.879   2.350  47.644  1.00  0.00    -0.009 C 
HETATM   19  C1  UNL     1      22.607   3.393  47.980  1.00  0.00     0.011 C 
ENDBRANCH  17  18
ENDBRANCH  14  16
ENDBRANCH  11  14
BRANCH  13  20
HETATM   20  O2  UNL     1      22.504  -0.059  54.191  1.00  0.00    -0.384 OA
HETATM   21  C15 UNL     1      22.296  -1.428  54.440  1.00  0.00     0.202 C 
ENDBRANCH  13  20
ENDBRANCH   5   7
ENDBRANCH   4   5
ENDBRANCH   1   4
TORSDOF 7
ENDMDL
MODEL 2
REMARK VINA RESULT:      -5.8      3.219      5.123
REMARK  7 active torsions:
REMARK  status: ('A' for Active; 'I' for Inactive)
REMARK    1  A    between atoms: C2_2  and  C3_3 
REMARK    2  A    between atoms: C4_4  and  N1_5 
REMARK    3  A    between atoms: N1_5  and  C5_6 
REMARK    4  A    between atoms: C9_11  and  N2_12 
REMARK    5  A    between atoms: N2_12  and  C11_14 
REMARK    6  A    between atoms: C11_14  and  C12_15 
REMARK    7  A    between atoms: C14_18  and  O2_19 
ROOT
HETATM    1  C12 UNL     1      23.357  -0.367  53.673  1.00  0.00     0.154 C 
HETATM    2  C13 UNL     1      22.305  -1.032  54.390  1.00  0.00     0.060 C 
HETATM    3  N3  UNL     1      21.463  -1.588  54.968  1.00  0.00    -0.197 NA
ENDROOT
BRANCH   1   4
HETATM    4  C11 UNL     1      22.935   0.769  52.786  1.00  0.00     0.286 C 
BRANCH   4   5
HETATM    5  N2  UNL     1      23.976   1.155  51.899  1.00  0.00     0.092 N 
HETATM    6  C10 UNL     1      25.275   0.648  52.259  1.00  0.00     0.310 C 
BRANCH   5   7
HETATM    7  C9  UNL     1      24.133   2.569  51.716  1.00  0.00     0.258 C 
HETATM    8  C8  UNL     1      23.712   3.392  52.921  1.00  0.00     0.065 C 
HETATM    9  C7  UNL     1      23.706   4.866  52.583  1.00  0.00     0.173 C 
HETATM   10  O1  UNL     1      23.025   5.117  51.392  1.00  0.00    -0.358 OA
HETATM   11  C5  UNL     1      23.819   4.621  50.371  1.00  0.00     0.158 C 
HETATM   12  C6  UNL     1      23.411   5.154  49.008  1.00  0.00     0.074 C 
HETATM   13  C14 UNL     1      23.738   3.127  50.401  1.00  0.00     0.209 C 
BRANCH  11  14
HETATM   14  N1  UNL     1      25.169   5.128  50.589  1.00  0.00    -0.366 N 
HETATM   15  H6  UNL     1      25.327   5.758  51.403  1.00  0.00     0.162 HD
BRANCH  14  16
HETATM   16  C4  UNL     1      26.167   4.729  49.672  1.00  0.00     0.086 C 
HETATM   17  C3  UNL     1      27.104   4.976  48.785  1.00  0.00     0.016 C 
BRANCH  17  18
HETATM   18  C2  UNL     1      27.533   6.285  48.327  1.00  0.00    -0.009 C 
HETATM   19  C1  UNL     1      28.757   6.511  47.901  1.00  0.00     0.011 C 
ENDBRANCH  17  18
ENDBRANCH  14  16
ENDBRANCH  11  14
BRANCH  13  20
HETATM   20  O2  UNL     1      22.503   2.756  49.918  1.00  0.00    -0.384 OA
HETATM   21  C15 UNL     1      22.604   2.020  48.724  1.00  0.00     0.202 C 
ENDBRANCH  13  20
ENDBRANCH   5   7
ENDBRANCH   4   5
ENDBRANCH   1   4
TORSDOF 7
ENDMDL
MODEL 3
REMARK VINA RESULT:      -5.5      2.975      6.046
REMARK  7 active torsions:
REMARK  status: ('A' for Active; 'I' for Inactive)
REMARK    1  A    between atoms: C2_2  and  C3_3 
REMARK    2  A    between atoms: C4_4  and  N1_5 
REMARK    3  A    between atoms: N1_5  and  C5_6 
REMARK    4  A    between atoms: C9_11  and  N2_12 
REMARK    5  A    between atoms: N2_12  and  C11_14 
REMARK    6  A    between atoms: C11_14  and  C12_15 
REMARK    7  A    between atoms: C14_18  and  O2_19 
ROOT
HETATM    1  C12 UNL     1      25.474   6.216  49.478  1.00  0.00     0.154 C 
HETATM    2  C13 UNL     1      26.670   6.647  48.809  1.00  0.00     0.060 C 
HETATM    3  N3  UNL     1      27.629   7.014  48.263  1.00  0.00    -0.197 NA
ENDROOT
BRANCH   1   4
HETATM    4  C11 UNL     1      25.130   4.761  49.341  1.00  0.00     0.286 C 
BRANCH   4   5
HETATM    5  N2  UNL     1      24.375   4.296  50.452  1.00  0.00     0.092 N 
HETATM    6  C10 UNL     1      23.937   5.337  51.344  1.00  0.00     0.310 C 
BRANCH   5   7
HETATM    7  C9  UNL     1      25.027   3.314  51.268  1.00  0.00     0.258 C 
HETATM    8  C8  UNL     1      26.377   2.871  50.732  1.00  0.00     0.065 C 
HETATM    9  C7  UNL     1      26.904   1.694  51.523  1.00  0.00     0.173 C 
HETATM   10  O1  UNL     1      25.938   0.700  51.669  1.00  0.00    -0.358 OA
HETATM   11  C5  UNL     1      24.989   1.197  52.548  1.00  0.00     0.158 C 
HETATM   12  C6  UNL     1      24.089   0.108  53.106  1.00  0.00     0.074 C 
HETATM   13  C14 UNL     1      24.182   2.231  51.826  1.00  0.00     0.209 C 
BRANCH  11  14
HETATM   14  N1  UNL     1      25.705   1.728  53.702  1.00  0.00    -0.366 N 
HETATM   15  H6  UNL     1      25.734   2.763  53.823  1.00  0.00     0.162 HD
BRANCH  14  16
HETATM   16  C4  UNL     1      26.311   0.796  54.573  1.00  0.00     0.086 C 
HETATM   17  C3  UNL     1      27.337   0.099  55.007  1.00  0.00     0.016 C 
BRANCH  17  18
HETATM   18  C2  UNL     1      28.684   0.121  54.466  1.00  0.00    -0.009 C 
HETATM   19  C1  UNL     1      29.049  -0.652  53.466  1.00  0.00     0.011 C 
ENDBRANCH  17  18
ENDBRANCH  14  16
ENDBRANCH  11  14
BRANCH  13  20
HETATM   20  O2  UNL     1      23.347   1.583  50.944  1.00  0.00    -0.384 OA
HETATM   21  C15 UNL     1      22.006   1.978  51.102  1.00  0.00     0.202 C 
ENDBRANCH  13  20
ENDBRANCH   5   7
ENDBRANCH   4   5
ENDBRANCH   1   4
TORSDOF 7
ENDMDL
MODEL 4
REMARK VINA RESULT:      -5.5      2.293      3.572
REMARK  7 active torsions:
REMARK  status: ('A' for Active; 'I' for Inactive)
REMARK    1  A    between atoms: C2_2  and  C3_3 
REMARK    2  A    between atoms: C4_4  and  N1_5 
REMARK    3  A    between atoms: N1_5  and  C5_6 
REMARK    4  A    between atoms: C9_11  and  N2_12 
REMARK    5  A    between atoms: N2_12  and  C11_14 
REMARK    6  A    between atoms: C11_14  and  C12_15 
REMARK    7  A    between atoms: C14_18  and  O2_19 
ROOT
HETATM    1  C12 UNL     1      26.394   0.934  54.563  1.00  0.00     0.154 C 
HETATM    2  C13 UNL     1      27.602   0.157  54.563  1.00  0.00     0.060 C 
HETATM    3  N3  UNL     1      28.579  -0.473  54.584  1.00  0.00    -0.197 NA
ENDROOT
BRANCH   1   4
HETATM    4  C11 UNL     1      26.334   2.060  53.571  1.00  0.00     0.286 C 
BRANCH   4   5
HETATM    5  N2  UNL     1      25.051   2.159  52.969  1.00  0.00     0.092 N 
HETATM    6  C10 UNL     1      24.266   0.954  53.052  1.00  0.00     0.310 C 
BRANCH   5   7
HETATM    7  C9  UNL     1      25.050   2.546  51.588  1.00  0.00     0.258 C 
HETATM    8  C8  UNL     1      26.438   2.742  51.006  1.00  0.00     0.065 C 
HETATM    9  C7  UNL     1      26.356   3.347  49.622  1.00  0.00     0.173 C 
HETATM   10  O1  UNL     1      25.511   4.455  49.597  1.00  0.00    -0.358 OA
HETATM   11  C5  UNL     1      24.221   3.973  49.745  1.00  0.00     0.158 C 
HETATM   12  C6  UNL     1      23.170   4.998  49.353  1.00  0.00     0.074 C 
HETATM   13  C14 UNL     1      24.042   3.550  51.169  1.00  0.00     0.209 C 
BRANCH  11  14
HETATM   14  N1  UNL     1      24.058   2.878  48.795  1.00  0.00    -0.366 N 
HETATM   15  H6  UNL     1      24.901   2.318  48.548  1.00  0.00     0.162 HD
BRANCH  14  16
HETATM   16  C4  UNL     1      22.763   2.660  48.274  1.00  0.00     0.086 C 
HETATM   17  C3  UNL     1      21.597   2.055  48.259  1.00  0.00     0.016 C 
BRANCH  17  18
HETATM   18  C2  UNL     1      21.156   1.011  49.166  1.00  0.00    -0.009 C 
HETATM   19  C1  UNL     1      21.656   0.878  50.376  1.00  0.00     0.011 C 
ENDBRANCH  17  18
ENDBRANCH  14  16
ENDBRANCH  11  14
BRANCH  13  20
HETATM   20  O2  UNL     1      23.942   4.685  51.943  1.00  0.00    -0.384 OA
HETATM   21  C15 UNL     1      22.727   4.734  52.650  1.00  0.00     0.202 C 
ENDBRANCH  13  20
ENDBRANCH   5   7
ENDBRANCH   4   5
ENDBRANCH   1   4
TORSDOF 7
ENDMDL
MODEL 5
REMARK VINA RESULT:      -5.4      2.395      6.275
REMARK  7 active torsions:
REMARK  status: ('A' for Active; 'I' for Inactive)
REMARK    1  A    between atoms: C2_2  and  C3_3 
REMARK    2  A    between atoms: C4_4  and  N1_5 
REMARK    3  A    between atoms: N1_5  and  C5_6 
REMARK    4  A    between atoms: C9_11  and  N2_12 
REMARK    5  A    between atoms: N2_12  and  C11_14 
REMARK    6  A    between atoms: C11_14  and  C12_15 
REMARK    7  A    between atoms: C14_18  and  O2_19 
ROOT
HETATM    1  C12 UNL     1      22.582   5.080  48.380  1.00  0.00     0.154 C 
HETATM    2  C13 UNL     1      22.489   3.728  47.903  1.00  0.00     0.060 C 
HETATM    3  N3  UNL     1      22.393   2.634  47.522  1.00  0.00    -0.197 NA
ENDROOT
BRANCH   1   4
HETATM    4  C11 UNL     1      23.872   5.454  49.050  1.00  0.00     0.286 C 
BRANCH   4   5
HETATM    5  N2  UNL     1      23.764   5.388  50.466  1.00  0.00     0.092 N 
HETATM    6  C10 UNL     1      24.122   6.608  51.142  1.00  0.00     0.310 C 
BRANCH   5   7
HETATM    7  C9  UNL     1      24.524   4.344  51.090  1.00  0.00     0.258 C 
HETATM    8  C8  UNL     1      25.669   3.827  50.237  1.00  0.00     0.065 C 
HETATM    9  C7  UNL     1      26.289   2.598  50.865  1.00  0.00     0.173 C 
HETATM   10  O1  UNL     1      25.320   1.666  51.232  1.00  0.00    -0.358 OA
HETATM   11  C5  UNL     1      24.649   2.202  52.320  1.00  0.00     0.158 C 
HETATM   12  C6  UNL     1      23.837   1.160  53.071  1.00  0.00     0.074 C 
HETATM   13  C14 UNL     1      23.766   3.305  51.827  1.00  0.00     0.209 C 
BRANCH  11  14
HETATM   14  N1  UNL     1      25.658   2.654  53.270  1.00  0.00    -0.366 N 
HETATM   15  H6  UNL     1      25.861   3.675  53.317  1.00  0.00     0.162 HD
BRANCH  14  16
HETATM   16  C4  UNL     1      26.294   1.669  54.059  1.00  0.00     0.086 C 
HETATM   17  C3  UNL     1      26.998   0.570  54.211  1.00  0.00     0.016 C 
BRANCH  17  18
HETATM   18  C2  UNL     1      27.528  -0.267  53.151  1.00  0.00    -0.009 C 
HETATM   19  C1  UNL     1      26.874  -1.312  52.691  1.00  0.00     0.011 C 
ENDBRANCH  17  18
ENDBRANCH  14  16
ENDBRANCH  11  14
BRANCH  13  20
HETATM   20  O2  UNL     1      22.699   2.736  51.168  1.00  0.00    -0.384 OA
HETATM   21  C15 UNL     1      21.468   3.238  51.630  1.00  0.00     0.202 C 
ENDBRANCH  13  20
ENDBRANCH   5   7
ENDBRANCH   4   5
ENDBRANCH   1   4
TORSDOF 7
ENDMDL
MODEL 6
REMARK VINA RESULT:      -5.3      2.948      5.467
REMARK  7 active torsions:
REMARK  status: ('A' for Active; 'I' for Inactive)
REMARK    1  A    between atoms: C2_2  and  C3_3 
REMARK    2  A    between atoms: C4_4  and  N1_5 
REMARK    3  A    between atoms: N1_5  and  C5_6 
REMARK    4  A    between atoms: C9_11  and  N2_12 
REMARK    5  A    between atoms: N2_12  and  C11_14 
REMARK    6  A    between atoms: C11_14  and  C12_15 
REMARK    7  A    between atoms: C14_18  and  O2_19 
ROOT
HETATM    1  C12 UNL     1      26.131   6.377  48.558  1.00  0.00     0.154 C 
HETATM    2  C13 UNL     1      27.284   5.519  48.573  1.00  0.00     0.060 C 
HETATM    3  N3  UNL     1      28.216   4.824  48.564  1.00  0.00    -0.197 NA
ENDROOT
BRANCH   1   4
HETATM    4  C11 UNL     1      25.110   6.127  49.630  1.00  0.00     0.286 C 
BRANCH   4   5
HETATM    5  N2  UNL     1      24.536   4.833  49.515  1.00  0.00     0.092 N 
HETATM    6  C10 UNL     1      23.529   4.724  48.492  1.00  0.00     0.310 C 
BRANCH   5   7
HETATM    7  C9  UNL     1      23.947   4.314  50.715  1.00  0.00     0.258 C 
HETATM    8  C8  UNL     1      23.551   5.386  51.716  1.00  0.00     0.065 C 
HETATM    9  C7  UNL     1      23.136   4.762  53.029  1.00  0.00     0.173 C 
HETATM   10  O1  UNL     1      24.065   3.819  53.466  1.00  0.00    -0.358 OA
HETATM   11  C5  UNL     1      23.954   2.730  52.616  1.00  0.00     0.158 C 
HETATM   12  C6  UNL     1      24.611   1.483  53.182  1.00  0.00     0.074 C 
HETATM   13  C14 UNL     1      24.566   3.101  51.301  1.00  0.00     0.209 C 
BRANCH  11  14
HETATM   14  N1  UNL     1      22.536   2.402  52.519  1.00  0.00    -0.366 N 
HETATM   15  H6  UNL     1      21.847   3.144  52.765  1.00  0.00     0.162 HD
BRANCH  14  16
HETATM   16  C4  UNL     1      22.200   1.096  52.099  1.00  0.00     0.086 C 
HETATM   17  C3  UNL     1      21.670  -0.091  52.288  1.00  0.00     0.016 C 
BRANCH  17  18
HETATM   18  C2  UNL     1      21.014  -0.560  53.494  1.00  0.00    -0.009 C 
HETATM   19  C1  UNL     1      21.586  -0.485  54.676  1.00  0.00     0.011 C 
ENDBRANCH  17  18
ENDBRANCH  14  16
ENDBRANCH  11  14
BRANCH  13  20
HETATM   20  O2  UNL     1      25.934   3.119  51.457  1.00  0.00    -0.384 OA
HETATM   21  C15 UNL     1      26.584   2.331  50.488  1.00  0.00     0.202 C 
ENDBRANCH  13  20
ENDBRANCH   5   7
ENDBRANCH   4   5
ENDBRANCH   1   4
TORSDOF 7
ENDMDL
MODEL 7
REMARK VINA RESULT:      -5.3      3.628      5.416
REMARK  7 active torsions:
REMARK  status: ('A' for Active; 'I' for Inactive)
REMARK    1  A    between atoms: C2_2  and  C3_3 
REMARK    2  A    between atoms: C4_4  and  N1_5 
REMARK    3  A    between atoms: N1_5  and  C5_6 
REMARK    4  A    between atoms: C9_11  and  N2_12 
REMARK    5  A    between atoms: N2_12  and  C11_14 
REMARK    6  A    between atoms: C11_14  and  C12_15 
REMARK    7  A    between atoms: C14_18  and  O2_19 
ROOT
HETATM    1  C12 UNL     1      26.314   7.415  49.460  1.00  0.00     0.154 C 
HETATM    2  C13 UNL     1      26.877   8.635  49.969  1.00  0.00     0.060 C 
HETATM    3  N3  UNL     1      27.351   9.614  50.380  1.00  0.00    -0.197 NA
ENDROOT
BRANCH   1   4
HETATM    4  C11 UNL     1      25.007   6.990  50.065  1.00  0.00     0.286 C 
BRANCH   4   5
HETATM    5  N2  UNL     1      24.588   5.726  49.568  1.00  0.00     0.092 N 
HETATM    6  C10 UNL     1      23.700   5.803  48.438  1.00  0.00     0.310 C 
BRANCH   5   7
HETATM    7  C9  UNL     1      23.947   4.872  50.526  1.00  0.00     0.258 C 
HETATM    8  C8  UNL     1      23.592   5.571  51.827  1.00  0.00     0.065 C 
HETATM    9  C7  UNL     1      23.116   4.570  52.856  1.00  0.00     0.173 C 
HETATM   10  O1  UNL     1      23.982   3.482  52.953  1.00  0.00    -0.358 OA
HETATM   11  C5  UNL     1      23.827   2.748  51.788  1.00  0.00     0.158 C 
HETATM   12  C6  UNL     1      24.403   1.347  51.904  1.00  0.00     0.074 C 
HETATM   13  C14 UNL     1      24.485   3.499  50.673  1.00  0.00     0.209 C 
BRANCH  11  14
HETATM   14  N1  UNL     1      22.396   2.556  51.586  1.00  0.00    -0.366 N 
HETATM   15  H6  UNL     1      21.745   3.226  52.047  1.00  0.00     0.162 HD
BRANCH  14  16
HETATM   16  C4  UNL     1      21.995   1.467  50.780  1.00  0.00     0.086 C 
HETATM   17  C3  UNL     1      21.629   0.933  49.637  1.00  0.00     0.016 C 
BRANCH  17  18
HETATM   18  C2  UNL     1      21.482   1.626  48.370  1.00  0.00    -0.009 C 
HETATM   19  C1  UNL     1      22.504   2.171  47.747  1.00  0.00     0.011 C 
ENDBRANCH  17  18
ENDBRANCH  14  16
ENDBRANCH  11  14
BRANCH  13  20
HETATM   20  O2  UNL     1      25.849   3.383  50.826  1.00  0.00    -0.384 OA
HETATM   21  C15 UNL     1      26.497   3.146  49.599  1.00  0.00     0.202 C 
ENDBRANCH  13  20
ENDBRANCH   5   7
ENDBRANCH   4   5
ENDBRANCH   1   4
TORSDOF 7
ENDMDL
MODEL 8
REMARK VINA RESULT:      -5.2      3.129      6.778
REMARK  7 active torsions:
REMARK  status: ('A' for Active; 'I' for Inactive)
REMARK    1  A    between atoms: C2_2  and  C3_3 
REMARK    2  A    between atoms: C4_4  and  N1_5 
REMARK    3  A    between atoms: N1_5  and  C5_6 
REMARK    4  A    between atoms: C9_11  and  N2_12 
REMARK    5  A    between atoms: N2_12  and  C11_14 
REMARK    6  A    between atoms: C11_14  and  C12_15 
REMARK    7  A    between atoms: C14_18  and  O2_19 
ROOT
HETATM    1  C12 UNL     1      18.625   3.142  50.921  1.00  0.00     0.154 C 
HETATM    2  C13 UNL     1      17.489   3.649  51.639  1.00  0.00     0.060 C 
HETATM    3  N3  UNL     1      16.557   4.057  52.201  1.00  0.00    -0.197 NA
ENDROOT
BRANCH   1   4
HETATM    4  C11 UNL     1      19.949   3.765  51.258  1.00  0.00     0.286 C 
BRANCH   4   5
HETATM    5  N2  UNL     1      21.024   2.863  51.035  1.00  0.00     0.092 N 
HETATM    6  C10 UNL     1      20.919   1.628  51.768  1.00  0.00     0.310 C 
BRANCH   5   7
HETATM    7  C9  UNL     1      22.330   3.385  51.311  1.00  0.00     0.258 C 
HETATM    8  C8  UNL     1      22.315   4.729  52.017  1.00  0.00     0.065 C 
HETATM    9  C7  UNL     1      23.710   5.311  52.086  1.00  0.00     0.173 C 
HETATM   10  O1  UNL     1      24.344   5.270  50.846  1.00  0.00    -0.358 OA
HETATM   11  C5  UNL     1      24.632   3.938  50.593  1.00  0.00     0.158 C 
HETATM   12  C6  UNL     1      25.654   3.767  49.482  1.00  0.00     0.074 C 
HETATM   13  C14 UNL     1      23.353   3.243  50.247  1.00  0.00     0.209 C 
BRANCH  11  14
HETATM   14  N1  UNL     1      25.275   3.401  51.786  1.00  0.00    -0.366 N 
HETATM   15  H6  UNL     1      24.991   3.792  52.710  1.00  0.00     0.162 HD
BRANCH  14  16
HETATM   16  C4  UNL     1      26.242   2.388  51.602  1.00  0.00     0.086 C 
HETATM   17  C3  UNL     1      26.687   1.160  51.739  1.00  0.00     0.016 C 
BRANCH  17  18
HETATM   18  C2  UNL     1      26.001   0.063  52.395  1.00  0.00    -0.009 C 
HETATM   19  C1  UNL     1      26.595  -1.084  52.649  1.00  0.00     0.011 C 
ENDBRANCH  17  18
ENDBRANCH  14  16
ENDBRANCH  11  14
BRANCH  13  20
HETATM   20  O2  UNL     1      22.984   3.632  48.979  1.00  0.00    -0.384 OA
HETATM   21  C15 UNL     1      22.622   2.535  48.176  1.00  0.00     0.202 C 
ENDBRANCH  13  20
ENDBRANCH   5   7
ENDBRANCH   4   5
ENDBRANCH   1   4
TORSDOF 7
ENDMDL
MODEL 9
REMARK VINA RESULT:      -5.2      2.977      5.521
REMARK  7 active torsions:
REMARK  status: ('A' for Active; 'I' for Inactive)
REMARK    1  A    between atoms: C2_2  and  C3_3 
REMARK    2  A    between atoms: C4_4  and  N1_5 
REMARK    3  A    between atoms: N1_5  and  C5_6 
REMARK    4  A    between atoms: C9_11  and  N2_12 
REMARK    5  A    between atoms: N2_12  and  C11_14 
REMARK    6  A    between atoms: C11_14  and  C12_15 
REMARK    7  A    between atoms: C14_18  and  O2_19 
ROOT
HETATM    1  C12 UNL     1      25.671   6.413  49.774  1.00  0.00     0.154 C 
HETATM    2  C13 UNL     1      26.761   6.567  48.852  1.00  0.00     0.060 C 
HETATM    3  N3  UNL     1      27.634   6.709  48.097  1.00  0.00    -0.197 NA
ENDROOT
BRANCH   1   4
HETATM    4  C11 UNL     1      25.278   5.002  50.100  1.00  0.00     0.286 C 
BRANCH   4   5
HETATM    5  N2  UNL     1      23.867   4.861  50.199  1.00  0.00     0.092 N 
HETATM    6  C10 UNL     1      23.189   6.041  50.670  1.00  0.00     0.310 C 
BRANCH   5   7
HETATM    7  C9  UNL     1      23.415   3.780  51.026  1.00  0.00     0.258 C 
HETATM    8  C8  UNL     1      24.490   3.218  51.940  1.00  0.00     0.065 C 
HETATM    9  C7  UNL     1      24.004   1.959  52.622  1.00  0.00     0.173 C 
HETATM   10  O1  UNL     1      23.436   1.069  51.712  1.00  0.00    -0.358 OA
HETATM   11  C5  UNL     1      22.232   1.627  51.312  1.00  0.00     0.158 C 
HETATM   12  C6  UNL     1      21.323   0.617  50.632  1.00  0.00     0.074 C 
HETATM   13  C14 UNL     1      22.531   2.771  50.396  1.00  0.00     0.209 C 
BRANCH  11  14
HETATM   14  N1  UNL     1      21.520   2.027  52.520  1.00  0.00    -0.366 N 
HETATM   15  H6  UNL     1      21.654   3.001  52.864  1.00  0.00     0.162 HD
BRANCH  14  16
HETATM   16  C4  UNL     1      20.699   1.059  53.140  1.00  0.00     0.086 C 
HETATM   17  C3  UNL     1      20.490   0.071  53.981  1.00  0.00     0.016 C 
BRANCH  17  18
HETATM   18  C2  UNL     1      21.471  -0.531  54.865  1.00  0.00    -0.009 C 
HETATM   19  C1  UNL     1      22.601  -1.033  54.417  1.00  0.00     0.011 C 
ENDBRANCH  17  18
ENDBRANCH  14  16
ENDBRANCH  11  14
BRANCH  13  20
HETATM   20  O2  UNL     1      22.946   2.255  49.188  1.00  0.00    -0.384 OA
HETATM   21  C15 UNL     1      22.228   2.801  48.108  1.00  0.00     0.202 C 
ENDBRANCH  13  20
ENDBRANCH   5   7
ENDBRANCH   4   5
ENDBRANCH   1   4
TORSDOF 7
ENDMDL
