MODEL 1
REMARK VINA RESULT:      -7.5      0.000      0.000
REMARK  7 active torsions:
REMARK  status: ('A' for Active; 'I' for Inactive)
REMARK    1  A    between atoms: C2_2  and  C3_3 
REMARK    2  A    between atoms: N1_5  and  C4_6 
REMARK    3  A    between atoms: C4_6  and  C5_7 
REMARK    4  A    between atoms: C5_7  and  N2_8 
REMARK    5  A    between atoms: C11_14  and  N3_15 
REMARK    6  A    between atoms: N3_15  and  C12_16 
REMARK    7  A    between atoms: C12_16  and  C13_17 
ROOT
HETATM    1  C13 UNL     1      26.347   1.344  52.104  1.00  0.00     0.056 C 
HETATM    2  C14 UNL     1      26.434   2.294  51.198  1.00  0.00     0.178 C 
HETATM    3 BR1  UNL     1      26.424   3.466  49.726  1.00  0.00    -0.200 Br
ENDROOT
BRANCH   1   4
HETATM    4  C12 UNL     1      25.950  -0.015  52.591  1.00  0.00     0.026 C 
HETATM    5  C15 UNL     1      27.022  -0.606  52.242  1.00  0.00    -0.002 C 
HETATM    6  C16 UNL     1      27.131  -2.052  52.545  1.00  0.00     0.038 C 
BRANCH   4   7
HETATM    7  N3  UNL     1      24.735   0.502  53.026  1.00  0.00    -0.341 N 
HETATM    8  H15 UNL     1      24.835   1.478  52.672  1.00  0.00     0.167 HD
BRANCH   7   9
HETATM    9  C11 UNL     1      23.712  -0.147  53.712  1.00  0.00     0.142 A 
HETATM   10  C10 UNL     1      22.414  -0.011  53.332  1.00  0.00     0.043 A 
HETATM   11  C9  UNL     1      22.200   0.803  52.245  1.00  0.00     0.078 A 
HETATM   12  C18 UNL     1      21.402  -0.655  54.008  1.00  0.00     0.089 A 
HETATM   13  C8  UNL     1      20.883   0.985  51.802  1.00  0.00     0.267 A 
HETATM   14  N1  UNL     1      20.568   1.820  50.658  1.00  0.00    -0.305 N 
HETATM   15  N6  UNL     1      19.897   0.339  52.486  1.00  0.00    -0.237 NA
HETATM   16  O1  UNL     1      20.627   2.405  52.463  1.00  0.00    -0.280 OA
HETATM   17  C3  UNL     1      20.414   3.047  51.378  1.00  0.00     0.148 A 
HETATM   18  C19 UNL     1      20.121  -0.452  53.544  1.00  0.00     0.148 A 
HETATM   19  N5  UNL     1      21.736  -1.438  55.075  1.00  0.00    -0.240 NA
HETATM   20  C17 UNL     1      23.025  -1.574  55.454  1.00  0.00     0.236 A 
HETATM   21  N4  UNL     1      24.016  -0.927  54.772  1.00  0.00    -0.224 NA
BRANCH  14  22
HETATM   22  C4  UNL     1      20.534   1.168  49.391  1.00  0.00     0.160 C 
BRANCH  22  23
HETATM   23  C5  UNL     1      21.704   1.444  48.505  1.00  0.00     0.291 C 
BRANCH  23  24
HETATM   24  N2  UNL     1      21.612   2.535  47.615  1.00  0.00     0.081 N 
HETATM   25  C6  UNL     1      22.416   3.686  47.870  1.00  0.00     0.309 C 
HETATM   26  C7  UNL     1      20.231   2.938  47.467  1.00  0.00     0.309 C 
ENDBRANCH  23  24
ENDBRANCH  22  23
ENDBRANCH  14  22
BRANCH  17  27
HETATM   27  C2  UNL     1      20.142   4.469  51.179  1.00  0.00     0.046 C 
HETATM   28  C1  UNL     1      20.903   5.398  50.638  1.00  0.00     0.015 C 
ENDBRANCH  17  27
ENDBRANCH   7   9
ENDBRANCH   4   7
ENDBRANCH   1   4
TORSDOF 7
ENDMDL
MODEL 2
REMARK VINA RESULT:      -6.9      2.918      5.225
REMARK  7 active torsions:
REMARK  status: ('A' for Active; 'I' for Inactive)
REMARK    1  A    between atoms: C2_2  and  C3_3 
REMARK    2  A    between atoms: N1_5  and  C4_6 
REMARK    3  A    between atoms: C4_6  and  C5_7 
REMARK    4  A    between atoms: C5_7  and  N2_8 
REMARK    5  A    between atoms: C11_14  and  N3_15 
REMARK    6  A    between atoms: N3_15  and  C12_16 
REMARK    7  A    between atoms: C12_16  and  C13_17 
ROOT
HETATM    1  C13 UNL     1      18.871   0.120  52.145  1.00  0.00     0.056 C 
HETATM    2  C14 UNL     1      18.234   0.642  51.119  1.00  0.00     0.178 C 
HETATM    3 BR1  UNL     1      17.110   1.208  49.721  1.00  0.00    -0.200 Br
ENDROOT
BRANCH   1   4
HETATM    4  C12 UNL     1      19.000  -0.805  53.316  1.00  0.00     0.026 C 
HETATM    5  C15 UNL     1      18.079  -1.609  52.960  1.00  0.00    -0.002 C 
HETATM    6  C16 UNL     1      17.820  -2.777  53.834  1.00  0.00     0.038 C 
BRANCH   4   7
HETATM    7  N3  UNL     1      20.027  -0.015  53.820  1.00  0.00    -0.341 N 
HETATM    8  H15 UNL     1      19.520   0.894  53.880  1.00  0.00     0.167 HD
BRANCH   7   9
HETATM    9  C11 UNL     1      21.328  -0.388  54.146  1.00  0.00     0.142 A 
HETATM   10  C10 UNL     1      22.398   0.287  53.650  1.00  0.00     0.043 A 
HETATM   11  C9  UNL     1      22.097   1.337  52.815  1.00  0.00     0.078 A 
HETATM   12  C18 UNL     1      23.685  -0.079  53.975  1.00  0.00     0.089 A 
HETATM   13  C8  UNL     1      23.157   2.074  52.268  1.00  0.00     0.267 A 
HETATM   14  N1  UNL     1      22.930   3.202  51.385  1.00  0.00    -0.305 N 
HETATM   15  N6  UNL     1      24.423   1.694  52.603  1.00  0.00    -0.237 NA
HETATM   16  O1  UNL     1      23.168   1.403  50.830  1.00  0.00    -0.280 OA
HETATM   17  C3  UNL     1      22.915   2.462  50.161  1.00  0.00     0.148 A 
HETATM   18  C19 UNL     1      24.700   0.668  53.419  1.00  0.00     0.148 A 
HETATM   19  N5  UNL     1      23.861  -1.142  54.814  1.00  0.00    -0.240 NA
HETATM   20  C17 UNL     1      22.799  -1.813  55.309  1.00  0.00     0.236 A 
HETATM   21  N4  UNL     1      21.528  -1.436  54.975  1.00  0.00    -0.224 NA
BRANCH  14  22
HETATM   22  C4  UNL     1      22.823   4.479  52.009  1.00  0.00     0.160 C 
BRANCH  22  23
HETATM   23  C5  UNL     1      22.885   5.646  51.078  1.00  0.00     0.291 C 
BRANCH  23  24
HETATM   24  N2  UNL     1      24.092   6.374  51.016  1.00  0.00     0.081 N 
HETATM   25  C6  UNL     1      24.019   7.786  50.825  1.00  0.00     0.309 C 
HETATM   26  C7  UNL     1      24.966   5.799  50.019  1.00  0.00     0.309 C 
ENDBRANCH  23  24
ENDBRANCH  22  23
ENDBRANCH  14  22
BRANCH  17  27
HETATM   27  C2  UNL     1      22.724   2.627  48.721  1.00  0.00     0.046 C 
HETATM   28  C1  UNL     1      22.306   3.680  48.049  1.00  0.00     0.015 C 
ENDBRANCH  17  27
ENDBRANCH   7   9
ENDBRANCH   4   7
ENDBRANCH   1   4
TORSDOF 7
ENDMDL
MODEL 3
REMARK VINA RESULT:      -6.9      2.877      5.159
REMARK  7 active torsions:
REMARK  status: ('A' for Active; 'I' for Inactive)
REMARK    1  A    between atoms: C2_2  and  C3_3 
REMARK    2  A    between atoms: N1_5  and  C4_6 
REMARK    3  A    between atoms: C4_6  and  C5_7 
REMARK    4  A    between atoms: C5_7  and  N2_8 
REMARK    5  A    between atoms: C11_14  and  N3_15 
REMARK    6  A    between atoms: N3_15  and  C12_16 
REMARK    7  A    between atoms: C12_16  and  C13_17 
ROOT
HETATM    1  C13 UNL     1      20.733   1.017  52.995  1.00  0.00     0.056 C 
HETATM    2  C14 UNL     1      20.336   2.093  52.352  1.00  0.00     0.178 C 
HETATM    3 BR1  UNL     1      20.050   3.700  51.416  1.00  0.00    -0.200 Br
ENDROOT
BRANCH   1   4
HETATM    4  C12 UNL     1      21.768   0.110  53.584  1.00  0.00     0.026 C 
HETATM    5  C15 UNL     1      20.963  -0.815  53.928  1.00  0.00    -0.002 C 
HETATM    6  C16 UNL     1      21.542  -2.016  54.575  1.00  0.00     0.038 C 
BRANCH   4   7
HETATM    7  N3  UNL     1      22.755   1.034  53.260  1.00  0.00    -0.341 N 
HETATM    8  H15 UNL     1      22.195   1.909  53.348  1.00  0.00     0.167 HD
BRANCH   7   9
HETATM    9  C11 UNL     1      24.089   0.802  52.939  1.00  0.00     0.142 A 
HETATM   10  C10 UNL     1      24.781   1.662  52.146  1.00  0.00     0.043 A 
HETATM   11  C9  UNL     1      24.070   2.749  51.695  1.00  0.00     0.078 A 
HETATM   12  C18 UNL     1      26.102   1.435  51.831  1.00  0.00     0.089 A 
HETATM   13  C8  UNL     1      24.726   3.675  50.872  1.00  0.00     0.267 A 
HETATM   14  N1  UNL     1      24.054   4.854  50.358  1.00  0.00    -0.305 N 
HETATM   15  N6  UNL     1      26.033   3.430  50.571  1.00  0.00    -0.237 NA
HETATM   16  O1  UNL     1      24.150   3.173  49.481  1.00  0.00    -0.280 OA
HETATM   17  C3  UNL     1      23.554   4.257  49.158  1.00  0.00     0.148 A 
HETATM   18  C19 UNL     1      26.713   2.366  51.019  1.00  0.00     0.148 A 
HETATM   19  N5  UNL     1      26.703   0.320  52.337  1.00  0.00    -0.240 NA
HETATM   20  C17 UNL     1      26.018  -0.536  53.125  1.00  0.00     0.236 A 
HETATM   21  N4  UNL     1      24.707  -0.296  53.427  1.00  0.00    -0.224 NA
BRANCH  14  22
HETATM   22  C4  UNL     1      24.144   6.029  51.159  1.00  0.00     0.160 C 
BRANCH  22  23
HETATM   23  C5  UNL     1      24.041   7.316  50.409  1.00  0.00     0.291 C 
BRANCH  23  24
HETATM   24  N2  UNL     1      22.813   8.009  50.456  1.00  0.00     0.081 N 
HETATM   25  C6  UNL     1      21.643   7.286  50.838  1.00  0.00     0.309 C 
HETATM   26  C7  UNL     1      22.572   8.678  49.198  1.00  0.00     0.309 C 
ENDBRANCH  23  24
ENDBRANCH  22  23
ENDBRANCH  14  22
BRANCH  17  27
HETATM   27  C2  UNL     1      22.737   4.553  47.982  1.00  0.00     0.046 C 
HETATM   28  C1  UNL     1      21.635   5.268  47.889  1.00  0.00     0.015 C 
ENDBRANCH  17  27
ENDBRANCH   7   9
ENDBRANCH   4   7
ENDBRANCH   1   4
TORSDOF 7
ENDMDL
MODEL 4
REMARK VINA RESULT:      -6.5      8.989     12.467
REMARK  7 active torsions:
REMARK  status: ('A' for Active; 'I' for Inactive)
REMARK    1  A    between atoms: C2_2  and  C3_3 
REMARK    2  A    between atoms: N1_5  and  C4_6 
REMARK    3  A    between atoms: C4_6  and  C5_7 
REMARK    4  A    between atoms: C5_7  and  N2_8 
REMARK    5  A    between atoms: C11_14  and  N3_15 
REMARK    6  A    between atoms: N3_15  and  C12_16 
REMARK    7  A    between atoms: C12_16  and  C13_17 
ROOT
HETATM    1  C13 UNL     1      27.678   5.757  48.512  1.00  0.00     0.056 C 
HETATM    2  C14 UNL     1      27.170   4.665  49.040  1.00  0.00     0.178 C 
HETATM    3 BR1  UNL     1      26.202   3.173  49.655  1.00  0.00    -0.200 Br
ENDROOT
BRANCH   1   4
HETATM    4  C12 UNL     1      27.621   6.990  47.665  1.00  0.00     0.026 C 
HETATM    5  C15 UNL     1      26.387   7.236  47.860  1.00  0.00    -0.002 C 
HETATM    6  C16 UNL     1      25.822   8.442  47.210  1.00  0.00     0.038 C 
BRANCH   4   7
HETATM    7  N3  UNL     1      28.972   6.844  47.371  1.00  0.00    -0.341 N 
HETATM    8  H15 UNL     1      28.891   6.241  46.524  1.00  0.00     0.167 HD
BRANCH   7   9
HETATM    9  C11 UNL     1      30.068   7.385  48.037  1.00  0.00     0.142 A 
HETATM   10  C10 UNL     1      31.312   6.859  47.885  1.00  0.00     0.043 A 
HETATM   11  C9  UNL     1      31.394   5.773  47.045  1.00  0.00     0.078 A 
HETATM   12  C18 UNL     1      32.397   7.395  48.541  1.00  0.00     0.089 A 
HETATM   13  C8  UNL     1      32.650   5.183  46.846  1.00  0.00     0.267 A 
HETATM   14  N1  UNL     1      32.829   4.040  45.971  1.00  0.00    -0.305 N 
HETATM   15  N6  UNL     1      33.711   5.729  47.506  1.00  0.00    -0.237 NA
HETATM   16  O1  UNL     1      32.469   3.953  47.833  1.00  0.00    -0.280 OA
HETATM   17  C3  UNL     1      32.597   3.030  46.957  1.00  0.00     0.148 A 
HETATM   18  C19 UNL     1      33.614   6.788  48.321  1.00  0.00     0.148 A 
HETATM   19  N5  UNL     1      32.193   8.474  49.351  1.00  0.00    -0.240 NA
HETATM   20  C17 UNL     1      30.958   8.999  49.503  1.00  0.00     0.236 A 
HETATM   21  N4  UNL     1      29.892   8.453  48.845  1.00  0.00    -0.224 NA
BRANCH  14  22
HETATM   22  C4  UNL     1      33.137   4.330  44.610  1.00  0.00     0.160 C 
BRANCH  22  23
HETATM   23  C5  UNL     1      34.366   5.154  44.401  1.00  0.00     0.291 C 
BRANCH  23  24
HETATM   24  N2  UNL     1      34.305   6.195  43.451  1.00  0.00     0.081 N 
HETATM   25  C6  UNL     1      33.076   6.406  42.757  1.00  0.00     0.309 C 
HETATM   26  C7  UNL     1      35.379   6.054  42.493  1.00  0.00     0.309 C 
ENDBRANCH  23  24
ENDBRANCH  22  23
ENDBRANCH  14  22
BRANCH  17  27
HETATM   27  C2  UNL     1      32.502   1.580  47.117  1.00  0.00     0.046 C 
HETATM   28  C1  UNL     1      31.803   0.707  46.422  1.00  0.00     0.015 C 
ENDBRANCH  17  27
ENDBRANCH   7   9
ENDBRANCH   4   7
ENDBRANCH   1   4
TORSDOF 7
ENDMDL
MODEL 5
REMARK VINA RESULT:      -6.5      1.573      2.137
REMARK  7 active torsions:
REMARK  status: ('A' for Active; 'I' for Inactive)
REMARK    1  A    between atoms: C2_2  and  C3_3 
REMARK    2  A    between atoms: N1_5  and  C4_6 
REMARK    3  A    between atoms: C4_6  and  C5_7 
REMARK    4  A    between atoms: C5_7  and  N2_8 
REMARK    5  A    between atoms: C11_14  and  N3_15 
REMARK    6  A    between atoms: N3_15  and  C12_16 
REMARK    7  A    between atoms: C12_16  and  C13_17 
ROOT
HETATM    1  C13 UNL     1      26.365   1.342  53.414  1.00  0.00     0.056 C 
HETATM    2  C14 UNL     1      27.382   0.508  53.459  1.00  0.00     0.178 C 
HETATM    3 BR1  UNL     1      28.652  -0.879  53.412  1.00  0.00    -0.200 Br
ENDROOT
BRANCH   1   4
HETATM    4  C12 UNL     1      24.947   1.715  53.114  1.00  0.00     0.026 C 
HETATM    5  C15 UNL     1      25.132   2.975  53.113  1.00  0.00    -0.002 C 
HETATM    6  C16 UNL     1      23.960   3.834  52.826  1.00  0.00     0.038 C 
BRANCH   4   7
HETATM    7  N3  UNL     1      24.605   0.367  53.081  1.00  0.00    -0.341 N 
HETATM    8  H15 UNL     1      25.371   0.019  52.464  1.00  0.00     0.167 HD
BRANCH   7   9
HETATM    9  C11 UNL     1      23.548  -0.275  53.719  1.00  0.00     0.142 A 
HETATM   10  C10 UNL     1      22.265  -0.092  53.311  1.00  0.00     0.043 A 
HETATM   11  C9  UNL     1      22.101   0.762  52.246  1.00  0.00     0.078 A 
HETATM   12  C18 UNL     1      21.219  -0.731  53.939  1.00  0.00     0.089 A 
HETATM   13  C8  UNL     1      20.801   0.994  51.776  1.00  0.00     0.267 A 
HETATM   14  N1  UNL     1      20.539   1.874  50.653  1.00  0.00    -0.305 N 
HETATM   15  N6  UNL     1      19.781   0.353  52.413  1.00  0.00    -0.237 NA
HETATM   16  O1  UNL     1      20.566   2.399  52.477  1.00  0.00    -0.280 OA
HETATM   17  C3  UNL     1      20.398   3.081  51.409  1.00  0.00     0.148 A 
HETATM   18  C19 UNL     1      19.957  -0.477  53.450  1.00  0.00     0.148 A 
HETATM   19  N5  UNL     1      21.504  -1.556  54.988  1.00  0.00    -0.240 NA
HETATM   20  C17 UNL     1      22.779  -1.740  55.395  1.00  0.00     0.236 A 
HETATM   21  N4  UNL     1      23.804  -1.098  54.760  1.00  0.00    -0.224 NA
BRANCH  14  22
HETATM   22  C4  UNL     1      20.521   1.264  49.365  1.00  0.00     0.160 C 
BRANCH  22  23
HETATM   23  C5  UNL     1      20.193   2.183  48.234  1.00  0.00     0.291 C 
BRANCH  23  24
HETATM   24  N2  UNL     1      21.263   2.682  47.461  1.00  0.00     0.081 N 
HETATM   25  C6  UNL     1      22.566   2.147  47.686  1.00  0.00     0.309 C 
HETATM   26  C7  UNL     1      21.313   4.124  47.557  1.00  0.00     0.309 C 
ENDBRANCH  23  24
ENDBRANCH  22  23
ENDBRANCH  14  22
BRANCH  17  27
HETATM   27  C2  UNL     1      20.169   4.516  51.251  1.00  0.00     0.046 C 
HETATM   28  C1  UNL     1      21.029   5.473  50.970  1.00  0.00     0.015 C 
ENDBRANCH  17  27
ENDBRANCH   7   9
ENDBRANCH   4   7
ENDBRANCH   1   4
TORSDOF 7
ENDMDL
MODEL 6
REMARK VINA RESULT:      -6.4      1.968      2.883
REMARK  7 active torsions:
REMARK  status: ('A' for Active; 'I' for Inactive)
REMARK    1  A    between atoms: C2_2  and  C3_3 
REMARK    2  A    between atoms: N1_5  and  C4_6 
REMARK    3  A    between atoms: C4_6  and  C5_7 
REMARK    4  A    between atoms: C5_7  and  N2_8 
REMARK    5  A    between atoms: C11_14  and  N3_15 
REMARK    6  A    between atoms: N3_15  and  C12_16 
REMARK    7  A    between atoms: C12_16  and  C13_17 
ROOT
HETATM    1  C13 UNL     1      26.415   2.051  51.366  1.00  0.00     0.056 C 
HETATM    2  C14 UNL     1      26.496   3.095  50.570  1.00  0.00     0.178 C 
HETATM    3 BR1  UNL     1      26.348   4.512  49.342  1.00  0.00    -0.200 Br
ENDROOT
BRANCH   1   4
HETATM    4  C12 UNL     1      25.726   0.854  51.945  1.00  0.00     0.026 C 
HETATM    5  C15 UNL     1      26.782   0.263  52.339  1.00  0.00    -0.002 C 
HETATM    6  C16 UNL     1      26.616  -1.033  53.037  1.00  0.00     0.038 C 
BRANCH   4   7
HETATM    7  N3  UNL     1      24.497   1.388  51.572  1.00  0.00    -0.341 N 
HETATM    8  H15 UNL     1      24.786   1.866  50.692  1.00  0.00     0.167 HD
BRANCH   7   9
HETATM    9  C11 UNL     1      23.269   1.270  52.216  1.00  0.00     0.142 A 
HETATM   10  C10 UNL     1      22.259   2.145  51.969  1.00  0.00     0.043 A 
HETATM   11  C9  UNL     1      22.546   3.134  51.058  1.00  0.00     0.078 A 
HETATM   12  C18 UNL     1      21.042   2.026  52.603  1.00  0.00     0.089 A 
HETATM   13  C8  UNL     1      21.546   4.070  50.759  1.00  0.00     0.267 A 
HETATM   14  N1  UNL     1      21.761   5.141  49.805  1.00  0.00    -0.305 N 
HETATM   15  N6  UNL     1      20.349   3.935  51.399  1.00  0.00    -0.237 NA
HETATM   16  O1  UNL     1      22.078   5.254  51.673  1.00  0.00    -0.280 OA
HETATM   17  C3  UNL     1      22.272   6.101  50.735  1.00  0.00     0.148 A 
HETATM   18  C19 UNL     1      20.085   2.965  52.284  1.00  0.00     0.148 A 
HETATM   19  N5  UNL     1      20.874   1.003  53.490  1.00  0.00    -0.240 NA
HETATM   20  C17 UNL     1      21.876   0.132  53.736  1.00  0.00     0.236 A 
HETATM   21  N4  UNL     1      23.077   0.265  53.099  1.00  0.00    -0.224 NA
BRANCH  14  22
HETATM   22  C4  UNL     1      21.413   4.859  48.452  1.00  0.00     0.160 C 
BRANCH  22  23
HETATM   23  C5  UNL     1      20.064   5.341  48.030  1.00  0.00     0.291 C 
BRANCH  23  24
HETATM   24  N2  UNL     1      19.094   4.372  47.698  1.00  0.00     0.081 N 
HETATM   25  C6  UNL     1      19.395   3.000  47.948  1.00  0.00     0.309 C 
HETATM   26  C7  UNL     1      18.688   4.530  46.319  1.00  0.00     0.309 C 
ENDBRANCH  23  24
ENDBRANCH  22  23
ENDBRANCH  14  22
BRANCH  17  27
HETATM   27  C2  UNL     1      22.815   7.456  50.805  1.00  0.00     0.046 C 
HETATM   28  C1  UNL     1      23.510   8.125  49.909  1.00  0.00     0.015 C 
ENDBRANCH  17  27
ENDBRANCH   7   9
ENDBRANCH   4   7
ENDBRANCH   1   4
TORSDOF 7
ENDMDL
MODEL 7
REMARK VINA RESULT:      -6.1      9.080     12.413
REMARK  7 active torsions:
REMARK  status: ('A' for Active; 'I' for Inactive)
REMARK    1  A    between atoms: C2_2  and  C3_3 
REMARK    2  A    between atoms: N1_5  and  C4_6 
REMARK    3  A    between atoms: C4_6  and  C5_7 
REMARK    4  A    between atoms: C5_7  and  N2_8 
REMARK    5  A    between atoms: C11_14  and  N3_15 
REMARK    6  A    between atoms: N3_15  and  C12_16 
REMARK    7  A    between atoms: C12_16  and  C13_17 
ROOT
HETATM    1  C13 UNL     1      26.475   7.425  47.715  1.00  0.00     0.056 C 
HETATM    2  C14 UNL     1      25.399   8.163  47.884  1.00  0.00     0.178 C 
HETATM    3 BR1  UNL     1      23.815   9.058  48.362  1.00  0.00    -0.200 Br
ENDROOT
BRANCH   1   4
HETATM    4  C12 UNL     1      27.430   6.337  48.096  1.00  0.00     0.026 C 
HETATM    5  C15 UNL     1      26.566   5.581  48.648  1.00  0.00    -0.002 C 
HETATM    6  C16 UNL     1      27.044   4.291  49.199  1.00  0.00     0.038 C 
BRANCH   4   7
HETATM    7  N3  UNL     1      28.472   7.058  47.524  1.00  0.00    -0.341 N 
HETATM    8  H15 UNL     1      28.255   6.889  46.518  1.00  0.00     0.167 HD
BRANCH   7   9
HETATM    9  C11 UNL     1      29.472   7.789  48.160  1.00  0.00     0.142 A 
HETATM   10  C10 UNL     1      30.785   7.481  47.986  1.00  0.00     0.043 A 
HETATM   11  C9  UNL     1      31.035   6.413  47.157  1.00  0.00     0.078 A 
HETATM   12  C18 UNL     1      31.775   8.205  48.610  1.00  0.00     0.089 A 
HETATM   13  C8  UNL     1      32.369   6.043  46.937  1.00  0.00     0.267 A 
HETATM   14  N1  UNL     1      32.724   4.935  46.071  1.00  0.00    -0.305 N 
HETATM   15  N6  UNL     1      33.334   6.773  47.566  1.00  0.00    -0.237 NA
HETATM   16  O1  UNL     1      32.422   4.816  47.941  1.00  0.00    -0.280 OA
HETATM   17  C3  UNL     1      32.688   3.915  47.074  1.00  0.00     0.148 A 
HETATM   18  C19 UNL     1      33.073   7.812  48.370  1.00  0.00     0.148 A 
HETATM   19  N5  UNL     1      31.405   9.246  49.412  1.00  0.00    -0.240 NA
HETATM   20  C17 UNL     1      30.101   9.553  49.586  1.00  0.00     0.236 A 
HETATM   21  N4  UNL     1      29.132   8.823  48.958  1.00  0.00    -0.224 NA
BRANCH  14  22
HETATM   22  C4  UNL     1      32.950   5.252  44.700  1.00  0.00     0.160 C 
BRANCH  22  23
HETATM   23  C5  UNL     1      34.370   5.141  44.251  1.00  0.00     0.291 C 
BRANCH  23  24
HETATM   24  N2  UNL     1      34.614   5.020  42.866  1.00  0.00     0.081 N 
HETATM   25  C6  UNL     1      35.171   6.139  42.178  1.00  0.00     0.309 C 
HETATM   26  C7  UNL     1      33.412   4.591  42.187  1.00  0.00     0.309 C 
ENDBRANCH  23  24
ENDBRANCH  22  23
ENDBRANCH  14  22
BRANCH  17  27
HETATM   27  C2  UNL     1      32.847   2.473  47.253  1.00  0.00     0.046 C 
HETATM   28  C1  UNL     1      32.115   1.487  46.777  1.00  0.00     0.015 C 
ENDBRANCH  17  27
ENDBRANCH   7   9
ENDBRANCH   4   7
ENDBRANCH   1   4
TORSDOF 7
ENDMDL
MODEL 8
REMARK VINA RESULT:      -6.1      2.885      4.580
REMARK  7 active torsions:
REMARK  status: ('A' for Active; 'I' for Inactive)
REMARK    1  A    between atoms: C2_2  and  C3_3 
REMARK    2  A    between atoms: N1_5  and  C4_6 
REMARK    3  A    between atoms: C4_6  and  C5_7 
REMARK    4  A    between atoms: C5_7  and  N2_8 
REMARK    5  A    between atoms: C11_14  and  N3_15 
REMARK    6  A    between atoms: N3_15  and  C12_16 
REMARK    7  A    between atoms: C12_16  and  C13_17 
ROOT
HETATM    1  C13 UNL     1      27.696   5.153  48.519  1.00  0.00     0.056 C 
HETATM    2  C14 UNL     1      28.955   5.494  48.350  1.00  0.00     0.178 C 
HETATM    3 BR1  UNL     1      30.731   6.117  48.364  1.00  0.00    -0.200 Br
ENDROOT
BRANCH   1   4
HETATM    4  C12 UNL     1      26.402   5.124  49.271  1.00  0.00     0.026 C 
HETATM    5  C15 UNL     1      26.164   6.372  49.187  1.00  0.00    -0.002 C 
HETATM    6  C16 UNL     1      24.909   6.868  49.798  1.00  0.00     0.038 C 
BRANCH   4   7
HETATM    7  N3  UNL     1      26.535   3.749  49.435  1.00  0.00    -0.341 N 
HETATM    8  H15 UNL     1      26.976   3.517  48.519  1.00  0.00     0.167 HD
BRANCH   7   9
HETATM    9  C11 UNL     1      26.181   2.969  50.532  1.00  0.00     0.142 A 
HETATM   10  C10 UNL     1      24.880   2.668  50.790  1.00  0.00     0.043 A 
HETATM   11  C9  UNL     1      23.968   3.190  49.904  1.00  0.00     0.078 A 
HETATM   12  C18 UNL     1      24.530   1.892  51.872  1.00  0.00     0.089 A 
HETATM   13  C8  UNL     1      22.609   2.917  50.114  1.00  0.00     0.267 A 
HETATM   14  N1  UNL     1      21.580   3.421  49.224  1.00  0.00    -0.305 N 
HETATM   15  N6  UNL     1      22.284   2.148  51.192  1.00  0.00    -0.237 NA
HETATM   16  O1  UNL     1      22.212   4.301  50.783  1.00  0.00    -0.280 OA
HETATM   17  C3  UNL     1      21.357   4.660  49.904  1.00  0.00     0.148 A 
HETATM   18  C19 UNL     1      23.185   1.646  52.046  1.00  0.00     0.148 A 
HETATM   19  N5  UNL     1      25.524   1.430  52.684  1.00  0.00    -0.240 NA
HETATM   20  C17 UNL     1      26.817   1.727  52.429  1.00  0.00     0.236 A 
HETATM   21  N4  UNL     1      27.147   2.499  51.351  1.00  0.00    -0.224 NA
BRANCH  14  22
HETATM   22  C4  UNL     1      21.222   2.577  48.133  1.00  0.00     0.160 C 
BRANCH  22  23
HETATM   23  C5  UNL     1      20.107   3.085  47.279  1.00  0.00     0.291 C 
BRANCH  23  24
HETATM   24  N2  UNL     1      20.445   3.746  46.080  1.00  0.00     0.081 N 
HETATM   25  C6  UNL     1      21.806   3.715  45.652  1.00  0.00     0.309 C 
HETATM   26  C7  UNL     1      19.988   5.117  46.123  1.00  0.00     0.309 C 
ENDBRANCH  23  24
ENDBRANCH  22  23
ENDBRANCH  14  22
BRANCH  17  27
HETATM   27  C2  UNL     1      20.577   5.893  49.818  1.00  0.00     0.046 C 
HETATM   28  C1  UNL     1      20.843   7.007  49.166  1.00  0.00     0.015 C 
ENDBRANCH  17  27
ENDBRANCH   7   9
ENDBRANCH   4   7
ENDBRANCH   1   4
TORSDOF 7
ENDMDL
MODEL 9
REMARK VINA RESULT:      -5.9      9.418     12.254
REMARK  7 active torsions:
REMARK  status: ('A' for Active; 'I' for Inactive)
REMARK    1  A    between atoms: C2_2  and  C3_3 
REMARK    2  A    between atoms: N1_5  and  C4_6 
REMARK    3  A    between atoms: C4_6  and  C5_7 
REMARK    4  A    between atoms: C5_7  and  N2_8 
REMARK    5  A    between atoms: C11_14  and  N3_15 
REMARK    6  A    between atoms: N3_15  and  C12_16 
REMARK    7  A    between atoms: C12_16  and  C13_17 
ROOT
HETATM    1  C13 UNL     1      33.905   3.124  47.822  1.00  0.00     0.056 C 
HETATM    2  C14 UNL     1      34.654   4.071  48.343  1.00  0.00     0.178 C 
HETATM    3 BR1  UNL     1      35.521   5.608  48.996  1.00  0.00    -0.200 Br
ENDROOT
BRANCH   1   4
HETATM    4  C12 UNL     1      32.695   2.612  47.103  1.00  0.00     0.026 C 
HETATM    5  C15 UNL     1      32.991   1.376  47.198  1.00  0.00    -0.002 C 
HETATM    6  C16 UNL     1      32.035   0.402  46.621  1.00  0.00     0.038 C 
BRANCH   4   7
HETATM    7  N3  UNL     1      32.250   3.917  46.932  1.00  0.00    -0.341 N 
HETATM    8  H15 UNL     1      31.726   4.030  47.827  1.00  0.00     0.167 HD
BRANCH   7   9
HETATM    9  C11 UNL     1      32.483   4.781  45.865  1.00  0.00     0.142 A 
HETATM   10  C10 UNL     1      32.022   6.059  45.882  1.00  0.00     0.043 A 
HETATM   11  C9  UNL     1      31.319   6.417  47.009  1.00  0.00     0.078 A 
HETATM   12  C18 UNL     1      32.255   6.915  44.829  1.00  0.00     0.089 A 
HETATM   13  C8  UNL     1      30.815   7.723  47.088  1.00  0.00     0.267 A 
HETATM   14  N1  UNL     1      30.070   8.187  48.243  1.00  0.00    -0.305 N 
HETATM   15  N6  UNL     1      31.057   8.553  46.034  1.00  0.00    -0.237 NA
HETATM   16  O1  UNL     1      29.313   7.399  46.691  1.00  0.00    -0.280 OA
HETATM   17  C3  UNL     1      28.774   7.798  47.779  1.00  0.00     0.148 A 
HETATM   18  C19 UNL     1      31.745   8.189  44.943  1.00  0.00     0.148 A 
HETATM   19  N5  UNL     1      32.966   6.446  43.762  1.00  0.00    -0.240 NA
HETATM   20  C17 UNL     1      33.425   5.176  43.744  1.00  0.00     0.236 A 
HETATM   21  N4  UNL     1      33.184   4.340  44.798  1.00  0.00    -0.224 NA
BRANCH  14  22
HETATM   22  C4  UNL     1      30.833   8.791  49.284  1.00  0.00     0.160 C 
BRANCH  22  23
HETATM   23  C5  UNL     1      30.404  10.170  49.666  1.00  0.00     0.291 C 
BRANCH  23  24
HETATM   24  N2  UNL     1      30.067  11.064  48.627  1.00  0.00     0.081 N 
HETATM   25  C6  UNL     1      30.879  12.223  48.443  1.00  0.00     0.309 C 
HETATM   26  C7  UNL     1      28.682  11.463  48.747  1.00  0.00     0.309 C 
ENDBRANCH  23  24
ENDBRANCH  22  23
ENDBRANCH  14  22
BRANCH  17  27
HETATM   27  C2  UNL     1      27.370   7.772  48.183  1.00  0.00     0.046 C 
HETATM   28  C1  UNL     1      26.663   6.780  48.684  1.00  0.00     0.015 C 
ENDBRANCH  17  27
ENDBRANCH   7   9
ENDBRANCH   4   7
ENDBRANCH   1   4
TORSDOF 7
ENDMDL
