MODEL 1
REMARK VINA RESULT:      -7.9      0.000      0.000
REMARK  6 active torsions:
REMARK  status: ('A' for Active; 'I' for Inactive)
REMARK    1  A    between atoms: C3_3  and  C4_4 
REMARK       I    between atoms: C4_4  and  N1_6 
REMARK    2  A    between atoms: N1_6  and  C5_7 
REMARK    3  A    between atoms: C5_7  and  C6_8 
REMARK    4  A    between atoms: C6_8  and  N2_9 
REMARK    5  A    between atoms: C17_22  and  N3_23 
REMARK    6  A    between atoms: N3_23  and  C18_24 
ROOT
HETATM    1  C1  UNL     1      21.763  -1.741  54.478  1.00  0.00     0.069 C 
HETATM    2  C2  UNL     1      21.496  -0.678  53.492  1.00  0.00     0.018 C 
HETATM    3  C3  UNL     1      22.326   0.076  52.790  1.00  0.00     0.064 C 
HETATM    4  C11 UNL     1      21.888   1.030  51.790  1.00  0.00    -0.008 C 
HETATM    5  C12 UNL     1      22.675   1.907  50.974  1.00  0.00     0.007 A 
HETATM    6  C13 UNL     1      23.862   2.571  51.147  1.00  0.00     0.057 A 
HETATM    7  C14 UNL     1      24.655   3.312  50.317  1.00  0.00     0.117 A 
HETATM    8  F1  UNL     1      25.798   3.854  50.780  1.00  0.00    -0.206 F 
HETATM    9  C15 UNL     1      24.168   3.425  49.035  1.00  0.00     0.044 A 
HETATM   10  C16 UNL     1      22.965   2.818  48.665  1.00  0.00     0.036 A 
HETATM   11  C17 UNL     1      22.289   2.102  49.629  1.00  0.00     0.072 A 
HETATM   12  C19 UNL     1      20.588   1.140  51.554  1.00  0.00     0.006 C 
HETATM   13  C20 UNL     1      19.532   0.369  52.224  1.00  0.00     0.147 C 
HETATM   14  N4  UNL     1      20.109  -0.413  53.260  1.00  0.00    -0.389 N 
HETATM   15  H23 UNL     1      19.368  -0.797  53.870  1.00  0.00     0.159 HD
ENDROOT
BRANCH   3  16
HETATM   16  C4  UNL     1      23.674  -0.239  53.076  1.00  0.00     0.254 C 
HETATM   17  O1  UNL     1      24.342   0.506  53.855  1.00  0.00    -0.268 OA
HETATM   18  N1  UNL     1      24.823  -1.004  52.975  1.00  0.00    -0.355 N 
HETATM   19  H4  UNL     1      24.574  -1.823  52.388  1.00  0.00     0.162 HD
BRANCH  18  20
HETATM   20  C5  UNL     1      26.062  -0.771  53.583  1.00  0.00     0.153 C 
BRANCH  20  21
HETATM   21  C6  UNL     1      27.330  -1.141  52.979  1.00  0.00     0.292 C 
BRANCH  21  22
HETATM   22  N2  UNL     1      28.226   0.025  53.100  1.00  0.00     0.094 N 
HETATM   23  C7  UNL     1      29.148  -0.073  54.179  1.00  0.00     0.298 C 
HETATM   24  C8  UNL     1      28.953   1.145  55.088  1.00  0.00     0.198 C 
HETATM   25  O2  UNL     1      29.081   2.343  54.405  1.00  0.00    -0.388 OA
HETATM   26  C9  UNL     1      28.357   2.426  53.239  1.00  0.00     0.198 C 
HETATM   27  C10 UNL     1      27.457   1.256  53.072  1.00  0.00     0.298 C 
ENDBRANCH  21  22
ENDBRANCH  20  21
ENDBRANCH  18  20
ENDBRANCH   3  16
BRANCH  11  28
HETATM   28  N3  UNL     1      21.121   1.557  48.980  1.00  0.00    -0.205 NA
BRANCH  28  29
HETATM   29  C18 UNL     1      20.543   2.353  48.147  1.00  0.00     0.337 C 
HETATM   30  O3  UNL     1      19.712   2.807  47.327  1.00  0.00    -0.260 OA
ENDBRANCH  28  29
ENDBRANCH  11  28
TORSDOF 6
ENDMDL
MODEL 2
REMARK VINA RESULT:      -7.7      2.837      6.082
REMARK  6 active torsions:
REMARK  status: ('A' for Active; 'I' for Inactive)
REMARK    1  A    between atoms: C3_3  and  C4_4 
REMARK       I    between atoms: C4_4  and  N1_6 
REMARK    2  A    between atoms: N1_6  and  C5_7 
REMARK    3  A    between atoms: C5_7  and  C6_8 
REMARK    4  A    between atoms: C6_8  and  N2_9 
REMARK    5  A    between atoms: C17_22  and  N3_23 
REMARK    6  A    between atoms: N3_23  and  C18_24 
ROOT
HETATM    1  C1  UNL     1      28.666   1.360  53.142  1.00  0.00     0.069 C 
HETATM    2  C2  UNL     1      27.266   1.033  53.468  1.00  0.00     0.018 C 
HETATM    3  C3  UNL     1      26.136   1.397  52.885  1.00  0.00     0.064 C 
HETATM    4  C11 UNL     1      24.833   0.909  53.292  1.00  0.00    -0.008 C 
HETATM    5  C12 UNL     1      23.542   1.229  52.757  1.00  0.00     0.007 A 
HETATM    6  C13 UNL     1      22.991   2.345  52.183  1.00  0.00     0.057 A 
HETATM    7  C14 UNL     1      21.794   2.596  51.574  1.00  0.00     0.117 A 
HETATM    8  F1  UNL     1      21.526   3.825  51.090  1.00  0.00    -0.206 F 
HETATM    9  C15 UNL     1      20.956   1.507  51.521  1.00  0.00     0.044 A 
HETATM   10  C16 UNL     1      21.340   0.275  52.057  1.00  0.00     0.036 A 
HETATM   11  C17 UNL     1      22.588   0.193  52.637  1.00  0.00     0.072 A 
HETATM   12  C19 UNL     1      24.772   0.038  54.290  1.00  0.00     0.006 C 
HETATM   13  C20 UNL     1      25.924  -0.488  55.034  1.00  0.00     0.147 C 
HETATM   14  N4  UNL     1      27.102   0.184  54.609  1.00  0.00    -0.389 N 
HETATM   15  H23 UNL     1      27.881  -0.020  55.257  1.00  0.00     0.159 HD
ENDROOT
BRANCH   3  16
HETATM   16  C4  UNL     1      26.378   2.236  51.773  1.00  0.00     0.254 C 
HETATM   17  O1  UNL     1      26.450   1.735  50.611  1.00  0.00    -0.268 OA
HETATM   18  N1  UNL     1      26.606   3.455  51.159  1.00  0.00    -0.355 N 
HETATM   19  H4  UNL     1      26.545   4.172  51.907  1.00  0.00     0.162 HD
BRANCH  18  20
HETATM   20  C5  UNL     1      26.819   3.701  49.798  1.00  0.00     0.153 C 
BRANCH  20  21
HETATM   21  C6  UNL     1      26.417   4.929  49.135  1.00  0.00     0.292 C 
BRANCH  21  22
HETATM   22  N2  UNL     1      25.233   5.442  49.850  1.00  0.00     0.094 N 
HETATM   23  C7  UNL     1      24.001   5.134  49.209  1.00  0.00     0.298 C 
HETATM   24  C8  UNL     1      23.261   6.447  48.934  1.00  0.00     0.198 C 
HETATM   25  O2  UNL     1      23.074   7.201  50.081  1.00  0.00    -0.388 OA
HETATM   26  C9  UNL     1      24.199   7.373  50.852  1.00  0.00     0.198 C 
HETATM   27  C10 UNL     1      25.411   6.847  50.173  1.00  0.00     0.298 C 
ENDBRANCH  21  22
ENDBRANCH  20  21
ENDBRANCH  18  20
ENDBRANCH   3  16
BRANCH  11  28
HETATM   28  N3  UNL     1      22.743  -1.175  53.067  1.00  0.00    -0.205 NA
BRANCH  28  29
HETATM   29  C18 UNL     1      21.841  -1.590  53.889  1.00  0.00     0.337 C 
HETATM   30  O3  UNL     1      21.158  -1.714  54.931  1.00  0.00    -0.260 OA
ENDBRANCH  28  29
ENDBRANCH  11  28
TORSDOF 6
ENDMDL
MODEL 3
REMARK VINA RESULT:      -7.7      2.887      7.854
REMARK  6 active torsions:
REMARK  status: ('A' for Active; 'I' for Inactive)
REMARK    1  A    between atoms: C3_3  and  C4_4 
REMARK       I    between atoms: C4_4  and  N1_6 
REMARK    2  A    between atoms: N1_6  and  C5_7 
REMARK    3  A    between atoms: C5_7  and  C6_8 
REMARK    4  A    between atoms: C6_8  and  N2_9 
REMARK    5  A    between atoms: C17_22  and  N3_23 
REMARK    6  A    between atoms: N3_23  and  C18_24 
ROOT
HETATM    1  C1  UNL     1      22.950   3.556  48.234  1.00  0.00     0.069 C 
HETATM    2  C2  UNL     1      23.611   3.075  49.461  1.00  0.00     0.018 C 
HETATM    3  C3  UNL     1      23.167   2.292  50.431  1.00  0.00     0.064 C 
HETATM    4  C11 UNL     1      23.989   1.846  51.538  1.00  0.00    -0.008 C 
HETATM    5  C12 UNL     1      23.633   1.014  52.649  1.00  0.00     0.007 A 
HETATM    6  C13 UNL     1      22.483   0.814  53.368  1.00  0.00     0.057 A 
HETATM    7  C14 UNL     1      22.129  -0.067  54.351  1.00  0.00     0.117 A 
HETATM    8  F1  UNL     1      20.891  -0.025  54.883  1.00  0.00    -0.206 F 
HETATM    9  C15 UNL     1      23.130  -0.943  54.702  1.00  0.00     0.044 A 
HETATM   10  C16 UNL     1      24.380  -0.894  54.080  1.00  0.00     0.036 A 
HETATM   11  C17 UNL     1      24.570   0.059  53.103  1.00  0.00     0.072 A 
HETATM   12  C19 UNL     1      25.258   2.229  51.572  1.00  0.00     0.006 C 
HETATM   13  C20 UNL     1      25.920   3.077  50.571  1.00  0.00     0.147 C 
HETATM   14  N4  UNL     1      24.954   3.536  49.635  1.00  0.00    -0.389 N 
HETATM   15  H23 UNL     1      25.354   4.291  49.053  1.00  0.00     0.159 HD
ENDROOT
BRANCH   3  16
HETATM   16  C4  UNL     1      21.835   1.883  50.192  1.00  0.00     0.254 C 
HETATM   17  O1  UNL     1      21.601   0.701  49.799  1.00  0.00    -0.268 OA
HETATM   18  N1  UNL     1      20.464   2.069  50.144  1.00  0.00    -0.355 N 
HETATM   19  H4  UNL     1      20.289   3.027  50.502  1.00  0.00     0.162 HD
BRANCH  18  20
HETATM   20  C5  UNL     1      19.489   1.145  49.751  1.00  0.00     0.153 C 
BRANCH  20  21
HETATM   21  C6  UNL     1      18.126   1.161  50.252  1.00  0.00     0.292 C 
BRANCH  21  22
HETATM   22  N2  UNL     1      17.930  -0.081  51.023  1.00  0.00     0.094 N 
HETATM   23  C7  UNL     1      16.566  -0.466  51.148  1.00  0.00     0.298 C 
HETATM   24  C8  UNL     1      16.234  -0.578  52.640  1.00  0.00     0.198 C 
HETATM   25  O2  UNL     1      17.081  -1.446  53.309  1.00  0.00    -0.388 OA
HETATM   26  C9  UNL     1      18.421  -1.246  53.074  1.00  0.00     0.198 C 
HETATM   27  C10 UNL     1      18.656  -0.013  52.279  1.00  0.00     0.298 C 
ENDBRANCH  21  22
ENDBRANCH  20  21
ENDBRANCH  18  20
ENDBRANCH   3  16
BRANCH  11  28
HETATM   28  N3  UNL     1      25.912  -0.134  52.608  1.00  0.00    -0.205 NA
BRANCH  28  29
HETATM   29  C18 UNL     1      26.408  -1.302  52.830  1.00  0.00     0.337 C 
HETATM   30  O3  UNL     1      27.242  -2.228  52.959  1.00  0.00    -0.260 OA
ENDBRANCH  28  29
ENDBRANCH  11  28
TORSDOF 6
ENDMDL
MODEL 4
REMARK VINA RESULT:      -7.6      2.366      4.410
REMARK  6 active torsions:
REMARK  status: ('A' for Active; 'I' for Inactive)
REMARK    1  A    between atoms: C3_3  and  C4_4 
REMARK       I    between atoms: C4_4  and  N1_6 
REMARK    2  A    between atoms: N1_6  and  C5_7 
REMARK    3  A    between atoms: C5_7  and  C6_8 
REMARK    4  A    between atoms: C6_8  and  N2_9 
REMARK    5  A    between atoms: C17_22  and  N3_23 
REMARK    6  A    between atoms: N3_23  and  C18_24 
ROOT
HETATM    1  C1  UNL     1      24.607   3.591  49.135  1.00  0.00     0.069 C 
HETATM    2  C2  UNL     1      23.411   2.754  49.338  1.00  0.00     0.018 C 
HETATM    3  C3  UNL     1      23.041   2.013  50.370  1.00  0.00     0.064 C 
HETATM    4  C11 UNL     1      21.774   1.310  50.437  1.00  0.00    -0.008 C 
HETATM    5  C12 UNL     1      21.260   0.474  51.480  1.00  0.00     0.007 A 
HETATM    6  C13 UNL     1      21.826  -0.374  52.397  1.00  0.00     0.057 A 
HETATM    7  C14 UNL     1      21.332  -1.075  53.460  1.00  0.00     0.117 A 
HETATM    8  F1  UNL     1      22.152  -1.847  54.202  1.00  0.00    -0.206 F 
HETATM    9  C15 UNL     1      19.982  -0.904  53.662  1.00  0.00     0.044 A 
HETATM   10  C16 UNL     1      19.227  -0.076  52.827  1.00  0.00     0.036 A 
HETATM   11  C17 UNL     1      19.886   0.562  51.798  1.00  0.00     0.072 A 
HETATM   12  C19 UNL     1      20.936   1.431  49.417  1.00  0.00     0.006 C 
HETATM   13  C20 UNL     1      21.174   2.226  48.205  1.00  0.00     0.147 C 
HETATM   14  N4  UNL     1      22.501   2.735  48.234  1.00  0.00    -0.389 N 
HETATM   15  H23 UNL     1      22.755   3.117  47.308  1.00  0.00     0.159 HD
ENDROOT
BRANCH   3  16
HETATM   16  C4  UNL     1      23.989   2.077  51.416  1.00  0.00     0.254 C 
HETATM   17  O1  UNL     1      23.720   2.727  52.471  1.00  0.00    -0.268 OA
HETATM   18  N1  UNL     1      25.203   1.790  52.017  1.00  0.00    -0.355 N 
HETATM   19  H4  UNL     1      25.702   1.151  51.369  1.00  0.00     0.162 HD
BRANCH  18  20
HETATM   20  C5  UNL     1      25.659   2.214  53.270  1.00  0.00     0.153 C 
BRANCH  20  21
HETATM   21  C6  UNL     1      27.030   2.047  53.719  1.00  0.00     0.292 C 
BRANCH  21  22
HETATM   22  N2  UNL     1      27.238   0.606  53.957  1.00  0.00     0.094 N 
HETATM   23  C7  UNL     1      28.338   0.322  54.813  1.00  0.00     0.298 C 
HETATM   24  C8  UNL     1      29.304  -0.602  54.063  1.00  0.00     0.198 C 
HETATM   25  O2  UNL     1      28.689  -1.756  53.608  1.00  0.00    -0.388 OA
HETATM   26  C9  UNL     1      27.508  -1.558  52.934  1.00  0.00     0.198 C 
HETATM   27  C10 UNL     1      27.252  -0.114  52.695  1.00  0.00     0.298 C 
ENDBRANCH  21  22
ENDBRANCH  20  21
ENDBRANCH  18  20
ENDBRANCH   3  16
BRANCH  11  28
HETATM   28  N3  UNL     1      18.897   1.369  51.126  1.00  0.00    -0.205 NA
BRANCH  28  29
HETATM   29  C18 UNL     1      18.604   2.474  51.722  1.00  0.00     0.337 C 
HETATM   30  O3  UNL     1      17.983   3.510  52.054  1.00  0.00    -0.260 OA
ENDBRANCH  28  29
ENDBRANCH  11  28
TORSDOF 6
ENDMDL
MODEL 5
REMARK VINA RESULT:      -7.6      2.618      6.013
REMARK  6 active torsions:
REMARK  status: ('A' for Active; 'I' for Inactive)
REMARK    1  A    between atoms: C3_3  and  C4_4 
REMARK       I    between atoms: C4_4  and  N1_6 
REMARK    2  A    between atoms: N1_6  and  C5_7 
REMARK    3  A    between atoms: C5_7  and  C6_8 
REMARK    4  A    between atoms: C6_8  and  N2_9 
REMARK    5  A    between atoms: C17_22  and  N3_23 
REMARK    6  A    between atoms: N3_23  and  C18_24 
ROOT
HETATM    1  C1  UNL     1      19.963   0.313  53.855  1.00  0.00     0.069 C 
HETATM    2  C2  UNL     1      21.420   0.108  53.777  1.00  0.00     0.018 C 
HETATM    3  C3  UNL     1      22.357   0.799  53.150  1.00  0.00     0.064 C 
HETATM    4  C11 UNL     1      23.773   0.501  53.249  1.00  0.00    -0.008 C 
HETATM    5  C12 UNL     1      24.879   1.158  52.619  1.00  0.00     0.007 A 
HETATM    6  C13 UNL     1      25.057   1.806  51.424  1.00  0.00     0.057 A 
HETATM    7  C14 UNL     1      26.087   2.526  50.888  1.00  0.00     0.117 A 
HETATM    8  F1  UNL     1      25.971   3.060  49.656  1.00  0.00    -0.206 F 
HETATM    9  C15 UNL     1      27.184   2.629  51.713  1.00  0.00     0.044 A 
HETATM   10  C16 UNL     1      27.194   2.032  52.976  1.00  0.00     0.036 A 
HETATM   11  C17 UNL     1      26.066   1.340  53.363  1.00  0.00     0.072 A 
HETATM   12  C19 UNL     1      24.149  -0.507  54.023  1.00  0.00     0.006 C 
HETATM   13  C20 UNL     1      23.248  -1.364  54.805  1.00  0.00     0.147 C 
HETATM   14  N4  UNL     1      21.901  -1.033  54.495  1.00  0.00    -0.389 N 
HETATM   15  H23 UNL     1      21.262  -1.753  54.871  1.00  0.00     0.159 HD
ENDROOT
BRANCH   3  16
HETATM   16  C4  UNL     1      21.807   1.904  52.460  1.00  0.00     0.254 C 
HETATM   17  O1  UNL     1      21.658   1.849  51.203  1.00  0.00    -0.268 OA
HETATM   18  N1  UNL     1      21.264   3.174  52.374  1.00  0.00    -0.355 N 
HETATM   19  H4  UNL     1      21.182   3.520  53.350  1.00  0.00     0.162 HD
BRANCH  18  20
HETATM   20  C5  UNL     1      20.849   3.851  51.222  1.00  0.00     0.153 C 
BRANCH  20  21
HETATM   21  C6  UNL     1      21.297   5.188  50.876  1.00  0.00     0.292 C 
BRANCH  21  22
HETATM   22  N2  UNL     1      22.683   5.070  50.385  1.00  0.00     0.094 N 
HETATM   23  C7  UNL     1      23.664   5.414  51.357  1.00  0.00     0.298 C 
HETATM   24  C8  UNL     1      24.534   6.537  50.783  1.00  0.00     0.198 C 
HETATM   25  O2  UNL     1      25.105   6.199  49.567  1.00  0.00    -0.388 OA
HETATM   26  C9  UNL     1      24.233   5.674  48.643  1.00  0.00     0.198 C 
HETATM   27  C10 UNL     1      22.826   5.755  49.113  1.00  0.00     0.298 C 
ENDBRANCH  21  22
ENDBRANCH  20  21
ENDBRANCH  18  20
ENDBRANCH   3  16
BRANCH  11  28
HETATM   28  N3  UNL     1      26.326   0.866  54.701  1.00  0.00    -0.205 NA
BRANCH  28  29
HETATM   29  C18 UNL     1      27.477   0.310  54.865  1.00  0.00     0.337 C 
HETATM   30  O3  UNL     1      28.405  -0.530  54.802  1.00  0.00    -0.260 OA
ENDBRANCH  28  29
ENDBRANCH  11  28
TORSDOF 6
ENDMDL
MODEL 6
REMARK VINA RESULT:      -7.5      2.630      7.595
REMARK  6 active torsions:
REMARK  status: ('A' for Active; 'I' for Inactive)
REMARK    1  A    between atoms: C3_3  and  C4_4 
REMARK       I    between atoms: C4_4  and  N1_6 
REMARK    2  A    between atoms: N1_6  and  C5_7 
REMARK    3  A    between atoms: C5_7  and  C6_8 
REMARK    4  A    between atoms: C6_8  and  N2_9 
REMARK    5  A    between atoms: C17_22  and  N3_23 
REMARK    6  A    between atoms: N3_23  and  C18_24 
ROOT
HETATM    1  C1  UNL     1      26.336   3.968  49.340  1.00  0.00     0.069 C 
HETATM    2  C2  UNL     1      26.009   3.222  50.569  1.00  0.00     0.018 C 
HETATM    3  C3  UNL     1      24.867   2.700  50.984  1.00  0.00     0.064 C 
HETATM    4  C11 UNL     1      24.740   1.915  52.197  1.00  0.00    -0.008 C 
HETATM    5  C12 UNL     1      23.571   1.307  52.759  1.00  0.00     0.007 A 
HETATM    6  C13 UNL     1      22.237   1.624  52.775  1.00  0.00     0.057 A 
HETATM    7  C14 UNL     1      21.121   0.973  53.219  1.00  0.00     0.117 A 
HETATM    8  F1  UNL     1      19.908   1.549  53.095  1.00  0.00    -0.206 F 
HETATM    9  C15 UNL     1      21.376  -0.262  53.769  1.00  0.00     0.044 A 
HETATM   10  C16 UNL     1      22.679  -0.760  53.845  1.00  0.00     0.036 A 
HETATM   11  C17 UNL     1      23.694   0.028  53.347  1.00  0.00     0.072 A 
HETATM   12  C19 UNL     1      25.829   1.696  52.919  1.00  0.00     0.006 C 
HETATM   13  C20 UNL     1      27.178   2.182  52.598  1.00  0.00     0.147 C 
HETATM   14  N4  UNL     1      27.109   3.038  51.465  1.00  0.00    -0.389 N 
HETATM   15  H23 UNL     1      28.001   3.548  51.351  1.00  0.00     0.159 HD
ENDROOT
BRANCH   3  16
HETATM   16  C4  UNL     1      23.829   2.926  50.051  1.00  0.00     0.254 C 
HETATM   17  O1  UNL     1      23.115   3.969  50.145  1.00  0.00    -0.268 OA
HETATM   18  N1  UNL     1      23.056   2.612  48.947  1.00  0.00    -0.355 N 
HETATM   19  H4  UNL     1      23.460   1.742  48.549  1.00  0.00     0.162 HD
BRANCH  18  20
HETATM   20  C5  UNL     1      21.981   3.337  48.421  1.00  0.00     0.153 C 
BRANCH  20  21
HETATM   21  C6  UNL     1      20.791   2.714  47.869  1.00  0.00     0.292 C 
BRANCH  21  22
HETATM   22  N2  UNL     1      19.649   3.141  48.701  1.00  0.00     0.094 N 
HETATM   23  C7  UNL     1      19.864   4.376  49.373  1.00  0.00     0.298 C 
HETATM   24  C8  UNL     1      19.685   4.141  50.877  1.00  0.00     0.198 C 
HETATM   25  O2  UNL     1      18.453   3.590  51.185  1.00  0.00    -0.388 OA
HETATM   26  C9  UNL     1      18.100   2.498  50.429  1.00  0.00     0.198 C 
HETATM   27  C10 UNL     1      19.219   2.052  49.560  1.00  0.00     0.298 C 
ENDBRANCH  21  22
ENDBRANCH  20  21
ENDBRANCH  18  20
ENDBRANCH   3  16
BRANCH  11  28
HETATM   28  N3  UNL     1      24.911  -0.730  53.513  1.00  0.00    -0.205 NA
BRANCH  28  29
HETATM   29  C18 UNL     1      25.220  -0.997  54.735  1.00  0.00     0.337 C 
HETATM   30  O3  UNL     1      25.556  -0.840  55.932  1.00  0.00    -0.260 OA
ENDBRANCH  28  29
ENDBRANCH  11  28
TORSDOF 6
ENDMDL
MODEL 7
REMARK VINA RESULT:      -7.4      2.195      2.605
REMARK  6 active torsions:
REMARK  status: ('A' for Active; 'I' for Inactive)
REMARK    1  A    between atoms: C3_3  and  C4_4 
REMARK       I    between atoms: C4_4  and  N1_6 
REMARK    2  A    between atoms: N1_6  and  C5_7 
REMARK    3  A    between atoms: C5_7  and  C6_8 
REMARK    4  A    between atoms: C6_8  and  N2_9 
REMARK    5  A    between atoms: C17_22  and  N3_23 
REMARK    6  A    between atoms: N3_23  and  C18_24 
ROOT
HETATM    1  C1  UNL     1      23.287  -0.529  53.741  1.00  0.00     0.069 C 
HETATM    2  C2  UNL     1      22.488   0.601  53.234  1.00  0.00     0.018 C 
HETATM    3  C3  UNL     1      22.863   1.762  52.723  1.00  0.00     0.064 C 
HETATM    4  C11 UNL     1      21.933   2.739  52.189  1.00  0.00    -0.008 C 
HETATM    5  C12 UNL     1      22.203   4.026  51.622  1.00  0.00     0.007 A 
HETATM    6  C13 UNL     1      23.154   4.990  51.837  1.00  0.00     0.057 A 
HETATM    7  C14 UNL     1      23.466   6.162  51.208  1.00  0.00     0.117 A 
HETATM    8  F1  UNL     1      24.485   6.921  51.658  1.00  0.00    -0.206 F 
HETATM    9  C15 UNL     1      22.660   6.447  50.130  1.00  0.00     0.044 A 
HETATM   10  C16 UNL     1      21.629   5.583  49.753  1.00  0.00     0.036 A 
HETATM   11  C17 UNL     1      21.452   4.438  50.498  1.00  0.00     0.072 A 
HETATM   12  C19 UNL     1      20.640   2.444  52.199  1.00  0.00     0.006 C 
HETATM   13  C20 UNL     1      20.053   1.197  52.707  1.00  0.00     0.147 C 
HETATM   14  N4  UNL     1      21.072   0.414  53.313  1.00  0.00    -0.389 N 
HETATM   15  H23 UNL     1      20.651  -0.360  53.854  1.00  0.00     0.159 HD
ENDROOT
BRANCH   3  16
HETATM   16  C4  UNL     1      24.271   1.877  52.682  1.00  0.00     0.254 C 
HETATM   17  O1  UNL     1      24.896   1.576  51.622  1.00  0.00    -0.268 OA
HETATM   18  N1  UNL     1      25.512   2.175  53.217  1.00  0.00    -0.355 N 
HETATM   19  H4  UNL     1      25.335   2.551  54.168  1.00  0.00     0.162 HD
BRANCH  18  20
HETATM   20  C5  UNL     1      26.761   2.059  52.597  1.00  0.00     0.153 C 
BRANCH  20  21
HETATM   21  C6  UNL     1      27.970   1.668  53.301  1.00  0.00     0.292 C 
BRANCH  21  22
HETATM   22  N2  UNL     1      27.834   0.237  53.638  1.00  0.00     0.094 N 
HETATM   23  C7  UNL     1      28.992  -0.316  54.253  1.00  0.00     0.298 C 
HETATM   24  C8  UNL     1      29.460  -1.506  53.409  1.00  0.00     0.198 C 
HETATM   25  O2  UNL     1      28.466  -2.454  53.229  1.00  0.00    -0.388 OA
HETATM   26  C9  UNL     1      27.254  -1.952  52.817  1.00  0.00     0.198 C 
HETATM   27  C10 UNL     1      27.346  -0.505  52.489  1.00  0.00     0.298 C 
ENDBRANCH  21  22
ENDBRANCH  20  21
ENDBRANCH  18  20
ENDBRANCH   3  16
BRANCH  11  28
HETATM   28  N3  UNL     1      20.364   3.720  49.879  1.00  0.00    -0.205 NA
BRANCH  28  29
HETATM   29  C18 UNL     1      20.559   3.398  48.646  1.00  0.00     0.337 C 
HETATM   30  O3  UNL     1      20.526   2.753  47.573  1.00  0.00    -0.260 OA
ENDBRANCH  28  29
ENDBRANCH  11  28
TORSDOF 6
ENDMDL
MODEL 8
REMARK VINA RESULT:      -7.3      2.722      3.580
REMARK  6 active torsions:
REMARK  status: ('A' for Active; 'I' for Inactive)
REMARK    1  A    between atoms: C3_3  and  C4_4 
REMARK       I    between atoms: C4_4  and  N1_6 
REMARK    2  A    between atoms: N1_6  and  C5_7 
REMARK    3  A    between atoms: C5_7  and  C6_8 
REMARK    4  A    between atoms: C6_8  and  N2_9 
REMARK    5  A    between atoms: C17_22  and  N3_23 
REMARK    6  A    between atoms: N3_23  and  C18_24 
ROOT
HETATM    1  C1  UNL     1      21.783  -1.739  54.577  1.00  0.00     0.069 C 
HETATM    2  C2  UNL     1      20.635  -1.143  53.869  1.00  0.00     0.018 C 
HETATM    3  C3  UNL     1      20.565  -0.090  53.072  1.00  0.00     0.064 C 
HETATM    4  C11 UNL     1      19.354   0.313  52.384  1.00  0.00    -0.008 C 
HETATM    5  C12 UNL     1      19.143   1.428  51.509  1.00  0.00     0.007 A 
HETATM    6  C13 UNL     1      19.662   2.694  51.423  1.00  0.00     0.057 A 
HETATM    7  C14 UNL     1      19.533   3.704  50.513  1.00  0.00     0.117 A 
HETATM    8  F1  UNL     1      20.185   4.869  50.699  1.00  0.00    -0.206 F 
HETATM    9  C15 UNL     1      18.709   3.399  49.454  1.00  0.00     0.044 A 
HETATM   10  C16 UNL     1      18.082   2.154  49.365  1.00  0.00     0.036 A 
HETATM   11  C17 UNL     1      18.323   1.245  50.372  1.00  0.00     0.072 A 
HETATM   12  C19 UNL     1      18.264  -0.422  52.551  1.00  0.00     0.006 C 
HETATM   13  C20 UNL     1      18.168  -1.630  53.380  1.00  0.00     0.147 C 
HETATM   14  N4  UNL     1      19.388  -1.810  54.086  1.00  0.00    -0.389 N 
HETATM   15  H23 UNL     1      19.270  -2.526  54.823  1.00  0.00     0.159 HD
ENDROOT
BRANCH   3  16
HETATM   16  C4  UNL     1      21.831   0.518  52.911  1.00  0.00     0.254 C 
HETATM   17  O1  UNL     1      22.490   0.326  51.845  1.00  0.00    -0.268 OA
HETATM   18  N1  UNL     1      22.892   1.312  53.312  1.00  0.00    -0.355 N 
HETATM   19  H4  UNL     1      22.619   1.720  54.226  1.00  0.00     0.162 HD
BRANCH  18  20
HETATM   20  C5  UNL     1      24.076   1.573  52.614  1.00  0.00     0.153 C 
BRANCH  20  21
HETATM   21  C6  UNL     1      25.361   1.764  53.263  1.00  0.00     0.292 C 
BRANCH  21  22
HETATM   22  N2  UNL     1      25.894   0.425  53.577  1.00  0.00     0.094 N 
HETATM   23  C7  UNL     1      26.866   0.426  54.616  1.00  0.00     0.298 C 
HETATM   24  C8  UNL     1      28.153  -0.200  54.071  1.00  0.00     0.198 C 
HETATM   25  O2  UNL     1      27.949  -1.469  53.554  1.00  0.00    -0.388 OA
HETATM   26  C9  UNL     1      26.892  -1.577  52.682  1.00  0.00     0.198 C 
HETATM   27  C10 UNL     1      26.313  -0.247  52.359  1.00  0.00     0.298 C 
ENDBRANCH  21  22
ENDBRANCH  20  21
ENDBRANCH  18  20
ENDBRANCH   3  16
BRANCH  11  28
HETATM   28  N3  UNL     1      17.597   0.049  50.017  1.00  0.00    -0.205 NA
BRANCH  28  29
HETATM   29  C18 UNL     1      16.446   0.255  49.475  1.00  0.00     0.337 C 
HETATM   30  O3  UNL     1      15.274   0.062  49.078  1.00  0.00    -0.260 OA
ENDBRANCH  28  29
ENDBRANCH  11  28
TORSDOF 6
ENDMDL
MODEL 9
REMARK VINA RESULT:      -7.2      2.943      7.858
REMARK  6 active torsions:
REMARK  status: ('A' for Active; 'I' for Inactive)
REMARK    1  A    between atoms: C3_3  and  C4_4 
REMARK       I    between atoms: C4_4  and  N1_6 
REMARK    2  A    between atoms: N1_6  and  C5_7 
REMARK    3  A    between atoms: C5_7  and  C6_8 
REMARK    4  A    between atoms: C6_8  and  N2_9 
REMARK    5  A    between atoms: C17_22  and  N3_23 
REMARK    6  A    between atoms: N3_23  and  C18_24 
ROOT
HETATM    1  C1  UNL     1      26.574   3.842  49.388  1.00  0.00     0.069 C 
HETATM    2  C2  UNL     1      26.109   3.160  50.610  1.00  0.00     0.018 C 
HETATM    3  C3  UNL     1      24.906   2.732  50.955  1.00  0.00     0.064 C 
HETATM    4  C11 UNL     1      24.638   1.998  52.176  1.00  0.00    -0.008 C 
HETATM    5  C12 UNL     1      23.392   1.491  52.669  1.00  0.00     0.007 A 
HETATM    6  C13 UNL     1      22.086   1.900  52.581  1.00  0.00     0.057 A 
HETATM    7  C14 UNL     1      20.898   1.343  52.959  1.00  0.00     0.117 A 
HETATM    8  F1  UNL     1      19.741   1.998  52.734  1.00  0.00    -0.206 F 
HETATM    9  C15 UNL     1      21.025   0.112  53.560  1.00  0.00     0.044 A 
HETATM   10  C16 UNL     1      22.280  -0.474  53.743  1.00  0.00     0.036 A 
HETATM   11  C17 UNL     1      23.382   0.225  53.298  1.00  0.00     0.072 A 
HETATM   12  C19 UNL     1      25.656   1.726  52.982  1.00  0.00     0.006 C 
HETATM   13  C20 UNL     1      27.055   2.106  52.745  1.00  0.00     0.147 C 
HETATM   14  N4  UNL     1      27.127   2.929  51.588  1.00  0.00    -0.389 N 
HETATM   15  H23 UNL     1      28.059   3.371  51.525  1.00  0.00     0.159 HD
ENDROOT
BRANCH   3  16
HETATM   16  C4  UNL     1      23.955   3.001  49.944  1.00  0.00     0.254 C 
HETATM   17  O1  UNL     1      23.245   4.048  50.011  1.00  0.00    -0.268 OA
HETATM   18  N1  UNL     1      23.278   2.731  48.768  1.00  0.00    -0.355 N 
HETATM   19  H4  UNL     1      23.707   1.869  48.378  1.00  0.00     0.162 HD
BRANCH  18  20
HETATM   20  C5  UNL     1      22.259   3.485  48.175  1.00  0.00     0.153 C 
BRANCH  20  21
HETATM   21  C6  UNL     1      21.888   3.366  46.776  1.00  0.00     0.292 C 
BRANCH  21  22
HETATM   22  N2  UNL     1      21.343   4.672  46.357  1.00  0.00     0.094 N 
HETATM   23  C7  UNL     1      22.029   5.249  45.252  1.00  0.00     0.298 C 
HETATM   24  C8  UNL     1      22.536   6.632  45.671  1.00  0.00     0.198 C 
HETATM   25  O2  UNL     1      21.521   7.452  46.136  1.00  0.00    -0.388 OA
HETATM   26  C9  UNL     1      20.698   6.879  47.075  1.00  0.00     0.198 C 
HETATM   27  C10 UNL     1      21.203   5.550  47.506  1.00  0.00     0.298 C 
ENDBRANCH  21  22
ENDBRANCH  20  21
ENDBRANCH  18  20
ENDBRANCH   3  16
BRANCH  11  28
HETATM   28  N3  UNL     1      24.526  -0.610  53.572  1.00  0.00    -0.205 NA
BRANCH  28  29
HETATM   29  C18 UNL     1      24.661  -0.957  54.806  1.00  0.00     0.337 C 
HETATM   30  O3  UNL     1      25.195  -1.257  55.899  1.00  0.00    -0.260 OA
ENDBRANCH  28  29
ENDBRANCH  11  28
TORSDOF 6
ENDMDL
