MODEL 1
REMARK VINA RESULT:      -8.3      0.000      0.000
REMARK  2 active torsions:
REMARK  status: ('A' for Active; 'I' for Inactive)
REMARK    1  A    between atoms: C4_7  and  N4_8 
REMARK    2  A    between atoms: N4_8  and  C5_9 
ROOT
HETATM    1  C1  UNL     1      20.183  -0.401  53.811  1.00  0.00     0.102 C 
HETATM    2  C2  UNL     1      21.035  -1.401  53.871  1.00  0.00     0.132 C 
HETATM    3  N1  UNL     1      22.433  -1.134  54.053  1.00  0.00    -0.248 N 
HETATM    4  N2  UNL     1      22.761  -1.503  55.371  1.00  0.00    -0.164 NA
HETATM    5  C3  UNL     1      23.997  -1.314  55.762  1.00  0.00     0.257 A 
HETATM    6  N3  UNL     1      24.957  -0.757  54.882  1.00  0.00    -0.223 NA
HETATM    7  C4  UNL     1      24.673  -0.407  53.651  1.00  0.00     0.150 A 
HETATM    8  C11 UNL     1      23.359  -0.586  53.060  1.00  0.00     0.275 A 
HETATM    9  N5  UNL     1      22.840   0.445  52.273  1.00  0.00    -0.385 N 
HETATM   10  C12 UNL     1      22.955   1.792  52.605  1.00  0.00     0.121 C 
HETATM   11  C13 UNL     1      21.654   2.570  52.557  1.00  0.00     0.044 C 
HETATM   12  C14 UNL     1      20.458   1.645  52.612  1.00  0.00     0.084 C 
HETATM   13  C15 UNL     1      20.513   0.680  51.451  1.00  0.00     0.044 C 
HETATM   14  C16 UNL     1      21.889   0.082  51.281  1.00  0.00     0.121 C 
HETATM   15  N6  UNL     1      20.452   1.008  53.903  1.00  0.00    -0.393 N 
HETATM   16  H20 UNL     1      20.644   1.688  54.685  1.00  0.00     0.159 HD
ENDROOT
BRANCH   7  17
HETATM   17  N4  UNL     1      25.797   0.132  52.956  1.00  0.00    -0.341 N 
HETATM   18  H4  UNL     1      25.557   0.917  52.269  1.00  0.00     0.167 HD
BRANCH  17  19
HETATM   19  C5  UNL     1      27.125  -0.336  53.157  1.00  0.00     0.033 A 
HETATM   20  C6  UNL     1      28.008   0.600  53.652  1.00  0.00     0.029 A 
HETATM   21  C7  UNL     1      29.319   0.248  53.884  1.00  0.00     0.002 A 
HETATM   22  C8  UNL     1      29.793  -1.035  53.632  1.00  0.00     0.000 A 
HETATM   23  C9  UNL     1      28.931  -1.994  53.136  1.00  0.00     0.002 A 
HETATM   24  C10 UNL     1      27.606  -1.598  52.914  1.00  0.00     0.029 A 
ENDBRANCH  17  19
ENDBRANCH   7  17
TORSDOF 2
ENDMDL
MODEL 2
REMARK VINA RESULT:      -7.9      1.681      2.480
REMARK  2 active torsions:
REMARK  status: ('A' for Active; 'I' for Inactive)
REMARK    1  A    between atoms: C4_7  and  N4_8 
REMARK    2  A    between atoms: N4_8  and  C5_9 
ROOT
HETATM    1  C1  UNL     1      21.325   2.168  50.928  1.00  0.00     0.102 C 
HETATM    2  C2  UNL     1      21.849   0.961  50.904  1.00  0.00     0.132 C 
HETATM    3  N1  UNL     1      22.733   0.550  51.956  1.00  0.00    -0.248 N 
HETATM    4  N2  UNL     1      22.031  -0.375  52.754  1.00  0.00    -0.164 NA
HETATM    5  C3  UNL     1      22.650  -0.862  53.800  1.00  0.00     0.257 A 
HETATM    6  N3  UNL     1      23.975  -0.465  54.108  1.00  0.00    -0.223 NA
HETATM    7  C4  UNL     1      24.646   0.394  53.379  1.00  0.00     0.150 A 
HETATM    8  C11 UNL     1      24.111   0.995  52.171  1.00  0.00     0.275 A 
HETATM    9  N5  UNL     1      24.334   2.357  51.952  1.00  0.00    -0.385 N 
HETATM   10  C12 UNL     1      24.241   3.316  52.957  1.00  0.00     0.121 C 
HETATM   11  C13 UNL     1      23.378   4.514  52.612  1.00  0.00     0.044 C 
HETATM   12  C14 UNL     1      22.445   4.206  51.461  1.00  0.00     0.084 C 
HETATM   13  C15 UNL     1      23.254   3.801  50.251  1.00  0.00     0.044 C 
HETATM   14  C16 UNL     1      24.331   2.802  50.603  1.00  0.00     0.121 C 
HETATM   15  N6  UNL     1      21.513   3.204  51.906  1.00  0.00    -0.393 N 
HETATM   16  H20 UNL     1      21.133   3.409  52.867  1.00  0.00     0.159 HD
ENDROOT
BRANCH   7  17
HETATM   17  N4  UNL     1      25.957   0.641  53.884  1.00  0.00    -0.341 N 
HETATM   18  H4  UNL     1      26.048   1.542  54.456  1.00  0.00     0.167 HD
BRANCH  17  19
HETATM   19  C5  UNL     1      27.053  -0.233  53.647  1.00  0.00     0.033 A 
HETATM   20  C6  UNL     1      28.247   0.153  54.219  1.00  0.00     0.029 A 
HETATM   21  C7  UNL     1      29.370  -0.625  54.050  1.00  0.00     0.002 A 
HETATM   22  C8  UNL     1      29.346  -1.803  53.312  1.00  0.00     0.000 A 
HETATM   23  C9  UNL     1      28.164  -2.215  52.727  1.00  0.00     0.002 A 
HETATM   24  C10 UNL     1      27.043  -1.398  52.922  1.00  0.00     0.029 A 
ENDBRANCH  17  19
ENDBRANCH   7  17
TORSDOF 2
ENDMDL
MODEL 3
REMARK VINA RESULT:      -7.9      1.744      6.761
REMARK  2 active torsions:
REMARK  status: ('A' for Active; 'I' for Inactive)
REMARK    1  A    between atoms: C4_7  and  N4_8 
REMARK    2  A    between atoms: N4_8  and  C5_9 
ROOT
HETATM    1  C1  UNL     1      27.548   2.107  52.628  1.00  0.00     0.102 C 
HETATM    2  C2  UNL     1      26.622   2.218  51.699  1.00  0.00     0.132 C 
HETATM    3  N1  UNL     1      25.244   2.017  52.043  1.00  0.00    -0.248 N 
HETATM    4  N2  UNL     1      24.621   3.280  52.029  1.00  0.00    -0.164 NA
HETATM    5  C3  UNL     1      23.352   3.331  52.346  1.00  0.00     0.257 A 
HETATM    6  N3  UNL     1      22.643   2.154  52.688  1.00  0.00    -0.223 NA
HETATM    7  C4  UNL     1      23.202   0.968  52.708  1.00  0.00     0.150 A 
HETATM    8  C11 UNL     1      24.591   0.742  52.348  1.00  0.00     0.275 A 
HETATM    9  N5  UNL     1      25.345  -0.136  53.131  1.00  0.00    -0.385 N 
HETATM   10  C12 UNL     1      25.275  -0.172  54.521  1.00  0.00     0.121 C 
HETATM   11  C13 UNL     1      26.617  -0.118  55.224  1.00  0.00     0.044 C 
HETATM   12  C14 UNL     1      27.696   0.421  54.310  1.00  0.00     0.084 C 
HETATM   13  C15 UNL     1      27.802  -0.457  53.085  1.00  0.00     0.044 C 
HETATM   14  C16 UNL     1      26.446  -0.776  52.501  1.00  0.00     0.121 C 
HETATM   15  N6  UNL     1      27.383   1.795  54.021  1.00  0.00    -0.393 N 
HETATM   16  H20 UNL     1      27.090   2.328  54.882  1.00  0.00     0.159 HD
ENDROOT
BRANCH   7  17
HETATM   17  N4  UNL     1      22.294  -0.066  53.084  1.00  0.00    -0.341 N 
HETATM   18  H4  UNL     1      22.712  -0.805  53.736  1.00  0.00     0.167 HD
BRANCH  17  19
HETATM   19  C5  UNL     1      20.947  -0.113  52.630  1.00  0.00     0.033 A 
HETATM   20  C6  UNL     1      20.058  -0.716  53.494  1.00  0.00     0.029 A 
HETATM   21  C7  UNL     1      18.728  -0.812  53.149  1.00  0.00     0.002 A 
HETATM   22  C8  UNL     1      18.241  -0.316  51.945  1.00  0.00     0.000 A 
HETATM   23  C9  UNL     1      19.110   0.294  51.060  1.00  0.00     0.002 A 
HETATM   24  C10 UNL     1      20.453   0.373  51.446  1.00  0.00     0.029 A 
ENDBRANCH  17  19
ENDBRANCH   7  17
TORSDOF 2
ENDMDL
MODEL 4
REMARK VINA RESULT:      -7.7      2.484      4.152
REMARK  2 active torsions:
REMARK  status: ('A' for Active; 'I' for Inactive)
REMARK    1  A    between atoms: C4_7  and  N4_8 
REMARK    2  A    between atoms: N4_8  and  C5_9 
ROOT
HETATM    1  C1  UNL     1      22.084   2.989  49.619  1.00  0.00     0.102 C 
HETATM    2  C2  UNL     1      23.029   3.890  49.784  1.00  0.00     0.132 C 
HETATM    3  N1  UNL     1      24.297   3.497  50.329  1.00  0.00    -0.248 N 
HETATM    4  N2  UNL     1      25.230   3.520  49.274  1.00  0.00    -0.164 NA
HETATM    5  C3  UNL     1      26.460   3.163  49.548  1.00  0.00     0.257 A 
HETATM    6  N3  UNL     1      26.825   2.772  50.860  1.00  0.00    -0.223 NA
HETATM    7  C4  UNL     1      25.974   2.743  51.856  1.00  0.00     0.150 A 
HETATM    8  C11 UNL     1      24.584   3.142  51.720  1.00  0.00     0.275 A 
HETATM    9  N5  UNL     1      23.606   2.364  52.346  1.00  0.00    -0.385 N 
HETATM   10  C12 UNL     1      23.629   0.973  52.356  1.00  0.00     0.121 C 
HETATM   11  C13 UNL     1      22.331   0.314  51.931  1.00  0.00     0.044 C 
HETATM   12  C14 UNL     1      21.456   1.275  51.156  1.00  0.00     0.084 C 
HETATM   13  C15 UNL     1      21.153   2.482  52.012  1.00  0.00     0.044 C 
HETATM   14  C16 UNL     1      22.391   3.014  52.693  1.00  0.00     0.121 C 
HETATM   15  N6  UNL     1      22.126   1.585  49.921  1.00  0.00    -0.393 N 
HETATM   16  H20 UNL     1      22.527   0.727  49.458  1.00  0.00     0.159 HD
ENDROOT
BRANCH   7  17
HETATM   17  N4  UNL     1      26.568   2.314  53.080  1.00  0.00    -0.341 N 
HETATM   18  H4  UNL     1      26.346   2.938  53.921  1.00  0.00     0.167 HD
BRANCH  17  19
HETATM   19  C5  UNL     1      27.389   1.157  53.175  1.00  0.00     0.033 A 
HETATM   20  C6  UNL     1      28.682   1.388  53.594  1.00  0.00     0.029 A 
HETATM   21  C7  UNL     1      29.558   0.333  53.721  1.00  0.00     0.002 A 
HETATM   22  C8  UNL     1      29.183  -0.975  53.437  1.00  0.00     0.000 A 
HETATM   23  C9  UNL     1      27.893  -1.237  53.016  1.00  0.00     0.002 A 
HETATM   24  C10 UNL     1      27.031  -0.139  52.900  1.00  0.00     0.029 A 
ENDBRANCH  17  19
ENDBRANCH   7  17
TORSDOF 2
ENDMDL
MODEL 5
REMARK VINA RESULT:      -7.5      4.282      6.285
REMARK  2 active torsions:
REMARK  status: ('A' for Active; 'I' for Inactive)
REMARK    1  A    between atoms: C4_7  and  N4_8 
REMARK    2  A    between atoms: N4_8  and  C5_9 
ROOT
HETATM    1  C1  UNL     1      23.599   0.542  53.510  1.00  0.00     0.102 C 
HETATM    2  C2  UNL     1      23.274   1.737  53.065  1.00  0.00     0.132 C 
HETATM    3  N1  UNL     1      23.815   2.202  51.821  1.00  0.00    -0.248 N 
HETATM    4  N2  UNL     1      22.771   2.177  50.876  1.00  0.00    -0.164 NA
HETATM    5  C3  UNL     1      23.056   2.539  49.650  1.00  0.00     0.257 A 
HETATM    6  N3  UNL     1      24.368   2.941  49.301  1.00  0.00    -0.223 NA
HETATM    7  C4  UNL     1      25.355   2.973  50.164  1.00  0.00     0.150 A 
HETATM    8  C11 UNL     1      25.191   2.633  51.566  1.00  0.00     0.275 A 
HETATM    9  N5  UNL     1      26.177   1.856  52.180  1.00  0.00    -0.385 N 
HETATM   10  C12 UNL     1      26.780   0.762  51.567  1.00  0.00     0.121 C 
HETATM   11  C13 UNL     1      26.799  -0.502  52.403  1.00  0.00     0.044 C 
HETATM   12  C14 UNL     1      25.773  -0.444  53.513  1.00  0.00     0.084 C 
HETATM   13  C15 UNL     1      26.053   0.750  54.395  1.00  0.00     0.044 C 
HETATM   14  C16 UNL     1      26.324   1.997  53.587  1.00  0.00     0.121 C 
HETATM   15  N6  UNL     1      24.468  -0.430  52.906  1.00  0.00    -0.393 N 
HETATM   16  H20 UNL     1      24.381  -1.137  52.129  1.00  0.00     0.159 HD
ENDROOT
BRANCH   7  17
HETATM   17  N4  UNL     1      26.584   3.406  49.583  1.00  0.00    -0.341 N 
HETATM   18  H4  UNL     1      27.329   2.641  49.505  1.00  0.00     0.167 HD
BRANCH  17  19
HETATM   19  C5  UNL     1      26.803   4.741  49.148  1.00  0.00     0.033 A 
HETATM   20  C6  UNL     1      28.018   4.968  48.536  1.00  0.00     0.029 A 
HETATM   21  C7  UNL     1      28.328   6.228  48.076  1.00  0.00     0.002 A 
HETATM   22  C8  UNL     1      27.450   7.298  48.208  1.00  0.00     0.000 A 
HETATM   23  C9  UNL     1      26.225   7.101  48.817  1.00  0.00     0.002 A 
HETATM   24  C10 UNL     1      25.945   5.805  49.270  1.00  0.00     0.029 A 
ENDBRANCH  17  19
ENDBRANCH   7  17
TORSDOF 2
ENDMDL
MODEL 6
REMARK VINA RESULT:      -7.3      2.681      4.285
REMARK  2 active torsions:
REMARK  status: ('A' for Active; 'I' for Inactive)
REMARK    1  A    between atoms: C4_7  and  N4_8 
REMARK    2  A    between atoms: N4_8  and  C5_9 
ROOT
HETATM    1  C1  UNL     1      22.455   3.728  48.792  1.00  0.00     0.102 C 
HETATM    2  C2  UNL     1      22.671   2.430  48.818  1.00  0.00     0.132 C 
HETATM    3  N1  UNL     1      22.693   1.740  50.076  1.00  0.00    -0.248 N 
HETATM    4  N2  UNL     1      21.509   0.983  50.158  1.00  0.00    -0.164 NA
HETATM    5  C3  UNL     1      21.310   0.289  51.251  1.00  0.00     0.257 A 
HETATM    6  N3  UNL     1      22.258   0.307  52.302  1.00  0.00    -0.223 NA
HETATM    7  C4  UNL     1      23.367   1.004  52.247  1.00  0.00     0.150 A 
HETATM    8  C11 UNL     1      23.747   1.796  51.091  1.00  0.00     0.275 A 
HETATM    9  N5  UNL     1      24.294   3.063  51.306  1.00  0.00    -0.385 N 
HETATM   10  C12 UNL     1      23.812   3.951  52.264  1.00  0.00     0.121 C 
HETATM   11  C13 UNL     1      23.538   5.351  51.751  1.00  0.00     0.044 C 
HETATM   12  C14 UNL     1      23.405   5.368  50.244  1.00  0.00     0.084 C 
HETATM   13  C15 UNL     1      24.675   4.840  49.620  1.00  0.00     0.044 C 
HETATM   14  C16 UNL     1      25.151   3.575  50.294  1.00  0.00     0.121 C 
HETATM   15  N6  UNL     1      22.226   4.618  49.897  1.00  0.00    -0.393 N 
HETATM   16  H20 UNL     1      21.405   4.856  50.514  1.00  0.00     0.159 HD
ENDROOT
BRANCH   7  17
HETATM   17  N4  UNL     1      24.164   0.869  53.423  1.00  0.00    -0.341 N 
HETATM   18  H4  UNL     1      23.645   1.084  54.335  1.00  0.00     0.167 HD
BRANCH  17  19
HETATM   19  C5  UNL     1      25.533   0.486  53.388  1.00  0.00     0.033 A 
HETATM   20  C6  UNL     1      25.774  -0.789  52.921  1.00  0.00     0.029 A 
HETATM   21  C7  UNL     1      27.066  -1.257  52.846  1.00  0.00     0.002 A 
HETATM   22  C8  UNL     1      28.155  -0.481  53.230  1.00  0.00     0.000 A 
HETATM   23  C9  UNL     1      27.944   0.801  53.701  1.00  0.00     0.002 A 
HETATM   24  C10 UNL     1      26.616   1.241  53.762  1.00  0.00     0.029 A 
ENDBRANCH  17  19
ENDBRANCH   7  17
TORSDOF 2
ENDMDL
MODEL 7
REMARK VINA RESULT:      -6.9      2.876      4.274
REMARK  2 active torsions:
REMARK  status: ('A' for Active; 'I' for Inactive)
REMARK    1  A    between atoms: C4_7  and  N4_8 
REMARK    2  A    between atoms: N4_8  and  C5_9 
ROOT
HETATM    1  C1  UNL     1      19.501   3.126  51.233  1.00  0.00     0.102 C 
HETATM    2  C2  UNL     1      20.291   3.573  52.184  1.00  0.00     0.132 C 
HETATM    3  N1  UNL     1      21.677   3.814  51.901  1.00  0.00    -0.248 N 
HETATM    4  N2  UNL     1      21.859   5.210  51.859  1.00  0.00    -0.164 NA
HETATM    5  C3  UNL     1      23.059   5.655  51.583  1.00  0.00     0.257 A 
HETATM    6  N3  UNL     1      24.126   4.756  51.339  1.00  0.00    -0.223 NA
HETATM    7  C4  UNL     1      23.980   3.454  51.373  1.00  0.00     0.150 A 
HETATM    8  C11 UNL     1      22.721   2.807  51.698  1.00  0.00     0.275 A 
HETATM    9  N5  UNL     1      22.331   1.696  50.945  1.00  0.00    -0.385 N 
HETATM   10  C12 UNL     1      22.482   1.620  49.563  1.00  0.00     0.121 C 
HETATM   11  C13 UNL     1      21.232   1.203  48.812  1.00  0.00     0.044 C 
HETATM   12  C14 UNL     1      19.992   1.405  49.654  1.00  0.00     0.084 C 
HETATM   13  C15 UNL     1      20.109   0.599  50.926  1.00  0.00     0.044 C 
HETATM   14  C16 UNL     1      21.463   0.764  51.574  1.00  0.00     0.121 C 
HETATM   15  N6  UNL     1      19.830   2.819  49.868  1.00  0.00    -0.393 N 
HETATM   16  H20 UNL     1      19.980   3.377  48.987  1.00  0.00     0.159 HD
ENDROOT
BRANCH   7  17
HETATM   17  N4  UNL     1      25.191   2.753  51.092  1.00  0.00    -0.341 N 
HETATM   18  H4  UNL     1      25.634   2.998  50.149  1.00  0.00     0.167 HD
BRANCH  17  19
HETATM   19  C5  UNL     1      25.760   1.807  51.987  1.00  0.00     0.033 A 
HETATM   20  C6  UNL     1      25.793   2.196  53.310  1.00  0.00     0.029 A 
HETATM   21  C7  UNL     1      26.323   1.351  54.258  1.00  0.00     0.002 A 
HETATM   22  C8  UNL     1      26.836   0.101  53.928  1.00  0.00     0.000 A 
HETATM   23  C9  UNL     1      26.816  -0.316  52.611  1.00  0.00     0.002 A 
HETATM   24  C10 UNL     1      26.268   0.571  51.676  1.00  0.00     0.029 A 
ENDBRANCH  17  19
ENDBRANCH   7  17
TORSDOF 2
ENDMDL
MODEL 8
REMARK VINA RESULT:      -6.7     10.616     12.433
REMARK  2 active torsions:
REMARK  status: ('A' for Active; 'I' for Inactive)
REMARK    1  A    between atoms: C4_7  and  N4_8 
REMARK    2  A    between atoms: N4_8  and  C5_9 
ROOT
HETATM    1  C1  UNL     1      27.944   5.950  48.182  1.00  0.00     0.102 C 
HETATM    2  C2  UNL     1      29.047   6.441  47.660  1.00  0.00     0.132 C 
HETATM    3  N1  UNL     1      29.748   7.492  48.340  1.00  0.00    -0.248 N 
HETATM    4  N2  UNL     1      30.918   6.928  48.885  1.00  0.00    -0.164 NA
HETATM    5  C3  UNL     1      31.700   7.715  49.581  1.00  0.00     0.257 A 
HETATM    6  N3  UNL     1      31.371   9.080  49.769  1.00  0.00    -0.223 NA
HETATM    7  C4  UNL     1      30.288   9.625  49.271  1.00  0.00     0.150 A 
HETATM    8  C11 UNL     1      29.340   8.894  48.450  1.00  0.00     0.275 A 
HETATM    9  N5  UNL     1      27.976   9.097  48.672  1.00  0.00    -0.385 N 
HETATM   10  C12 UNL     1      27.416   9.201  49.942  1.00  0.00     0.121 C 
HETATM   11  C13 UNL     1      26.212   8.311  50.179  1.00  0.00     0.044 C 
HETATM   12  C14 UNL     1      26.156   7.183  49.173  1.00  0.00     0.084 C 
HETATM   13  C15 UNL     1      26.093   7.756  47.776  1.00  0.00     0.044 C 
HETATM   14  C16 UNL     1      27.103   8.861  47.576  1.00  0.00     0.121 C 
HETATM   15  N6  UNL     1      27.290   6.328  49.405  1.00  0.00    -0.393 N 
HETATM   16  H20 UNL     1      27.437   6.129  50.430  1.00  0.00     0.159 HD
ENDROOT
BRANCH   7  17
HETATM   17  N4  UNL     1      30.167  11.010  49.594  1.00  0.00    -0.341 N 
HETATM   18  H4  UNL     1      30.448  11.255  50.598  1.00  0.00     0.167 HD
BRANCH  17  19
HETATM   19  C5  UNL     1      29.709  11.982  48.664  1.00  0.00     0.033 A 
HETATM   20  C6  UNL     1      28.620  12.721  49.076  1.00  0.00     0.029 A 
HETATM   21  C7  UNL     1      28.099  13.691  48.249  1.00  0.00     0.002 A 
HETATM   22  C8  UNL     1      28.636  13.956  46.994  1.00  0.00     0.000 A 
HETATM   23  C9  UNL     1      29.728  13.231  46.554  1.00  0.00     0.002 A 
HETATM   24  C10 UNL     1      30.230  12.255  47.424  1.00  0.00     0.029 A 
ENDBRANCH  17  19
ENDBRANCH   7  17
TORSDOF 2
ENDMDL
MODEL 9
REMARK VINA RESULT:      -6.7      3.447      5.261
REMARK  2 active torsions:
REMARK  status: ('A' for Active; 'I' for Inactive)
REMARK    1  A    between atoms: C4_7  and  N4_8 
REMARK    2  A    between atoms: N4_8  and  C5_9 
ROOT
HETATM    1  C1  UNL     1      22.193   4.138  47.612  1.00  0.00     0.102 C 
HETATM    2  C2  UNL     1      22.860   4.953  48.401  1.00  0.00     0.132 C 
HETATM    3  N1  UNL     1      23.748   4.414  49.391  1.00  0.00    -0.248 N 
HETATM    4  N2  UNL     1      25.063   4.659  48.950  1.00  0.00    -0.164 NA
HETATM    5  C3  UNL     1      26.043   4.220  49.700  1.00  0.00     0.257 A 
HETATM    6  N3  UNL     1      25.777   3.525  50.905  1.00  0.00    -0.223 NA
HETATM    7  C4  UNL     1      24.561   3.286  51.334  1.00  0.00     0.150 A 
HETATM    8  C11 UNL     1      23.372   3.739  50.635  1.00  0.00     0.275 A 
HETATM    9  N5  UNL     1      22.291   2.861  50.527  1.00  0.00    -0.385 N 
HETATM   10  C12 UNL     1      22.434   1.504  50.248  1.00  0.00     0.121 C 
HETATM   11  C13 UNL     1      21.560   0.994  49.119  1.00  0.00     0.044 C 
HETATM   12  C14 UNL     1      21.072   2.129  48.245  1.00  0.00     0.084 C 
HETATM   13  C15 UNL     1      20.290   3.111  49.086  1.00  0.00     0.044 C 
HETATM   14  C16 UNL     1      21.002   3.440  50.376  1.00  0.00     0.121 C 
HETATM   15  N6  UNL     1      22.216   2.702  47.587  1.00  0.00    -0.393 N 
HETATM   16  H20 UNL     1      22.866   1.966  47.202  1.00  0.00     0.159 HD
ENDROOT
BRANCH   7  17
HETATM   17  N4  UNL     1      24.541   2.571  52.568  1.00  0.00    -0.341 N 
HETATM   18  H4  UNL     1      23.708   2.802  53.199  1.00  0.00     0.167 HD
BRANCH  17  19
HETATM   19  C5  UNL     1      25.544   1.631  52.931  1.00  0.00     0.033 A 
HETATM   20  C6  UNL     1      25.484   0.423  52.269  1.00  0.00     0.029 A 
HETATM   21  C7  UNL     1      26.412  -0.556  52.547  1.00  0.00     0.002 A 
HETATM   22  C8  UNL     1      27.421  -0.371  53.485  1.00  0.00     0.000 A 
HETATM   23  C9  UNL     1      27.505   0.829  54.165  1.00  0.00     0.002 A 
HETATM   24  C10 UNL     1      26.545   1.801  53.854  1.00  0.00     0.029 A 
ENDBRANCH  17  19
ENDBRANCH   7  17
TORSDOF 2
ENDMDL
