MODEL 1
REMARK VINA RESULT:      -8.1      0.000      0.000
REMARK  6 active torsions:
REMARK  status: ('A' for Active; 'I' for Inactive)
REMARK    1  A    between atoms: C5_5  and  N1_6 
REMARK    2  A    between atoms: N1_6  and  C6_7 
REMARK    3  A    between atoms: C6_7  and  O1_9 
REMARK    4  A    between atoms: C9_11  and  N2_12 
REMARK    5  A    between atoms: N2_12  and  C10_13 
REMARK    6  A    between atoms: C13_17  and  C14_18 
ROOT
HETATM    1  N2  UNL     1      23.144   1.385  52.779  1.00  0.00    -0.214 N 
HETATM    2  H15 UNL     1      22.756   2.006  53.550  1.00  0.00     0.178 HD
ENDROOT
BRANCH   1   3
HETATM    3  C9  UNL     1      23.664   0.046  53.013  1.00  0.00     0.134 A 
HETATM    4  C2  UNL     1      22.908  -0.653  54.077  1.00  0.00    -0.060 A 
HETATM    5  C1  UNL     1      21.481  -0.652  53.629  1.00  0.00     0.045 C 
HETATM    6  C3  UNL     1      23.273  -1.208  55.220  1.00  0.00     0.006 A 
HETATM    7  C4  UNL     1      24.684  -1.160  55.571  1.00  0.00     0.025 A 
HETATM    8  C5  UNL     1      25.438  -0.550  54.674  1.00  0.00     0.009 A 
HETATM    9  C8  UNL     1      25.125   0.096  53.378  1.00  0.00     0.087 A 
BRANCH   8  10
HETATM   10  N1  UNL     1      26.846  -0.422  54.875  1.00  0.00    -0.367 N 
HETATM   11  H6  UNL     1      27.244  -0.305  55.835  1.00  0.00     0.162 HD
BRANCH  10  12
HETATM   12  C6  UNL     1      27.528  -0.481  53.600  1.00  0.00     0.213 C 
HETATM   13  C7  UNL     1      28.783   0.393  53.591  1.00  0.00     0.063 C 
BRANCH  12  14
HETATM   14  O1  UNL     1      27.974  -1.788  53.444  1.00  0.00    -0.377 OA
HETATM   15  H11 UNL     1      27.980  -2.057  52.488  1.00  0.00     0.212 HD
ENDBRANCH  12  14
ENDBRANCH  10  12
ENDBRANCH   8  10
ENDBRANCH   1   3
BRANCH   1  16
HETATM   16  C10 UNL     1      23.157   1.887  51.452  1.00  0.00     0.723 A 
HETATM   17  N3  UNL     1      22.186   1.524  50.596  1.00  0.00    -0.075 NA
HETATM   18  C11 UNL     1      22.134   1.955  49.339  1.00  0.00     0.139 A 
HETATM   19  C12 UNL     1      23.144   2.811  48.938  1.00  0.00     0.053 A 
HETATM   20  C13 UNL     1      24.158   3.210  49.782  1.00  0.00     0.089 A 
HETATM   21  N5  UNL     1      24.112   2.712  51.031  1.00  0.00    -0.062 NA
BRANCH  20  22
HETATM   22  C14 UNL     1      25.227   4.111  49.367  1.00  0.00     0.011 A 
HETATM   23  C15 UNL     1      25.062   5.417  48.968  1.00  0.00     0.017 A 
HETATM   24  C16 UNL     1      26.168   6.170  48.598  1.00  0.00     0.020 A 
HETATM   25  C17 UNL     1      27.446   5.639  48.618  1.00  0.00     0.116 A 
HETATM   26  N4  UNL     1      27.587   4.374  49.006  1.00  0.00    -0.272 NA
HETATM   27  C18 UNL     1      26.521   3.646  49.366  1.00  0.00     0.130 A 
ENDBRANCH  20  22
ENDBRANCH   1  16
TORSDOF 6
ENDMDL
MODEL 2
REMARK VINA RESULT:      -8.1      1.096      1.245
REMARK  6 active torsions:
REMARK  status: ('A' for Active; 'I' for Inactive)
REMARK    1  A    between atoms: C5_5  and  N1_6 
REMARK    2  A    between atoms: N1_6  and  C6_7 
REMARK    3  A    between atoms: C6_7  and  O1_9 
REMARK    4  A    between atoms: C9_11  and  N2_12 
REMARK    5  A    between atoms: N2_12  and  C10_13 
REMARK    6  A    between atoms: C13_17  and  C14_18 
ROOT
HETATM    1  N2  UNL     1      23.915   2.363  52.521  1.00  0.00    -0.214 N 
HETATM    2  H15 UNL     1      23.664   2.865  53.425  1.00  0.00     0.178 HD
ENDROOT
BRANCH   1   3
HETATM    3  C9  UNL     1      24.329   0.969  52.466  1.00  0.00     0.134 A 
HETATM    4  C2  UNL     1      23.402   0.096  53.221  1.00  0.00    -0.060 A 
HETATM    5  C1  UNL     1      22.050   0.326  52.624  1.00  0.00     0.045 C 
HETATM    6  C3  UNL     1      23.582  -0.751  54.220  1.00  0.00     0.006 A 
HETATM    7  C4  UNL     1      24.934  -0.909  54.734  1.00  0.00     0.025 A 
HETATM    8  C5  UNL     1      25.831  -0.162  54.116  1.00  0.00     0.009 A 
HETATM    9  C8  UNL     1      25.729   0.806  53.000  1.00  0.00     0.087 A 
BRANCH   8  10
HETATM   10  N1  UNL     1      27.204  -0.205  54.506  1.00  0.00    -0.367 N 
HETATM   11  H6  UNL     1      27.494   0.035  55.482  1.00  0.00     0.162 HD
BRANCH  10  12
HETATM   12  C6  UNL     1      28.019  -0.609  53.381  1.00  0.00     0.213 C 
HETATM   13  C7  UNL     1      29.500  -0.306  53.618  1.00  0.00     0.063 C 
BRANCH  12  14
HETATM   14  O1  UNL     1      27.924  -1.992  53.291  1.00  0.00    -0.377 OA
HETATM   15  H11 UNL     1      27.140  -2.335  53.796  1.00  0.00     0.212 HD
ENDBRANCH  12  14
ENDBRANCH  10  12
ENDBRANCH   8  10
ENDBRANCH   1   3
BRANCH   1  16
HETATM   16  C10 UNL     1      23.843   3.091  51.305  1.00  0.00     0.723 A 
HETATM   17  N3  UNL     1      22.674   3.165  50.644  1.00  0.00    -0.075 NA
HETATM   18  C11 UNL     1      22.533   3.828  49.501  1.00  0.00     0.139 A 
HETATM   19  C12 UNL     1      23.663   4.453  49.005  1.00  0.00     0.053 A 
HETATM   20  C13 UNL     1      24.881   4.403  49.650  1.00  0.00     0.089 A 
HETATM   21  N5  UNL     1      24.909   3.704  50.799  1.00  0.00    -0.062 NA
BRANCH  20  22
HETATM   22  C14 UNL     1      26.078   5.059  49.135  1.00  0.00     0.011 A 
HETATM   23  C15 UNL     1      26.166   6.377  48.754  1.00  0.00     0.017 A 
HETATM   24  C16 UNL     1      27.371   6.878  48.279  1.00  0.00     0.020 A 
HETATM   25  C17 UNL     1      28.497   6.080  48.176  1.00  0.00     0.116 A 
HETATM   26  N4  UNL     1      28.394   4.807  48.548  1.00  0.00    -0.272 NA
HETATM   27  C18 UNL     1      27.232   4.322  49.008  1.00  0.00     0.130 A 
ENDBRANCH  20  22
ENDBRANCH   1  16
TORSDOF 6
ENDMDL
MODEL 3
REMARK VINA RESULT:      -7.9      2.093      3.890
REMARK  6 active torsions:
REMARK  status: ('A' for Active; 'I' for Inactive)
REMARK    1  A    between atoms: C5_5  and  N1_6 
REMARK    2  A    between atoms: N1_6  and  C6_7 
REMARK    3  A    between atoms: C6_7  and  O1_9 
REMARK    4  A    between atoms: C9_11  and  N2_12 
REMARK    5  A    between atoms: N2_12  and  C10_13 
REMARK    6  A    between atoms: C13_17  and  C14_18 
ROOT
HETATM    1  N2  UNL     1      26.192   1.843  51.372  1.00  0.00    -0.214 N 
HETATM    2  H15 UNL     1      26.854   1.110  50.977  1.00  0.00     0.178 HD
ENDROOT
BRANCH   1   3
HETATM    3  C9  UNL     1      25.628   1.776  52.712  1.00  0.00     0.134 A 
HETATM    4  C2  UNL     1      26.611   1.262  53.691  1.00  0.00    -0.060 A 
HETATM    5  C1  UNL     1      27.791   2.177  53.601  1.00  0.00     0.045 C 
HETATM    6  C3  UNL     1      26.593   0.238  54.528  1.00  0.00     0.006 A 
HETATM    7  C4  UNL     1      25.401  -0.596  54.545  1.00  0.00     0.025 A 
HETATM    8  C5  UNL     1      24.466  -0.209  53.696  1.00  0.00     0.009 A 
HETATM    9  C8  UNL     1      24.394   0.910  52.729  1.00  0.00     0.087 A 
BRANCH   8  10
HETATM   10  N1  UNL     1      23.235  -0.927  53.595  1.00  0.00    -0.367 N 
HETATM   11  H6  UNL     1      22.978  -1.432  52.716  1.00  0.00     0.162 HD
BRANCH  10  12
HETATM   12  C6  UNL     1      22.501  -0.816  54.837  1.00  0.00     0.213 C 
HETATM   13  C7  UNL     1      21.189  -0.053  54.650  1.00  0.00     0.063 C 
BRANCH  12  14
HETATM   14  O1  UNL     1      22.142  -2.105  55.208  1.00  0.00    -0.377 OA
HETATM   15  H11 UNL     1      22.305  -2.754  54.473  1.00  0.00     0.212 HD
ENDBRANCH  12  14
ENDBRANCH  10  12
ENDBRANCH   8  10
ENDBRANCH   1   3
BRANCH   1  16
HETATM   16  C10 UNL     1      25.841   2.945  50.550  1.00  0.00     0.723 A 
HETATM   17  N3  UNL     1      24.543   3.227  50.338  1.00  0.00    -0.075 NA
HETATM   18  C11 UNL     1      24.140   4.243  49.581  1.00  0.00     0.139 A 
HETATM   19  C12 UNL     1      25.132   5.015  49.005  1.00  0.00     0.053 A 
HETATM   20  C13 UNL     1      26.474   4.762  49.195  1.00  0.00     0.089 A 
HETATM   21  N5  UNL     1      26.768   3.709  49.979  1.00  0.00    -0.062 NA
BRANCH  20  22
HETATM   22  C14 UNL     1      27.527   5.570  48.591  1.00  0.00     0.011 A 
HETATM   23  C15 UNL     1      28.815   5.155  48.348  1.00  0.00     0.017 A 
HETATM   24  C16 UNL     1      29.722   6.029  47.764  1.00  0.00     0.020 A 
HETATM   25  C17 UNL     1      29.365   7.319  47.416  1.00  0.00     0.116 A 
HETATM   26  N4  UNL     1      28.115   7.705  47.659  1.00  0.00    -0.272 NA
HETATM   27  C18 UNL     1      27.237   6.863  48.221  1.00  0.00     0.130 A 
ENDBRANCH  20  22
ENDBRANCH   1  16
TORSDOF 6
ENDMDL
MODEL 4
REMARK VINA RESULT:      -7.7      2.881      6.629
REMARK  6 active torsions:
REMARK  status: ('A' for Active; 'I' for Inactive)
REMARK    1  A    between atoms: C5_5  and  N1_6 
REMARK    2  A    between atoms: N1_6  and  C6_7 
REMARK    3  A    between atoms: C6_7  and  O1_9 
REMARK    4  A    between atoms: C9_11  and  N2_12 
REMARK    5  A    between atoms: N2_12  and  C10_13 
REMARK    6  A    between atoms: C13_17  and  C14_18 
ROOT
HETATM    1  N2  UNL     1      22.724   2.755  51.245  1.00  0.00    -0.214 N 
HETATM    2  H15 UNL     1      22.675   2.641  50.189  1.00  0.00     0.178 HD
ENDROOT
BRANCH   1   3
HETATM    3  C9  UNL     1      22.464   4.013  51.930  1.00  0.00     0.134 A 
HETATM    4  C2  UNL     1      21.368   4.768  51.282  1.00  0.00    -0.060 A 
HETATM    5  C1  UNL     1      20.187   3.851  51.281  1.00  0.00     0.045 C 
HETATM    6  C3  UNL     1      21.298   5.986  50.772  1.00  0.00     0.006 A 
HETATM    7  C4  UNL     1      22.499   6.806  50.818  1.00  0.00     0.025 A 
HETATM    8  C5  UNL     1      23.533   6.208  51.381  1.00  0.00     0.009 A 
HETATM    9  C8  UNL     1      23.709   4.862  51.976  1.00  0.00     0.087 A 
BRANCH   8  10
HETATM   10  N1  UNL     1      24.786   6.883  51.502  1.00  0.00    -0.367 N 
HETATM   11  H6  UNL     1      25.175   7.130  52.441  1.00  0.00     0.162 HD
BRANCH  10  12
HETATM   12  C6  UNL     1      25.338   7.126  50.187  1.00  0.00     0.213 C 
HETATM   13  C7  UNL     1      25.812   8.572  50.032  1.00  0.00     0.063 C 
BRANCH  12  14
HETATM   14  O1  UNL     1      26.478   6.339  50.079  1.00  0.00    -0.377 OA
HETATM   15  H11 UNL     1      26.406   5.696  49.325  1.00  0.00     0.212 HD
ENDBRANCH  12  14
ENDBRANCH  10  12
ENDBRANCH   8  10
ENDBRANCH   1   3
BRANCH   1  16
HETATM   16  C10 UNL     1      23.061   1.621  52.029  1.00  0.00     0.723 A 
HETATM   17  N3  UNL     1      22.088   0.794  52.451  1.00  0.00    -0.075 NA
HETATM   18  C11 UNL     1      22.329  -0.286  53.188  1.00  0.00     0.139 A 
HETATM   19  C12 UNL     1      23.651  -0.530  53.513  1.00  0.00     0.053 A 
HETATM   20  C13 UNL     1      24.679   0.292  53.102  1.00  0.00     0.089 A 
HETATM   21  N5  UNL     1      24.321   1.355  52.361  1.00  0.00    -0.062 NA
BRANCH  20  22
HETATM   22  C14 UNL     1      26.076   0.042  53.439  1.00  0.00     0.011 A 
HETATM   23  C15 UNL     1      26.934  -0.775  52.742  1.00  0.00     0.017 A 
HETATM   24  C16 UNL     1      28.245  -0.926  53.172  1.00  0.00     0.020 A 
HETATM   25  C17 UNL     1      28.720  -0.270  54.295  1.00  0.00     0.116 A 
HETATM   26  N4  UNL     1      27.876   0.517  54.958  1.00  0.00    -0.272 NA
HETATM   27  C18 UNL     1      26.610   0.664  54.544  1.00  0.00     0.130 A 
ENDBRANCH  20  22
ENDBRANCH   1  16
TORSDOF 6
ENDMDL
MODEL 5
REMARK VINA RESULT:      -7.6      2.461      4.447
REMARK  6 active torsions:
REMARK  status: ('A' for Active; 'I' for Inactive)
REMARK    1  A    between atoms: C5_5  and  N1_6 
REMARK    2  A    between atoms: N1_6  and  C6_7 
REMARK    3  A    between atoms: C6_7  and  O1_9 
REMARK    4  A    between atoms: C9_11  and  N2_12 
REMARK    5  A    between atoms: N2_12  and  C10_13 
REMARK    6  A    between atoms: C13_17  and  C14_18 
ROOT
HETATM    1  N2  UNL     1      26.209   1.876  51.309  1.00  0.00    -0.214 N 
HETATM    2  H15 UNL     1      26.696   1.048  50.853  1.00  0.00     0.178 HD
ENDROOT
BRANCH   1   3
HETATM    3  C9  UNL     1      25.628   1.828  52.643  1.00  0.00     0.134 A 
HETATM    4  C2  UNL     1      26.588   1.298  53.636  1.00  0.00    -0.060 A 
HETATM    5  C1  UNL     1      27.789   2.185  53.555  1.00  0.00     0.045 C 
HETATM    6  C3  UNL     1      26.537   0.279  54.478  1.00  0.00     0.006 A 
HETATM    7  C4  UNL     1      25.326  -0.528  54.485  1.00  0.00     0.025 A 
HETATM    8  C5  UNL     1      24.410  -0.124  53.624  1.00  0.00     0.009 A 
HETATM    9  C8  UNL     1      24.374   0.992  52.649  1.00  0.00     0.087 A 
BRANCH   8  10
HETATM   10  N1  UNL     1      23.164  -0.814  53.512  1.00  0.00    -0.367 N 
HETATM   11  H6  UNL     1      22.906  -1.318  52.633  1.00  0.00     0.162 HD
BRANCH  10  12
HETATM   12  C6  UNL     1      22.418  -0.679  54.744  1.00  0.00     0.213 C 
HETATM   13  C7  UNL     1      21.072   0.011  54.516  1.00  0.00     0.063 C 
BRANCH  12  14
HETATM   14  O1  UNL     1      22.118  -1.965  55.175  1.00  0.00    -0.377 OA
HETATM   15  H11 UNL     1      22.534  -2.651  54.589  1.00  0.00     0.212 HD
ENDBRANCH  12  14
ENDBRANCH  10  12
ENDBRANCH   8  10
ENDBRANCH   1   3
BRANCH   1  16
HETATM   16  C10 UNL     1      26.119   3.090  50.580  1.00  0.00     0.723 A 
HETATM   17  N3  UNL     1      27.096   3.418  49.717  1.00  0.00    -0.075 NA
HETATM   18  C11 UNL     1      27.079   4.539  49.001  1.00  0.00     0.139 A 
HETATM   19  C12 UNL     1      25.991   5.373  49.185  1.00  0.00     0.053 A 
HETATM   20  C13 UNL     1      24.968   5.075  50.059  1.00  0.00     0.089 A 
HETATM   21  N5  UNL     1      25.089   3.916  50.732  1.00  0.00    -0.062 NA
BRANCH  20  22
HETATM   22  C14 UNL     1      23.817   5.949  50.260  1.00  0.00     0.011 A 
HETATM   23  C15 UNL     1      23.709   7.244  49.813  1.00  0.00     0.017 A 
HETATM   24  C16 UNL     1      22.554   7.969  50.072  1.00  0.00     0.020 A 
HETATM   25  C17 UNL     1      21.496   7.420  50.775  1.00  0.00     0.116 A 
HETATM   26  N4  UNL     1      21.617   6.165  51.201  1.00  0.00    -0.272 NA
HETATM   27  C18 UNL     1      22.731   5.464  50.951  1.00  0.00     0.130 A 
ENDBRANCH  20  22
ENDBRANCH   1  16
TORSDOF 6
ENDMDL
MODEL 6
REMARK VINA RESULT:      -7.5      3.225      5.837
REMARK  6 active torsions:
REMARK  status: ('A' for Active; 'I' for Inactive)
REMARK    1  A    between atoms: C5_5  and  N1_6 
REMARK    2  A    between atoms: N1_6  and  C6_7 
REMARK    3  A    between atoms: C6_7  and  O1_9 
REMARK    4  A    between atoms: C9_11  and  N2_12 
REMARK    5  A    between atoms: N2_12  and  C10_13 
REMARK    6  A    between atoms: C13_17  and  C14_18 
ROOT
HETATM    1  N2  UNL     1      23.475   1.549  50.742  1.00  0.00    -0.214 N 
HETATM    2  H15 UNL     1      23.751   1.940  49.792  1.00  0.00     0.178 HD
ENDROOT
BRANCH   1   3
HETATM    3  C9  UNL     1      22.173   0.958  51.017  1.00  0.00     0.134 A 
HETATM    4  C2  UNL     1      21.082   1.944  50.853  1.00  0.00    -0.060 A 
HETATM    5  C1  UNL     1      21.205   2.456  49.453  1.00  0.00     0.045 C 
HETATM    6  C3  UNL     1      20.135   2.378  51.667  1.00  0.00     0.006 A 
HETATM    7  C4  UNL     1      20.095   1.822  53.011  1.00  0.00     0.025 A 
HETATM    8  C5  UNL     1      21.039   0.929  53.247  1.00  0.00     0.009 A 
HETATM    9  C8  UNL     1      22.133   0.383  52.410  1.00  0.00     0.087 A 
BRANCH   8  10
HETATM   10  N1  UNL     1      21.132   0.291  54.522  1.00  0.00    -0.367 N 
HETATM   11  H6  UNL     1      20.838   0.787  55.394  1.00  0.00     0.162 HD
BRANCH  10  12
HETATM   12  C6  UNL     1      21.665  -1.045  54.362  1.00  0.00     0.213 C 
HETATM   13  C7  UNL     1      22.825  -1.309  55.324  1.00  0.00     0.063 C 
BRANCH  12  14
HETATM   14  O1  UNL     1      20.657  -1.926  54.731  1.00  0.00    -0.377 OA
HETATM   15  H11 UNL     1      20.752  -2.801  54.268  1.00  0.00     0.212 HD
ENDBRANCH  12  14
ENDBRANCH  10  12
ENDBRANCH   8  10
ENDBRANCH   1   3
BRANCH   1  16
HETATM   16  C10 UNL     1      24.423   1.606  51.795  1.00  0.00     0.723 A 
HETATM   17  N3  UNL     1      24.381   2.626  52.670  1.00  0.00    -0.075 NA
HETATM   18  C11 UNL     1      25.237   2.744  53.681  1.00  0.00     0.139 A 
HETATM   19  C12 UNL     1      26.195   1.754  53.799  1.00  0.00     0.053 A 
HETATM   20  C13 UNL     1      26.273   0.690  52.925  1.00  0.00     0.089 A 
HETATM   21  N5  UNL     1      25.358   0.671  51.939  1.00  0.00    -0.062 NA
BRANCH  20  22
HETATM   22  C14 UNL     1      27.280  -0.359  53.041  1.00  0.00     0.011 A 
HETATM   23  C15 UNL     1      28.575  -0.181  53.469  1.00  0.00     0.017 A 
HETATM   24  C16 UNL     1      29.435  -1.268  53.534  1.00  0.00     0.020 A 
HETATM   25  C17 UNL     1      29.023  -2.541  53.177  1.00  0.00     0.116 A 
HETATM   26  N4  UNL     1      27.767  -2.695  52.765  1.00  0.00    -0.272 NA
HETATM   27  C18 UNL     1      26.935  -1.646  52.703  1.00  0.00     0.130 A 
ENDBRANCH  20  22
ENDBRANCH   1  16
TORSDOF 6
ENDMDL
MODEL 7
REMARK VINA RESULT:      -7.4      3.547      7.658
REMARK  6 active torsions:
REMARK  status: ('A' for Active; 'I' for Inactive)
REMARK    1  A    between atoms: C5_5  and  N1_6 
REMARK    2  A    between atoms: N1_6  and  C6_7 
REMARK    3  A    between atoms: C6_7  and  O1_9 
REMARK    4  A    between atoms: C9_11  and  N2_12 
REMARK    5  A    between atoms: N2_12  and  C10_13 
REMARK    6  A    between atoms: C13_17  and  C14_18 
ROOT
HETATM    1  N2  UNL     1      24.920   3.668  52.192  1.00  0.00    -0.214 N 
HETATM    2  H15 UNL     1      25.498   4.310  52.811  1.00  0.00     0.178 HD
ENDROOT
BRANCH   1   3
HETATM    3  C9  UNL     1      24.234   4.117  50.989  1.00  0.00     0.134 A 
HETATM    4  C2  UNL     1      25.150   4.835  50.076  1.00  0.00    -0.060 A 
HETATM    5  C1  UNL     1      26.267   3.882  49.788  1.00  0.00     0.045 C 
HETATM    6  C3  UNL     1      25.122   6.046  49.546  1.00  0.00     0.006 A 
HETATM    7  C4  UNL     1      23.995   6.903  49.884  1.00  0.00     0.025 A 
HETATM    8  C5  UNL     1      23.122   6.340  50.701  1.00  0.00     0.009 A 
HETATM    9  C8  UNL     1      23.067   5.004  51.341  1.00  0.00     0.087 A 
BRANCH   8  10
HETATM   10  N1  UNL     1      21.960   7.053  51.126  1.00  0.00    -0.367 N 
HETATM   11  H6  UNL     1      21.781   7.233  52.140  1.00  0.00     0.162 HD
BRANCH  10  12
HETATM   12  C6  UNL     1      21.171   7.431  49.974  1.00  0.00     0.213 C 
HETATM   13  C7  UNL     1      20.166   6.341  49.596  1.00  0.00     0.063 C 
BRANCH  12  14
HETATM   14  O1  UNL     1      20.412   8.532  50.350  1.00  0.00    -0.377 OA
HETATM   15  H11 UNL     1      20.770   8.955  51.175  1.00  0.00     0.212 HD
ENDBRANCH  12  14
ENDBRANCH  10  12
ENDBRANCH   8  10
ENDBRANCH   1   3
BRANCH   1  16
HETATM   16  C10 UNL     1      24.811   2.301  52.556  1.00  0.00     0.723 A 
HETATM   17  N3  UNL     1      23.598   1.777  52.809  1.00  0.00    -0.075 NA
HETATM   18  C11 UNL     1      23.420   0.506  53.156  1.00  0.00     0.139 A 
HETATM   19  C12 UNL     1      24.558  -0.275  53.249  1.00  0.00     0.053 A 
HETATM   20  C13 UNL     1      25.820   0.222  52.998  1.00  0.00     0.089 A 
HETATM   21  N5  UNL     1      25.883   1.521  52.656  1.00  0.00    -0.062 NA
BRANCH  20  22
HETATM   22  C14 UNL     1      27.025  -0.594  53.095  1.00  0.00     0.011 A 
HETATM   23  C15 UNL     1      28.257  -0.154  53.518  1.00  0.00     0.017 A 
HETATM   24  C16 UNL     1      29.327  -1.037  53.563  1.00  0.00     0.020 A 
HETATM   25  C17 UNL     1      29.189  -2.363  53.191  1.00  0.00     0.116 A 
HETATM   26  N4  UNL     1      27.990  -2.772  52.783  1.00  0.00    -0.272 NA
HETATM   27  C18 UNL     1      26.956  -1.921  52.740  1.00  0.00     0.130 A 
ENDBRANCH  20  22
ENDBRANCH   1  16
TORSDOF 6
ENDMDL
MODEL 8
REMARK VINA RESULT:      -7.3      3.165      7.714
REMARK  6 active torsions:
REMARK  status: ('A' for Active; 'I' for Inactive)
REMARK    1  A    between atoms: C5_5  and  N1_6 
REMARK    2  A    between atoms: N1_6  and  C6_7 
REMARK    3  A    between atoms: C6_7  and  O1_9 
REMARK    4  A    between atoms: C9_11  and  N2_12 
REMARK    5  A    between atoms: N2_12  and  C10_13 
REMARK    6  A    between atoms: C13_17  and  C14_18 
ROOT
HETATM    1  N2  UNL     1      26.341   3.215  51.525  1.00  0.00    -0.214 N 
HETATM    2  H15 UNL     1      27.187   3.768  51.858  1.00  0.00     0.178 HD
ENDROOT
BRANCH   1   3
HETATM    3  C9  UNL     1      25.386   3.720  50.550  1.00  0.00     0.134 A 
HETATM    4  C2  UNL     1      26.011   4.699  49.632  1.00  0.00    -0.060 A 
HETATM    5  C1  UNL     1      27.165   3.986  49.003  1.00  0.00     0.045 C 
HETATM    6  C3  UNL     1      25.726   5.954  49.330  1.00  0.00     0.006 A 
HETATM    7  C4  UNL     1      24.583   6.564  49.994  1.00  0.00     0.025 A 
HETATM    8  C5  UNL     1      23.963   5.758  50.837  1.00  0.00     0.009 A 
HETATM    9  C8  UNL     1      24.203   4.352  51.239  1.00  0.00     0.087 A 
BRANCH   8  10
HETATM   10  N1  UNL     1      22.821   6.209  51.567  1.00  0.00    -0.367 N 
HETATM   11  H6  UNL     1      22.816   6.208  52.613  1.00  0.00     0.162 HD
BRANCH  10  12
HETATM   12  C6  UNL     1      21.785   6.623  50.646  1.00  0.00     0.213 C 
HETATM   13  C7  UNL     1      20.690   5.564  50.515  1.00  0.00     0.063 C 
BRANCH  12  14
HETATM   14  O1  UNL     1      21.171   7.737  51.206  1.00  0.00    -0.377 OA
HETATM   15  H11 UNL     1      21.793   8.511  51.249  1.00  0.00     0.212 HD
ENDBRANCH  12  14
ENDBRANCH  10  12
ENDBRANCH   8  10
ENDBRANCH   1   3
BRANCH   1  16
HETATM   16  C10 UNL     1      26.133   1.918  52.060  1.00  0.00     0.723 A 
HETATM   17  N3  UNL     1      27.180   1.088  52.213  1.00  0.00    -0.075 NA
HETATM   18  C11 UNL     1      27.060  -0.141  52.707  1.00  0.00     0.139 A 
HETATM   19  C12 UNL     1      25.785  -0.542  53.063  1.00  0.00     0.053 A 
HETATM   20  C13 UNL     1      24.684   0.277  52.923  1.00  0.00     0.089 A 
HETATM   21  N5  UNL     1      24.921   1.499  52.413  1.00  0.00    -0.062 NA
BRANCH  20  22
HETATM   22  C14 UNL     1      23.336  -0.137  53.297  1.00  0.00     0.011 A 
HETATM   23  C15 UNL     1      23.007  -0.889  54.399  1.00  0.00     0.017 A 
HETATM   24  C16 UNL     1      21.679  -1.215  54.641  1.00  0.00     0.020 A 
HETATM   25  C17 UNL     1      20.666  -0.801  53.795  1.00  0.00     0.116 A 
HETATM   26  N4  UNL     1      21.002  -0.073  52.732  1.00  0.00    -0.272 NA
HETATM   27  C18 UNL     1      22.283   0.243  52.498  1.00  0.00     0.130 A 
ENDBRANCH  20  22
ENDBRANCH   1  16
TORSDOF 6
ENDMDL
MODEL 9
REMARK VINA RESULT:      -7.2      2.750      7.014
REMARK  6 active torsions:
REMARK  status: ('A' for Active; 'I' for Inactive)
REMARK    1  A    between atoms: C5_5  and  N1_6 
REMARK    2  A    between atoms: N1_6  and  C6_7 
REMARK    3  A    between atoms: C6_7  and  O1_9 
REMARK    4  A    between atoms: C9_11  and  N2_12 
REMARK    5  A    between atoms: N2_12  and  C10_13 
REMARK    6  A    between atoms: C13_17  and  C14_18 
ROOT
HETATM    1  N2  UNL     1      23.953   2.857  49.674  1.00  0.00    -0.214 N 
HETATM    2  H15 UNL     1      24.566   2.523  48.872  1.00  0.00     0.178 HD
ENDROOT
BRANCH   1   3
HETATM    3  C9  UNL     1      23.110   4.042  49.599  1.00  0.00     0.134 A 
HETATM    4  C2  UNL     1      22.542   4.221  48.244  1.00  0.00    -0.060 A 
HETATM    5  C1  UNL     1      21.800   2.957  47.945  1.00  0.00     0.045 C 
HETATM    6  C3  UNL     1      22.593   5.215  47.374  1.00  0.00     0.006 A 
HETATM    7  C4  UNL     1      23.339   6.405  47.755  1.00  0.00     0.025 A 
HETATM    8  C5  UNL     1      23.885   6.332  48.956  1.00  0.00     0.009 A 
HETATM    9  C8  UNL     1      23.885   5.274  49.992  1.00  0.00     0.087 A 
BRANCH   8  10
HETATM   10  N1  UNL     1      24.649   7.422  49.473  1.00  0.00    -0.367 N 
HETATM   11  H6  UNL     1      24.233   8.377  49.563  1.00  0.00     0.162 HD
BRANCH  10  12
HETATM   12  C6  UNL     1      25.981   6.967  49.809  1.00  0.00     0.213 C 
HETATM   13  C7  UNL     1      26.893   6.934  48.581  1.00  0.00     0.063 C 
BRANCH  12  14
HETATM   14  O1  UNL     1      26.527   7.919  50.662  1.00  0.00    -0.377 OA
HETATM   15  H11 UNL     1      25.938   8.715  50.743  1.00  0.00     0.212 HD
ENDBRANCH  12  14
ENDBRANCH  10  12
ENDBRANCH   8  10
ENDBRANCH   1   3
BRANCH   1  16
HETATM   16  C10 UNL     1      23.957   2.111  50.880  1.00  0.00     0.723 A 
HETATM   17  N3  UNL     1      22.792   1.698  51.409  1.00  0.00    -0.075 NA
HETATM   18  C11 UNL     1      22.719   0.996  52.535  1.00  0.00     0.139 A 
HETATM   19  C12 UNL     1      23.918   0.701  53.158  1.00  0.00     0.053 A 
HETATM   20  C13 UNL     1      25.136   1.105  52.651  1.00  0.00     0.089 A 
HETATM   21  N5  UNL     1      25.091   1.810  51.507  1.00  0.00    -0.062 NA
BRANCH  20  22
HETATM   22  C14 UNL     1      26.405   0.799  53.301  1.00  0.00     0.011 A 
HETATM   23  C15 UNL     1      27.649   1.149  52.832  1.00  0.00     0.017 A 
HETATM   24  C16 UNL     1      28.782   0.795  53.552  1.00  0.00     0.020 A 
HETATM   25  C17 UNL     1      28.696   0.091  54.740  1.00  0.00     0.116 A 
HETATM   26  N4  UNL     1      27.485  -0.240  55.180  1.00  0.00    -0.272 NA
HETATM   27  C18 UNL     1      26.389   0.102  54.487  1.00  0.00     0.130 A 
ENDBRANCH  20  22
ENDBRANCH   1  16
TORSDOF 6
ENDMDL
