MODEL 1
REMARK VINA RESULT:      -8.0      0.000      0.000
REMARK  1 active torsions:
REMARK  status: ('A' for Active; 'I' for Inactive)
REMARK    1  A    between atoms: C7_9  and  N3_10 
ROOT
HETATM    1  C1  UNL     1      26.654   4.330  49.319  1.00  0.00     0.018 C 
HETATM    2  C2  UNL     1      25.660   4.950  49.674  1.00  0.00    -0.072 C 
HETATM    3  C3  UNL     1      24.513   5.692  50.083  1.00  0.00     0.087 A 
HETATM    4  C4  UNL     1      24.523   7.037  50.463  1.00  0.00     0.054 A 
HETATM    5  C5  UNL     1      25.836   7.734  50.457  1.00  0.00     0.072 C 
HETATM    6  N1  UNL     1      23.398   7.665  50.817  1.00  0.00    -0.245 NA
HETATM    7  C6  UNL     1      22.205   7.059  50.833  1.00  0.00     0.235 A 
HETATM    8  N2  UNL     1      22.141   5.734  50.468  1.00  0.00    -0.222 NA
HETATM    9  C7  UNL     1      23.277   5.114  50.115  1.00  0.00     0.155 A 
ENDROOT
BRANCH   9  10
HETATM   10  N3  UNL     1      23.182   3.769  49.763  1.00  0.00    -0.313 N 
HETATM   11  C8  UNL     1      23.173   2.991  48.577  1.00  0.00     0.122 C 
HETATM   12  C9  UNL     1      22.359   2.108  47.993  1.00  0.00     0.155 C 
HETATM   13  O1  UNL     1      21.121   1.705  48.554  1.00  0.00    -0.336 OA
HETATM   14  C10 UNL     1      21.164   0.634  49.527  1.00  0.00     0.350 C 
HETATM   15  O2  UNL     1      20.679   1.189  50.718  1.00  0.00    -0.325 OA
HETATM   16  C11 UNL     1      20.694   0.569  51.934  1.00  0.00     0.086 A 
HETATM   17  C12 UNL     1      19.994  -0.177  52.846  1.00  0.00     0.038 A 
HETATM   18  C16 UNL     1      22.031   0.911  52.297  1.00  0.00     0.059 A 
HETATM   19  C13 UNL     1      20.612  -0.533  54.016  1.00  0.00     0.006 A 
HETATM   20  C14 UNL     1      21.888  -0.200  54.349  1.00  0.00     0.043 A 
HETATM   21  C15 UNL     1      22.664   0.562  53.463  1.00  0.00     0.131 A 
HETATM   22  F1  UNL     1      23.942   0.910  53.746  1.00  0.00    -0.205 F 
HETATM   23  C17 UNL     1      22.950   1.683  51.439  1.00  0.00     0.066 C 
HETATM   24 CL1  UNL     1      24.640   1.437  51.207  1.00  0.00    -0.082 Cl
HETATM   25  C18 UNL     1      22.996   2.693  50.647  1.00  0.00     0.123 C 
ENDBRANCH   9  10
TORSDOF 1
ENDMDL
MODEL 2
REMARK VINA RESULT:      -7.7      2.716      6.399
REMARK  1 active torsions:
REMARK  status: ('A' for Active; 'I' for Inactive)
REMARK    1  A    between atoms: C7_9  and  N3_10 
ROOT
HETATM    1  C1  UNL     1      19.763  -0.088  52.771  1.00  0.00     0.018 C 
HETATM    2  C2  UNL     1      20.980   0.031  52.819  1.00  0.00    -0.072 C 
HETATM    3  C3  UNL     1      22.399   0.151  52.888  1.00  0.00     0.087 A 
HETATM    4  C4  UNL     1      23.202  -0.404  53.888  1.00  0.00     0.054 A 
HETATM    5  C5  UNL     1      22.515  -1.157  54.970  1.00  0.00     0.072 C 
HETATM    6  N1  UNL     1      24.530  -0.260  53.870  1.00  0.00    -0.245 NA
HETATM    7  C6  UNL     1      25.172   0.415  52.909  1.00  0.00     0.235 A 
HETATM    8  N2  UNL     1      24.427   0.982  51.901  1.00  0.00    -0.222 NA
HETATM    9  C7  UNL     1      23.094   0.831  51.930  1.00  0.00     0.155 A 
ENDROOT
BRANCH   9  10
HETATM   10  N3  UNL     1      22.366   1.428  50.902  1.00  0.00    -0.313 N 
HETATM   11  C8  UNL     1      21.581   1.016  49.795  1.00  0.00     0.122 C 
HETATM   12  C9  UNL     1      21.580   1.204  48.473  1.00  0.00     0.155 C 
HETATM   13  O1  UNL     1      22.543   1.999  47.803  1.00  0.00    -0.336 OA
HETATM   14  C10 UNL     1      22.287   3.423  47.746  1.00  0.00     0.350 C 
HETATM   15  O2  UNL     1      23.352   4.024  48.429  1.00  0.00    -0.325 OA
HETATM   16  C11 UNL     1      23.429   5.349  48.749  1.00  0.00     0.086 A 
HETATM   17  C12 UNL     1      23.908   6.584  48.398  1.00  0.00     0.038 A 
HETATM   18  C16 UNL     1      22.665   5.290  49.953  1.00  0.00     0.059 A 
HETATM   19  C13 UNL     1      23.625   7.652  49.209  1.00  0.00     0.006 A 
HETATM   20  C14 UNL     1      22.895   7.582  50.355  1.00  0.00     0.043 A 
HETATM   21  C15 UNL     1      22.374   6.349  50.775  1.00  0.00     0.131 A 
HETATM   22  F1  UNL     1      21.633   6.231  51.902  1.00  0.00    -0.205 F 
HETATM   23  C17 UNL     1      22.044   4.061  50.481  1.00  0.00     0.066 C 
HETATM   24 CL1  UNL     1      20.502   3.891  51.230  1.00  0.00    -0.082 Cl
HETATM   25  C18 UNL     1      22.259   2.806  50.655  1.00  0.00     0.123 C 
ENDBRANCH   9  10
TORSDOF 1
ENDMDL
MODEL 3
REMARK VINA RESULT:      -7.6      8.218     11.051
REMARK  1 active torsions:
REMARK  status: ('A' for Active; 'I' for Inactive)
REMARK    1  A    between atoms: C7_9  and  N3_10 
ROOT
HETATM    1  C1  UNL     1      32.686   3.754  45.740  1.00  0.00     0.018 C 
HETATM    2  C2  UNL     1      32.838   4.750  45.046  1.00  0.00    -0.072 C 
HETATM    3  C3  UNL     1      33.010   5.898  44.219  1.00  0.00     0.087 A 
HETATM    4  C4  UNL     1      33.264   5.864  42.844  1.00  0.00     0.054 A 
HETATM    5  C5  UNL     1      33.382   4.526  42.209  1.00  0.00     0.072 C 
HETATM    6  N1  UNL     1      33.395   6.989  42.137  1.00  0.00    -0.245 NA
HETATM    7  C6  UNL     1      33.296   8.206  42.685  1.00  0.00     0.235 A 
HETATM    8  N2  UNL     1      33.048   8.295  44.035  1.00  0.00    -0.222 NA
HETATM    9  C7  UNL     1      32.917   7.157  44.736  1.00  0.00     0.155 A 
ENDROOT
BRANCH   9  10
HETATM   10  N3  UNL     1      32.680   7.280  46.104  1.00  0.00    -0.313 N 
HETATM   11  C8  UNL     1      33.438   7.324  47.302  1.00  0.00     0.122 C 
HETATM   12  C9  UNL     1      33.495   6.642  48.449  1.00  0.00     0.155 C 
HETATM   13  O1  UNL     1      32.650   5.542  48.739  1.00  0.00    -0.336 OA
HETATM   14  C10 UNL     1      31.345   5.848  49.285  1.00  0.00     0.350 C 
HETATM   15  O2  UNL     1      30.423   5.359  48.350  1.00  0.00    -0.325 OA
HETATM   16  C11 UNL     1      29.075   5.574  48.394  1.00  0.00     0.086 A 
HETATM   17  C12 UNL     1      27.852   5.088  48.772  1.00  0.00     0.038 A 
HETATM   18  C16 UNL     1      29.075   6.851  47.755  1.00  0.00     0.059 A 
HETATM   19  C13 UNL     1      26.738   5.845  48.518  1.00  0.00     0.006 A 
HETATM   20  C14 UNL     1      26.751   7.061  47.908  1.00  0.00     0.043 A 
HETATM   21  C15 UNL     1      27.969   7.620  47.494  1.00  0.00     0.131 A 
HETATM   22  F1  UNL     1      28.034   8.831  46.892  1.00  0.00    -0.205 F 
HETATM   23  C17 UNL     1      30.291   7.550  47.301  1.00  0.00     0.066 C 
HETATM   24 CL1  UNL     1      30.640   9.236  47.395  1.00  0.00    -0.082 Cl
HETATM   25  C18 UNL     1      31.421   7.356  46.722  1.00  0.00     0.123 C 
ENDBRANCH   9  10
TORSDOF 1
ENDMDL
MODEL 4
REMARK VINA RESULT:      -7.5     25.069     26.295
REMARK  1 active torsions:
REMARK  status: ('A' for Active; 'I' for Inactive)
REMARK    1  A    between atoms: C7_9  and  N3_10 
ROOT
HETATM    1  C1  UNL     1      43.086   3.925  71.545  1.00  0.00     0.018 C 
HETATM    2  C2  UNL     1      43.445   3.897  70.375  1.00  0.00    -0.072 C 
HETATM    3  C3  UNL     1      43.876   3.883  69.017  1.00  0.00     0.087 A 
HETATM    4  C4  UNL     1      44.326   5.001  68.307  1.00  0.00     0.054 A 
HETATM    5  C5  UNL     1      44.333   6.302  69.026  1.00  0.00     0.072 C 
HETATM    6  N1  UNL     1      44.729   4.900  67.038  1.00  0.00    -0.245 NA
HETATM    7  C6  UNL     1      44.730   3.741  66.369  1.00  0.00     0.235 A 
HETATM    8  N2  UNL     1      44.295   2.610  67.020  1.00  0.00    -0.222 NA
HETATM    9  C7  UNL     1      43.892   2.724  68.296  1.00  0.00     0.155 A 
ENDROOT
BRANCH   9  10
HETATM   10  N3  UNL     1      43.445   1.564  68.925  1.00  0.00    -0.313 N 
HETATM   11  C8  UNL     1      43.993   0.517  69.710  1.00  0.00     0.122 C 
HETATM   12  C9  UNL     1      44.070  -0.815  69.647  1.00  0.00     0.155 C 
HETATM   13  O1  UNL     1      43.514  -1.574  68.587  1.00  0.00    -0.336 OA
HETATM   14  C10 UNL     1      42.112  -1.917  68.697  1.00  0.00     0.350 C 
HETATM   15  O2  UNL     1      41.489  -1.308  67.600  1.00  0.00    -0.325 OA
HETATM   16  C11 UNL     1      40.139  -1.246  67.402  1.00  0.00     0.086 A 
HETATM   17  C12 UNL     1      39.047  -1.802  66.790  1.00  0.00     0.038 A 
HETATM   18  C16 UNL     1      39.890  -0.095  68.208  1.00  0.00     0.059 A 
HETATM   19  C13 UNL     1      37.819  -1.228  66.991  1.00  0.00     0.006 A 
HETATM   20  C14 UNL     1      37.595  -0.131  67.762  1.00  0.00     0.043 A 
HETATM   21  C15 UNL     1      38.667   0.491  68.419  1.00  0.00     0.131 A 
HETATM   22  F1  UNL     1      38.492   1.579  69.206  1.00  0.00    -0.205 F 
HETATM   23  C17 UNL     1      40.929   0.627  68.966  1.00  0.00     0.066 C 
HETATM   24 CL1  UNL     1      40.805   1.312  70.543  1.00  0.00    -0.082 Cl
HETATM   25  C18 UNL     1      42.138   1.051  68.884  1.00  0.00     0.123 C 
ENDBRANCH   9  10
TORSDOF 1
ENDMDL
MODEL 5
REMARK VINA RESULT:      -7.3      1.112      2.180
REMARK  1 active torsions:
REMARK  status: ('A' for Active; 'I' for Inactive)
REMARK    1  A    between atoms: C7_9  and  N3_10 
ROOT
HETATM    1  C1  UNL     1      19.754   4.766  49.442  1.00  0.00     0.018 C 
HETATM    2  C2  UNL     1      20.821   5.284  49.745  1.00  0.00    -0.072 C 
HETATM    3  C3  UNL     1      22.052   5.903  50.110  1.00  0.00     0.087 A 
HETATM    4  C4  UNL     1      22.198   7.246  50.472  1.00  0.00     0.054 A 
HETATM    5  C5  UNL     1      20.974   8.089  50.455  1.00  0.00     0.072 C 
HETATM    6  N1  UNL     1      23.387   7.745  50.818  1.00  0.00    -0.245 NA
HETATM    7  C6  UNL     1      24.504   7.008  50.839  1.00  0.00     0.235 A 
HETATM    8  N2  UNL     1      24.416   5.680  50.489  1.00  0.00    -0.222 NA
HETATM    9  C7  UNL     1      23.215   5.190  50.144  1.00  0.00     0.155 A 
ENDROOT
BRANCH   9  10
HETATM   10  N3  UNL     1      23.161   3.845  49.782  1.00  0.00    -0.313 N 
HETATM   11  C8  UNL     1      23.276   3.070  48.600  1.00  0.00     0.122 C 
HETATM   12  C9  UNL     1      22.530   2.185  47.934  1.00  0.00     0.155 C 
HETATM   13  O1  UNL     1      21.243   1.778  48.364  1.00  0.00    -0.336 OA
HETATM   14  C10 UNL     1      21.189   0.705  49.335  1.00  0.00     0.350 C 
HETATM   15  O2  UNL     1      20.582   1.255  50.470  1.00  0.00    -0.325 OA
HETATM   16  C11 UNL     1      20.474   0.632  51.680  1.00  0.00     0.086 A 
HETATM   17  C12 UNL     1      19.686  -0.117  52.514  1.00  0.00     0.038 A 
HETATM   18  C16 UNL     1      21.766   0.978  52.179  1.00  0.00     0.059 A 
HETATM   19  C13 UNL     1      20.183  -0.474  53.740  1.00  0.00     0.006 A 
HETATM   20  C14 UNL     1      21.416  -0.138  54.204  1.00  0.00     0.043 A 
HETATM   21  C15 UNL     1      22.276   0.628  53.403  1.00  0.00     0.131 A 
HETATM   22  F1  UNL     1      23.517   0.980  53.817  1.00  0.00    -0.205 F 
HETATM   23  C17 UNL     1      22.765   1.755  51.422  1.00  0.00     0.066 C 
HETATM   24 CL1  UNL     1      24.471   1.514  51.364  1.00  0.00    -0.082 Cl
HETATM   25  C18 UNL     1      22.889   2.767  50.640  1.00  0.00     0.123 C 
ENDBRANCH   9  10
TORSDOF 1
ENDMDL
MODEL 6
REMARK VINA RESULT:      -7.3      2.881      4.321
REMARK  1 active torsions:
REMARK  status: ('A' for Active; 'I' for Inactive)
REMARK    1  A    between atoms: C7_9  and  N3_10 
ROOT
HETATM    1  C1  UNL     1      23.785   5.286  48.303  1.00  0.00     0.018 C 
HETATM    2  C2  UNL     1      22.689   4.804  48.050  1.00  0.00    -0.072 C 
HETATM    3  C3  UNL     1      21.421   4.234  47.734  1.00  0.00     0.087 A 
HETATM    4  C4  UNL     1      20.961   3.971  46.440  1.00  0.00     0.054 A 
HETATM    5  C5  UNL     1      21.860   4.333  45.314  1.00  0.00     0.072 C 
HETATM    6  N1  UNL     1      19.763   3.418  46.231  1.00  0.00    -0.245 NA
HETATM    7  C6  UNL     1      18.935   3.084  47.227  1.00  0.00     0.235 A 
HETATM    8  N2  UNL     1      19.339   3.324  48.520  1.00  0.00    -0.222 NA
HETATM    9  C7  UNL     1      20.545   3.880  48.719  1.00  0.00     0.155 A 
ENDROOT
BRANCH   9  10
HETATM   10  N3  UNL     1      20.921   4.122  50.038  1.00  0.00    -0.313 N 
HETATM   11  C8  UNL     1      21.091   5.241  50.894  1.00  0.00     0.122 C 
HETATM   12  C9  UNL     1      22.072   5.767  51.633  1.00  0.00     0.155 C 
HETATM   13  O1  UNL     1      23.367   5.200  51.718  1.00  0.00    -0.336 OA
HETATM   14  C10 UNL     1      23.553   4.141  52.688  1.00  0.00     0.350 C 
HETATM   15  O2  UNL     1      23.913   3.010  51.946  1.00  0.00    -0.325 OA
HETATM   16  C11 UNL     1      24.032   1.747  52.452  1.00  0.00     0.086 A 
HETATM   17  C12 UNL     1      24.875   0.792  52.955  1.00  0.00     0.038 A 
HETATM   18  C16 UNL     1      22.653   1.387  52.368  1.00  0.00     0.059 A 
HETATM   19  C13 UNL     1      24.348  -0.415  53.334  1.00  0.00     0.006 A 
HETATM   20  C14 UNL     1      23.032  -0.746  53.249  1.00  0.00     0.043 A 
HETATM   21  C15 UNL     1      22.111   0.184  52.743  1.00  0.00     0.131 A 
HETATM   22  F1  UNL     1      20.789  -0.095  52.649  1.00  0.00    -0.205 F 
HETATM   23  C17 UNL     1      21.591   2.286  51.881  1.00  0.00     0.066 C 
HETATM   24 CL1  UNL     1      19.990   2.464  52.495  1.00  0.00    -0.082 Cl
HETATM   25  C18 UNL     1      21.331   3.157  50.973  1.00  0.00     0.123 C 
ENDBRANCH   9  10
TORSDOF 1
ENDMDL
MODEL 7
REMARK VINA RESULT:      -7.2      3.047      6.184
REMARK  1 active torsions:
REMARK  status: ('A' for Active; 'I' for Inactive)
REMARK    1  A    between atoms: C7_9  and  N3_10 
ROOT
HETATM    1  C1  UNL     1      20.430   1.659  53.001  1.00  0.00     0.018 C 
HETATM    2  C2  UNL     1      21.548   1.166  53.066  1.00  0.00    -0.072 C 
HETATM    3  C3  UNL     1      22.842   0.571  53.142  1.00  0.00     0.087 A 
HETATM    4  C4  UNL     1      23.112  -0.692  53.676  1.00  0.00     0.054 A 
HETATM    5  C5  UNL     1      21.961  -1.459  54.221  1.00  0.00     0.072 C 
HETATM    6  N1  UNL     1      24.353  -1.185  53.694  1.00  0.00    -0.245 NA
HETATM    7  C6  UNL     1      25.406  -0.514  53.212  1.00  0.00     0.235 A 
HETATM    8  N2  UNL     1      25.195   0.735  52.677  1.00  0.00    -0.222 NA
HETATM    9  C7  UNL     1      23.943   1.220  52.664  1.00  0.00     0.155 A 
ENDROOT
BRANCH   9  10
HETATM   10  N3  UNL     1      23.763   2.493  52.127  1.00  0.00    -0.313 N 
HETATM   11  C8  UNL     1      24.028   3.837  52.497  1.00  0.00     0.122 C 
HETATM   12  C9  UNL     1      23.328   4.963  52.662  1.00  0.00     0.155 C 
HETATM   13  O1  UNL     1      21.928   5.041  52.458  1.00  0.00    -0.336 OA
HETATM   14  C10 UNL     1      21.478   5.265  51.100  1.00  0.00     0.350 C 
HETATM   15  O2  UNL     1      20.717   4.138  50.767  1.00  0.00    -0.325 OA
HETATM   16  C11 UNL     1      20.230   3.862  49.521  1.00  0.00     0.086 A 
HETATM   17  C12 UNL     1      19.160   3.940  48.669  1.00  0.00     0.038 A 
HETATM   18  C16 UNL     1      21.407   3.246  48.998  1.00  0.00     0.059 A 
HETATM   19  C13 UNL     1      19.291   3.432  47.403  1.00  0.00     0.006 A 
HETATM   20  C14 UNL     1      20.418   2.847  46.917  1.00  0.00     0.043 A 
HETATM   21  C15 UNL     1      21.553   2.734  47.734  1.00  0.00     0.131 A 
HETATM   22  F1  UNL     1      22.702   2.169  47.292  1.00  0.00    -0.205 F 
HETATM   23  C17 UNL     1      22.666   3.094  49.750  1.00  0.00     0.066 C 
HETATM   24 CL1  UNL     1      24.277   3.273  49.164  1.00  0.00    -0.082 Cl
HETATM   25  C18 UNL     1      23.129   2.797  50.911  1.00  0.00     0.123 C 
ENDBRANCH   9  10
TORSDOF 1
ENDMDL
MODEL 8
REMARK VINA RESULT:      -7.2      7.747     11.396
REMARK  1 active torsions:
REMARK  status: ('A' for Active; 'I' for Inactive)
REMARK    1  A    between atoms: C7_9  and  N3_10 
ROOT
HETATM    1  C1  UNL     1      29.535   9.781  47.537  1.00  0.00     0.018 C 
HETATM    2  C2  UNL     1      29.041   8.694  47.802  1.00  0.00    -0.072 C 
HETATM    3  C3  UNL     1      28.446   7.433  48.100  1.00  0.00     0.087 A 
HETATM    4  C4  UNL     1      27.072   7.174  48.099  1.00  0.00     0.054 A 
HETATM    5  C5  UNL     1      26.169   8.311  47.782  1.00  0.00     0.072 C 
HETATM    6  N1  UNL     1      26.596   5.957  48.373  1.00  0.00    -0.245 NA
HETATM    7  C6  UNL     1      27.388   4.918  48.663  1.00  0.00     0.235 A 
HETATM    8  N2  UNL     1      28.749   5.119  48.679  1.00  0.00    -0.222 NA
HETATM    9  C7  UNL     1      29.216   6.346  48.402  1.00  0.00     0.155 A 
ENDROOT
BRANCH   9  10
HETATM   10  N3  UNL     1      30.598   6.522  48.438  1.00  0.00    -0.313 N 
HETATM   11  C8  UNL     1      31.556   7.142  49.280  1.00  0.00     0.122 C 
HETATM   12  C9  UNL     1      32.506   8.074  49.161  1.00  0.00     0.155 C 
HETATM   13  O1  UNL     1      32.788   8.741  47.943  1.00  0.00    -0.336 OA
HETATM   14  C10 UNL     1      33.688   8.073  47.027  1.00  0.00     0.350 C 
HETATM   15  O2  UNL     1      32.939   7.839  45.867  1.00  0.00    -0.325 OA
HETATM   16  C11 UNL     1      33.356   7.091  44.804  1.00  0.00     0.086 A 
HETATM   17  C12 UNL     1      33.931   7.093  43.560  1.00  0.00     0.038 A 
HETATM   18  C16 UNL     1      32.986   5.814  45.323  1.00  0.00     0.059 A 
HETATM   19  C13 UNL     1      34.107   5.896  42.917  1.00  0.00     0.006 A 
HETATM   20  C14 UNL     1      33.750   4.685  43.423  1.00  0.00     0.043 A 
HETATM   21  C15 UNL     1      33.156   4.608  44.692  1.00  0.00     0.131 A 
HETATM   22  F1  UNL     1      32.792   3.426  45.243  1.00  0.00    -0.205 F 
HETATM   23  C17 UNL     1      32.381   5.605  46.652  1.00  0.00     0.066 C 
HETATM   24 CL1  UNL     1      32.696   4.330  47.769  1.00  0.00    -0.082 Cl
HETATM   25  C18 UNL     1      31.513   6.092  47.463  1.00  0.00     0.123 C 
ENDBRANCH   9  10
TORSDOF 1
ENDMDL
MODEL 9
REMARK VINA RESULT:      -7.0      4.953      7.362
REMARK  1 active torsions:
REMARK  status: ('A' for Active; 'I' for Inactive)
REMARK    1  A    between atoms: C7_9  and  N3_10 
ROOT
HETATM    1  C1  UNL     1      23.644   8.297  46.004  1.00  0.00     0.018 C 
HETATM    2  C2  UNL     1      23.025   7.251  46.149  1.00  0.00    -0.072 C 
HETATM    3  C3  UNL     1      22.306   6.029  46.295  1.00  0.00     0.087 A 
HETATM    4  C4  UNL     1      21.553   5.417  45.288  1.00  0.00     0.054 A 
HETATM    5  C5  UNL     1      21.488   6.110  43.975  1.00  0.00     0.072 C 
HETATM    6  N1  UNL     1      20.922   4.260  45.502  1.00  0.00    -0.245 NA
HETATM    7  C6  UNL     1      20.963   3.618  46.675  1.00  0.00     0.235 A 
HETATM    8  N2  UNL     1      21.689   4.179  47.701  1.00  0.00    -0.222 NA
HETATM    9  C7  UNL     1      22.319   5.342  47.474  1.00  0.00     0.155 A 
ENDROOT
BRANCH   9  10
HETATM   10  N3  UNL     1      23.035   5.891  48.536  1.00  0.00    -0.313 N 
HETATM   11  C8  UNL     1      22.769   6.673  49.690  1.00  0.00     0.122 C 
HETATM   12  C9  UNL     1      23.178   7.839  50.196  1.00  0.00     0.155 C 
HETATM   13  O1  UNL     1      24.133   8.669  49.558  1.00  0.00    -0.336 OA
HETATM   14  C10 UNL     1      25.527   8.367  49.805  1.00  0.00     0.350 C 
HETATM   15  O2  UNL     1      26.068   8.043  48.554  1.00  0.00    -0.325 OA
HETATM   16  C11 UNL     1      27.322   7.543  48.350  1.00  0.00     0.086 A 
HETATM   17  C12 UNL     1      28.626   7.822  48.033  1.00  0.00     0.038 A 
HETATM   18  C16 UNL     1      27.014   6.172  48.593  1.00  0.00     0.059 A 
HETATM   19  C13 UNL     1      29.522   6.786  47.973  1.00  0.00     0.006 A 
HETATM   20  C14 UNL     1      29.214   5.482  48.208  1.00  0.00     0.043 A 
HETATM   21  C15 UNL     1      27.899   5.125  48.538  1.00  0.00     0.131 A 
HETATM   22  F1  UNL     1      27.546   3.842  48.790  1.00  0.00    -0.205 F 
HETATM   23  C17 UNL     1      25.677   5.678  48.973  1.00  0.00     0.066 C 
HETATM   24 CL1  UNL     1      25.288   4.444  50.112  1.00  0.00    -0.082 Cl
HETATM   25  C18 UNL     1      24.427   5.827  48.718  1.00  0.00     0.123 C 
ENDBRANCH   9  10
TORSDOF 1
ENDMDL
