MODEL 1
REMARK VINA RESULT:      -9.0      0.000      0.000
REMARK  6 active torsions:
REMARK  status: ('A' for Active; 'I' for Inactive)
REMARK    1  A    between atoms: O1_2  and  C2_3 
REMARK    2  A    between atoms: C2_3  and  C3_4 
REMARK    3  A    between atoms: C3_4  and  O2_5 
REMARK    4  A    between atoms: O2_5  and  C4_6 
REMARK    5  A    between atoms: C11_18  and  N3_19 
REMARK    6  A    between atoms: N3_19  and  C12_20 
ROOT
HETATM    1  C4  UNL     1      21.521   0.650  52.102  1.00  0.00     0.090 C 
HETATM    2  C5  UNL     1      21.168   0.457  50.837  1.00  0.00     0.171 C 
HETATM    3  O3  UNL     1      21.586   0.802  49.546  1.00  0.00    -0.358 OA
HETATM    4  C6  UNL     1      20.983   1.948  48.908  1.00  0.00     0.200 C 
HETATM    5  C7  UNL     1      22.118   2.573  48.130  1.00  0.00     0.194 C 
HETATM    6  O4  UNL     1      23.121   2.893  49.003  1.00  0.00    -0.386 OA
HETATM    7  C8  UNL     1      22.751   3.810  49.942  1.00  0.00     0.203 C 
HETATM    8  C9  UNL     1      23.935   4.031  50.934  1.00  0.00     0.193 C 
HETATM    9  O5  UNL     1      24.846   4.839  50.279  1.00  0.00    -0.247 OA
HETATM   10  N1  UNL     1      25.758   4.517  49.270  1.00  0.00    -0.127 NA
HETATM   11  C10 UNL     1      26.698   3.636  49.527  1.00  0.00     0.264 C 
HETATM   12  N2  UNL     1      26.854   2.979  50.781  1.00  0.00    -0.226 NA
HETATM   13  C11 UNL     1      25.897   2.586  51.548  1.00  0.00     0.116 C 
HETATM   14  C19 UNL     1      24.438   2.683  51.382  1.00  0.00     0.112 C 
HETATM   15  C20 UNL     1      23.671   2.118  52.506  1.00  0.00    -0.009 C 
HETATM   16  C21 UNL     1      22.603   1.374  52.735  1.00  0.00     0.035 C 
ENDROOT
BRANCH  13  17
HETATM   17  N3  UNL     1      26.368   1.960  52.734  1.00  0.00    -0.344 N 
HETATM   18  H17 UNL     1      26.343   2.527  53.629  1.00  0.00     0.167 HD
BRANCH  17  19
HETATM   19  C12 UNL     1      26.873   0.639  52.783  1.00  0.00     0.033 A 
HETATM   20  C13 UNL     1      26.238  -0.527  52.448  1.00  0.00     0.029 A 
HETATM   21  C14 UNL     1      26.793  -1.785  52.534  1.00  0.00     0.003 A 
HETATM   22  C15 UNL     1      28.089  -1.917  52.989  1.00  0.00     0.007 A 
HETATM   23  C16 UNL     1      28.788  -0.783  53.345  1.00  0.00    -0.060 A 
HETATM   24  C17 UNL     1      30.168  -0.956  53.827  1.00  0.00     0.048 C 
HETATM   25  C18 UNL     1      28.177   0.444  53.236  1.00  0.00     0.036 A 
ENDBRANCH  17  19
ENDBRANCH  13  17
BRANCH   1  26
HETATM   26  O2  UNL     1      20.579  -0.035  52.852  1.00  0.00    -0.347 OA
BRANCH  26  27
HETATM   27  C3  UNL     1      20.736  -0.481  54.163  1.00  0.00     0.201 C 
BRANCH  27  28
HETATM   28  C2  UNL     1      21.509  -1.791  54.234  1.00  0.00     0.193 C 
BRANCH  28  29
HETATM   29  O1  UNL     1      22.182  -1.924  55.440  1.00  0.00    -0.394 OA
HETATM   30  C1  UNL     1      23.414  -1.255  55.273  1.00  0.00     0.201 C 
ENDBRANCH  28  29
ENDBRANCH  27  28
ENDBRANCH  26  27
ENDBRANCH   1  26
TORSDOF 6
ENDMDL
MODEL 2
REMARK VINA RESULT:      -8.3      2.854      6.032
REMARK  6 active torsions:
REMARK  status: ('A' for Active; 'I' for Inactive)
REMARK    1  A    between atoms: O1_2  and  C2_3 
REMARK    2  A    between atoms: C2_3  and  C3_4 
REMARK    3  A    between atoms: C3_4  and  O2_5 
REMARK    4  A    between atoms: O2_5  and  C4_6 
REMARK    5  A    between atoms: C11_18  and  N3_19 
REMARK    6  A    between atoms: N3_19  and  C12_20 
ROOT
HETATM    1  C4  UNL     1      26.096   0.900  53.998  1.00  0.00     0.090 C 
HETATM    2  C5  UNL     1      25.362  -0.205  54.047  1.00  0.00     0.171 C 
HETATM    3  O3  UNL     1      24.250  -0.777  53.417  1.00  0.00    -0.358 OA
HETATM    4  C6  UNL     1      22.950  -0.609  54.021  1.00  0.00     0.200 C 
HETATM    5  C7  UNL     1      22.016  -0.458  52.844  1.00  0.00     0.194 C 
HETATM    6  O4  UNL     1      22.421   0.616  52.100  1.00  0.00    -0.386 OA
HETATM    7  C8  UNL     1      22.371   1.797  52.781  1.00  0.00     0.203 C 
HETATM    8  C9  UNL     1      22.938   2.933  51.874  1.00  0.00     0.193 C 
HETATM    9  O5  UNL     1      21.942   3.238  50.964  1.00  0.00    -0.247 OA
HETATM   10  N1  UNL     1      21.534   2.539  49.824  1.00  0.00    -0.127 NA
HETATM   11  C10 UNL     1      22.396   2.363  48.849  1.00  0.00     0.264 C 
HETATM   12  N2  UNL     1      23.737   2.843  48.873  1.00  0.00    -0.226 NA
HETATM   13  C11 UNL     1      24.502   2.883  49.909  1.00  0.00     0.116 C 
HETATM   14  C19 UNL     1      24.251   2.472  51.299  1.00  0.00     0.112 C 
HETATM   15  C20 UNL     1      25.395   2.695  52.202  1.00  0.00    -0.009 C 
HETATM   16  C21 UNL     1      26.047   2.095  53.183  1.00  0.00     0.035 C 
ENDROOT
BRANCH  13  17
HETATM   17  N3  UNL     1      25.788   3.415  49.617  1.00  0.00    -0.344 N 
HETATM   18  H17 UNL     1      26.585   2.728  49.492  1.00  0.00     0.167 HD
BRANCH  17  19
HETATM   19  C12 UNL     1      26.063   4.798  49.496  1.00  0.00     0.033 A 
HETATM   20  C13 UNL     1      25.395   5.851  50.062  1.00  0.00     0.029 A 
HETATM   21  C14 UNL     1      25.717   7.179  49.888  1.00  0.00     0.003 A 
HETATM   22  C15 UNL     1      26.790   7.510  49.087  1.00  0.00     0.007 A 
HETATM   23  C16 UNL     1      27.507   6.499  48.484  1.00  0.00    -0.060 A 
HETATM   24  C17 UNL     1      28.646   6.884  47.634  1.00  0.00     0.048 C 
HETATM   25  C18 UNL     1      27.135   5.193  48.698  1.00  0.00     0.036 A 
ENDBRANCH  17  19
ENDBRANCH  13  17
BRANCH   1  26
HETATM   26  O2  UNL     1      27.065   0.737  54.975  1.00  0.00    -0.347 OA
BRANCH  26  27
HETATM   27  C3  UNL     1      28.237  -0.009  54.857  1.00  0.00     0.201 C 
BRANCH  27  28
HETATM   28  C2  UNL     1      29.324   0.748  54.107  1.00  0.00     0.193 C 
BRANCH  28  29
HETATM   29  O1  UNL     1      30.193  -0.115  53.455  1.00  0.00    -0.394 OA
HETATM   30  C1  UNL     1      29.519  -1.353  53.369  1.00  0.00     0.201 C 
ENDBRANCH  28  29
ENDBRANCH  27  28
ENDBRANCH  26  27
ENDBRANCH   1  26
TORSDOF 6
ENDMDL
MODEL 3
REMARK VINA RESULT:      -8.1      2.882      6.471
REMARK  6 active torsions:
REMARK  status: ('A' for Active; 'I' for Inactive)
REMARK    1  A    between atoms: O1_2  and  C2_3 
REMARK    2  A    between atoms: C2_3  and  C3_4 
REMARK    3  A    between atoms: C3_4  and  O2_5 
REMARK    4  A    between atoms: O2_5  and  C4_6 
REMARK    5  A    between atoms: C11_18  and  N3_19 
REMARK    6  A    between atoms: N3_19  and  C12_20 
ROOT
HETATM    1  C4  UNL     1      27.284   5.789  48.448  1.00  0.00     0.090 C 
HETATM    2  C5  UNL     1      26.417   6.791  48.363  1.00  0.00     0.171 C 
HETATM    3  O3  UNL     1      25.123   7.122  48.782  1.00  0.00    -0.358 OA
HETATM    4  C6  UNL     1      24.023   6.889  47.877  1.00  0.00     0.200 C 
HETATM    5  C7  UNL     1      22.893   6.450  48.779  1.00  0.00     0.194 C 
HETATM    6  O4  UNL     1      23.290   5.333  49.462  1.00  0.00    -0.386 OA
HETATM    7  C8  UNL     1      23.567   4.272  48.653  1.00  0.00     0.203 C 
HETATM    8  C9  UNL     1      24.094   3.089  49.523  1.00  0.00     0.193 C 
HETATM    9  O5  UNL     1      22.986   2.532  50.134  1.00  0.00    -0.247 OA
HETATM   10  N1  UNL     1      22.243   2.996  51.224  1.00  0.00    -0.127 NA
HETATM   11  C10 UNL     1      22.840   3.126  52.386  1.00  0.00     0.264 C 
HETATM   12  N2  UNL     1      24.213   2.822  52.617  1.00  0.00    -0.226 NA
HETATM   13  C11 UNL     1      25.177   3.032  51.789  1.00  0.00     0.116 C 
HETATM   14  C19 UNL     1      25.169   3.615  50.439  1.00  0.00     0.112 C 
HETATM   15  C20 UNL     1      26.499   3.672  49.805  1.00  0.00    -0.009 C 
HETATM   16  C21 UNL     1      27.245   4.488  49.081  1.00  0.00     0.035 C 
ENDROOT
BRANCH  13  17
HETATM   17  N3  UNL     1      26.438   2.624  52.305  1.00  0.00    -0.344 N 
HETATM   18  H17 UNL     1      27.135   3.383  52.551  1.00  0.00     0.167 HD
BRANCH  17  19
HETATM   19  C12 UNL     1      26.812   1.272  52.498  1.00  0.00     0.033 A 
HETATM   20  C13 UNL     1      26.090   0.142  52.226  1.00  0.00     0.029 A 
HETATM   21  C14 UNL     1      26.519  -1.148  52.453  1.00  0.00     0.003 A 
HETATM   22  C15 UNL     1      27.771  -1.352  52.996  1.00  0.00     0.007 A 
HETATM   23  C16 UNL     1      28.553  -0.257  53.296  1.00  0.00    -0.060 A 
HETATM   24  C17 UNL     1      29.883  -0.507  53.875  1.00  0.00     0.048 C 
HETATM   25  C18 UNL     1      28.066   1.004  53.045  1.00  0.00     0.036 A 
ENDBRANCH  17  19
ENDBRANCH  13  17
BRANCH   1  26
HETATM   26  O2  UNL     1      28.402   6.215  47.750  1.00  0.00    -0.347 OA
BRANCH  26  27
HETATM   27  C3  UNL     1      29.685   6.383  48.270  1.00  0.00     0.201 C 
BRANCH  27  28
HETATM   28  C2  UNL     1      30.645   5.307  47.783  1.00  0.00     0.193 C 
BRANCH  28  29
HETATM   29  O1  UNL     1      31.584   4.981  48.751  1.00  0.00    -0.394 OA
HETATM   30  C1  UNL     1      32.817   4.860  48.073  1.00  0.00     0.201 C 
ENDBRANCH  28  29
ENDBRANCH  27  28
ENDBRANCH  26  27
ENDBRANCH   1  26
TORSDOF 6
ENDMDL
MODEL 4
REMARK VINA RESULT:      -8.0      2.517      6.260
REMARK  6 active torsions:
REMARK  status: ('A' for Active; 'I' for Inactive)
REMARK    1  A    between atoms: O1_2  and  C2_3 
REMARK    2  A    between atoms: C2_3  and  C3_4 
REMARK    3  A    between atoms: C3_4  and  O2_5 
REMARK    4  A    between atoms: O2_5  and  C4_6 
REMARK    5  A    between atoms: C11_18  and  N3_19 
REMARK    6  A    between atoms: N3_19  and  C12_20 
ROOT
HETATM    1  C4  UNL     1      25.992   5.370  49.520  1.00  0.00     0.090 C 
HETATM    2  C5  UNL     1      25.292   6.279  50.189  1.00  0.00     0.171 C 
HETATM    3  O3  UNL     1      24.257   6.351  51.128  1.00  0.00    -0.358 OA
HETATM    4  C6  UNL     1      22.906   6.536  50.655  1.00  0.00     0.200 C 
HETATM    5  C7  UNL     1      22.069   5.707  51.601  1.00  0.00     0.194 C 
HETATM    6  O4  UNL     1      22.501   4.409  51.541  1.00  0.00    -0.386 OA
HETATM    7  C8  UNL     1      22.356   3.846  50.308  1.00  0.00     0.203 C 
HETATM    8  C9  UNL     1      22.959   2.408  50.329  1.00  0.00     0.193 C 
HETATM    9  O5  UNL     1      22.035   1.607  50.974  1.00  0.00    -0.247 OA
HETATM   10  N1  UNL     1      21.747   1.501  52.338  1.00  0.00    -0.127 NA
HETATM   11  C10 UNL     1      22.694   1.095  53.153  1.00  0.00     0.264 C 
HETATM   12  N2  UNL     1      24.011   0.750  52.737  1.00  0.00    -0.226 NA
HETATM   13  C11 UNL     1      24.685   1.338  51.810  1.00  0.00     0.116 C 
HETATM   14  C19 UNL     1      24.331   2.477  50.948  1.00  0.00     0.112 C 
HETATM   15  C20 UNL     1      25.387   2.849  49.988  1.00  0.00    -0.009 C 
HETATM   16  C21 UNL     1      25.973   3.923  49.487  1.00  0.00     0.035 C 
ENDROOT
BRANCH  13  17
HETATM   17  N3  UNL     1      25.973   0.766  51.623  1.00  0.00    -0.344 N 
HETATM   18  H17 UNL     1      26.103   0.111  50.801  1.00  0.00     0.167 HD
BRANCH  17  19
HETATM   19  C12 UNL     1      27.078   1.015  52.472  1.00  0.00     0.033 A 
HETATM   20  C13 UNL     1      27.472   2.201  53.031  1.00  0.00     0.029 A 
HETATM   21  C14 UNL     1      28.573   2.367  53.843  1.00  0.00     0.003 A 
HETATM   22  C15 UNL     1      29.361   1.274  54.137  1.00  0.00     0.007 A 
HETATM   23  C16 UNL     1      29.023   0.048  53.606  1.00  0.00    -0.060 A 
HETATM   24  C17 UNL     1      29.884  -1.099  53.937  1.00  0.00     0.048 C 
HETATM   25  C18 UNL     1      27.912  -0.052  52.803  1.00  0.00     0.036 A 
ENDBRANCH  17  19
ENDBRANCH  13  17
BRANCH   1  26
HETATM   26  O2  UNL     1      26.880   6.094  48.742  1.00  0.00    -0.347 OA
BRANCH  26  27
HETATM   27  C3  UNL     1      28.147   5.680  48.335  1.00  0.00     0.201 C 
BRANCH  27  28
HETATM   28  C2  UNL     1      29.011   6.847  47.878  1.00  0.00     0.193 C 
BRANCH  28  29
HETATM   29  O1  UNL     1      30.282   6.792  48.432  1.00  0.00    -0.394 OA
HETATM   30  C1  UNL     1      30.819   5.543  48.049  1.00  0.00     0.201 C 
ENDBRANCH  28  29
ENDBRANCH  27  28
ENDBRANCH  26  27
ENDBRANCH   1  26
TORSDOF 6
ENDMDL
MODEL 5
REMARK VINA RESULT:      -7.9      3.235      6.872
REMARK  6 active torsions:
REMARK  status: ('A' for Active; 'I' for Inactive)
REMARK    1  A    between atoms: O1_2  and  C2_3 
REMARK    2  A    between atoms: C2_3  and  C3_4 
REMARK    3  A    between atoms: C3_4  and  O2_5 
REMARK    4  A    between atoms: O2_5  and  C4_6 
REMARK    5  A    between atoms: C11_18  and  N3_19 
REMARK    6  A    between atoms: N3_19  and  C12_20 
ROOT
HETATM    1  C4  UNL     1      27.505   5.135  48.685  1.00  0.00     0.090 C 
HETATM    2  C5  UNL     1      27.258   6.391  48.332  1.00  0.00     0.171 C 
HETATM    3  O3  UNL     1      26.238   7.345  48.427  1.00  0.00    -0.358 OA
HETATM    4  C6  UNL     1      25.321   7.490  47.321  1.00  0.00     0.200 C 
HETATM    5  C7  UNL     1      23.994   7.782  47.981  1.00  0.00     0.194 C 
HETATM    6  O4  UNL     1      23.687   6.745  48.819  1.00  0.00    -0.386 OA
HETATM    7  C8  UNL     1      23.540   5.552  48.175  1.00  0.00     0.203 C 
HETATM    8  C9  UNL     1      23.283   4.431  49.230  1.00  0.00     0.193 C 
HETATM    9  O5  UNL     1      21.963   4.559  49.621  1.00  0.00    -0.247 OA
HETATM   10  N1  UNL     1      21.376   5.494  50.479  1.00  0.00    -0.127 NA
HETATM   11  C10 UNL     1      21.769   5.535  51.731  1.00  0.00     0.264 C 
HETATM   12  N2  UNL     1      22.767   4.681  52.283  1.00  0.00    -0.226 NA
HETATM   13  C11 UNL     1      23.829   4.278  51.677  1.00  0.00     0.116 C 
HETATM   14  C19 UNL     1      24.318   4.556  50.317  1.00  0.00     0.112 C 
HETATM   15  C20 UNL     1      25.590   3.886  49.992  1.00  0.00    -0.009 C 
HETATM   16  C21 UNL     1      26.742   4.129  49.391  1.00  0.00     0.035 C 
ENDROOT
BRANCH  13  17
HETATM   17  N3  UNL     1      24.635   3.434  52.490  1.00  0.00    -0.344 N 
HETATM   18  H17 UNL     1      25.509   3.854  52.916  1.00  0.00     0.167 HD
BRANCH  17  19
HETATM   19  C12 UNL     1      24.341   2.074  52.750  1.00  0.00     0.033 A 
HETATM   20  C13 UNL     1      23.126   1.501  53.013  1.00  0.00     0.029 A 
HETATM   21  C14 UNL     1      22.919   0.163  53.270  1.00  0.00     0.003 A 
HETATM   22  C15 UNL     1      24.000  -0.695  53.269  1.00  0.00     0.007 A 
HETATM   23  C16 UNL     1      25.254  -0.184  53.012  1.00  0.00    -0.060 A 
HETATM   24  C17 UNL     1      26.387  -1.125  53.019  1.00  0.00     0.048 C 
HETATM   25  C18 UNL     1      25.394   1.160  52.763  1.00  0.00     0.036 A 
ENDBRANCH  17  19
ENDBRANCH  13  17
BRANCH   1  26
HETATM   26  O2  UNL     1      28.784   4.873  48.221  1.00  0.00    -0.347 OA
BRANCH  26  27
HETATM   27  C3  UNL     1      29.838   5.783  48.148  1.00  0.00     0.201 C 
BRANCH  27  28
HETATM   28  C2  UNL     1      31.137   5.120  47.712  1.00  0.00     0.193 C 
BRANCH  28  29
HETATM   29  O1  UNL     1      31.941   4.803  48.797  1.00  0.00    -0.394 OA
HETATM   30  C1  UNL     1      32.156   6.016  49.489  1.00  0.00     0.201 C 
ENDBRANCH  28  29
ENDBRANCH  27  28
ENDBRANCH  26  27
ENDBRANCH   1  26
TORSDOF 6
ENDMDL
MODEL 6
REMARK VINA RESULT:      -7.8      2.796      5.551
REMARK  6 active torsions:
REMARK  status: ('A' for Active; 'I' for Inactive)
REMARK    1  A    between atoms: O1_2  and  C2_3 
REMARK    2  A    between atoms: C2_3  and  C3_4 
REMARK    3  A    between atoms: C3_4  and  O2_5 
REMARK    4  A    between atoms: O2_5  and  C4_6 
REMARK    5  A    between atoms: C11_18  and  N3_19 
REMARK    6  A    between atoms: N3_19  and  C12_20 
ROOT
HETATM    1  C4  UNL     1      24.710   1.430  53.442  1.00  0.00     0.090 C 
HETATM    2  C5  UNL     1      24.140   0.363  52.894  1.00  0.00     0.171 C 
HETATM    3  O3  UNL     1      23.143   0.044  51.964  1.00  0.00    -0.358 OA
HETATM    4  C6  UNL     1      21.813  -0.241  52.446  1.00  0.00     0.200 C 
HETATM    5  C7  UNL     1      20.906   0.351  51.393  1.00  0.00     0.194 C 
HETATM    6  O4  UNL     1      21.179   1.688  51.285  1.00  0.00    -0.386 OA
HETATM    7  C8  UNL     1      20.938   2.385  52.431  1.00  0.00     0.203 C 
HETATM    8  C9  UNL     1      21.366   3.871  52.225  1.00  0.00     0.193 C 
HETATM    9  O5  UNL     1      20.369   4.463  51.473  1.00  0.00    -0.247 OA
HETATM   10  N1  UNL     1      20.103   4.355  50.104  1.00  0.00    -0.127 NA
HETATM   11  C10 UNL     1      21.014   4.763  49.250  1.00  0.00     0.264 C 
HETATM   12  N2  UNL     1      22.270   5.316  49.627  1.00  0.00    -0.226 NA
HETATM   13  C11 UNL     1      22.986   4.940  50.630  1.00  0.00     0.116 C 
HETATM   14  C19 UNL     1      22.751   3.889  51.631  1.00  0.00     0.112 C 
HETATM   15  C20 UNL     1      23.820   3.776  52.640  1.00  0.00    -0.009 C 
HETATM   16  C21 UNL     1      24.518   2.855  53.283  1.00  0.00     0.035 C 
ENDROOT
BRANCH  13  17
HETATM   17  N3  UNL     1      24.192   5.683  50.749  1.00  0.00    -0.344 N 
HETATM   18  H17 UNL     1      24.204   6.490  51.435  1.00  0.00     0.167 HD
BRANCH  17  19
HETATM   19  C12 UNL     1      25.365   5.413  50.003  1.00  0.00     0.033 A 
HETATM   20  C13 UNL     1      26.017   4.220  49.846  1.00  0.00     0.029 A 
HETATM   21  C14 UNL     1      27.166   4.036  49.108  1.00  0.00     0.003 A 
HETATM   22  C15 UNL     1      27.730   5.117  48.464  1.00  0.00     0.007 A 
HETATM   23  C16 UNL     1      27.125   6.351  48.580  1.00  0.00    -0.060 A 
HETATM   24  C17 UNL     1      27.752   7.485  47.882  1.00  0.00     0.048 C 
HETATM   25  C18 UNL     1      25.980   6.468  49.331  1.00  0.00     0.036 A 
ENDBRANCH  17  19
ENDBRANCH  13  17
BRANCH   1  26
HETATM   26  O2  UNL     1      25.659   0.926  54.316  1.00  0.00    -0.347 OA
BRANCH  26  27
HETATM   27  C3  UNL     1      26.549  -0.116  54.057  1.00  0.00     0.201 C 
BRANCH  27  28
HETATM   28  C2  UNL     1      27.932   0.395  53.679  1.00  0.00     0.193 C 
BRANCH  28  29
HETATM   29  O1  UNL     1      28.349   1.416  54.520  1.00  0.00    -0.394 OA
HETATM   30  C1  UNL     1      28.739   2.480  53.678  1.00  0.00     0.201 C 
ENDBRANCH  28  29
ENDBRANCH  27  28
ENDBRANCH  26  27
ENDBRANCH   1  26
TORSDOF 6
ENDMDL
MODEL 7
REMARK VINA RESULT:      -7.7      1.484      2.094
REMARK  6 active torsions:
REMARK  status: ('A' for Active; 'I' for Inactive)
REMARK    1  A    between atoms: O1_2  and  C2_3 
REMARK    2  A    between atoms: C2_3  and  C3_4 
REMARK    3  A    between atoms: C3_4  and  O2_5 
REMARK    4  A    between atoms: O2_5  and  C4_6 
REMARK    5  A    between atoms: C11_18  and  N3_19 
REMARK    6  A    between atoms: N3_19  and  C12_20 
ROOT
HETATM    1  C4  UNL     1      21.232   1.782  51.845  1.00  0.00     0.090 C 
HETATM    2  C5  UNL     1      20.935   1.489  50.585  1.00  0.00     0.171 C 
HETATM    3  O3  UNL     1      21.475   1.627  49.301  1.00  0.00    -0.358 OA
HETATM    4  C6  UNL     1      21.073   2.758  48.499  1.00  0.00     0.200 C 
HETATM    5  C7  UNL     1      22.327   3.140  47.749  1.00  0.00     0.194 C 
HETATM    6  O4  UNL     1      23.308   3.430  48.658  1.00  0.00    -0.386 OA
HETATM    7  C8  UNL     1      23.006   4.489  49.462  1.00  0.00     0.203 C 
HETATM    8  C9  UNL     1      24.145   4.673  50.512  1.00  0.00     0.193 C 
HETATM    9  O5  UNL     1      25.195   5.278  49.847  1.00  0.00    -0.247 OA
HETATM   10  N1  UNL     1      26.117   4.728  48.952  1.00  0.00    -0.127 NA
HETATM   11  C10 UNL     1      26.913   3.771  49.373  1.00  0.00     0.264 C 
HETATM   12  N2  UNL     1      26.901   3.249  50.698  1.00  0.00    -0.226 NA
HETATM   13  C11 UNL     1      25.853   3.073  51.426  1.00  0.00     0.116 C 
HETATM   14  C19 UNL     1      24.434   3.333  51.139  1.00  0.00     0.112 C 
HETATM   15  C20 UNL     1      23.529   3.003  52.255  1.00  0.00    -0.009 C 
HETATM   16  C21 UNL     1      22.359   2.431  52.480  1.00  0.00     0.035 C 
ENDROOT
BRANCH  13  17
HETATM   17  N3  UNL     1      26.162   2.534  52.705  1.00  0.00    -0.344 N 
HETATM   18  H17 UNL     1      25.652   2.938  53.542  1.00  0.00     0.167 HD
BRANCH  17  19
HETATM   19  C12 UNL     1      27.109   1.505  52.922  1.00  0.00     0.033 A 
HETATM   20  C13 UNL     1      28.403   1.617  53.354  1.00  0.00     0.029 A 
HETATM   21  C14 UNL     1      29.274   0.563  53.531  1.00  0.00     0.003 A 
HETATM   22  C15 UNL     1      28.839  -0.718  53.263  1.00  0.00     0.007 A 
HETATM   23  C16 UNL     1      27.546  -0.904  52.823  1.00  0.00    -0.060 A 
HETATM   24  C17 UNL     1      27.112  -2.283  52.544  1.00  0.00     0.048 C 
HETATM   25  C18 UNL     1      26.727   0.189  52.666  1.00  0.00     0.036 A 
ENDBRANCH  17  19
ENDBRANCH  13  17
BRANCH   1  26
HETATM   26  O2  UNL     1      20.162   1.312  52.589  1.00  0.00    -0.347 OA
BRANCH  26  27
HETATM   27  C3  UNL     1      20.234   0.457  53.689  1.00  0.00     0.201 C 
BRANCH  27  28
HETATM   28  C2  UNL     1      19.527  -0.867  53.432  1.00  0.00     0.193 C 
BRANCH  28  29
HETATM   29  O1  UNL     1      18.489  -0.725  52.522  1.00  0.00    -0.394 OA
HETATM   30  C1  UNL     1      17.340  -1.244  53.158  1.00  0.00     0.201 C 
ENDBRANCH  28  29
ENDBRANCH  27  28
ENDBRANCH  26  27
ENDBRANCH   1  26
TORSDOF 6
ENDMDL
MODEL 8
REMARK VINA RESULT:      -7.5      4.691      8.870
REMARK  6 active torsions:
REMARK  status: ('A' for Active; 'I' for Inactive)
REMARK    1  A    between atoms: O1_2  and  C2_3 
REMARK    2  A    between atoms: C2_3  and  C3_4 
REMARK    3  A    between atoms: C3_4  and  O2_5 
REMARK    4  A    between atoms: O2_5  and  C4_6 
REMARK    5  A    between atoms: C11_18  and  N3_19 
REMARK    6  A    between atoms: N3_19  and  C12_20 
ROOT
HETATM    1  C4  UNL     1      29.932   6.086  48.216  1.00  0.00     0.090 C 
HETATM    2  C5  UNL     1      30.286   7.336  48.492  1.00  0.00     0.171 C 
HETATM    3  O3  UNL     1      29.719   8.531  48.950  1.00  0.00    -0.358 OA
HETATM    4  C6  UNL     1      29.285   9.507  47.979  1.00  0.00     0.200 C 
HETATM    5  C7  UNL     1      28.035  10.098  48.588  1.00  0.00     0.194 C 
HETATM    6  O4  UNL     1      27.133   9.090  48.797  1.00  0.00    -0.386 OA
HETATM    7  C8  UNL     1      26.742   8.466  47.649  1.00  0.00     0.203 C 
HETATM    8  C9  UNL     1      25.791   7.282  48.010  1.00  0.00     0.193 C 
HETATM    9  O5  UNL     1      24.563   7.846  48.306  1.00  0.00    -0.247 OA
HETATM   10  N1  UNL     1      24.149   8.523  49.456  1.00  0.00    -0.127 NA
HETATM   11  C10 UNL     1      24.150   7.881  50.602  1.00  0.00     0.264 C 
HETATM   12  N2  UNL     1      24.549   6.522  50.755  1.00  0.00    -0.226 NA
HETATM   13  C11 UNL     1      25.509   5.945  50.118  1.00  0.00     0.116 C 
HETATM   14  C19 UNL     1      26.436   6.472  49.104  1.00  0.00     0.112 C 
HETATM   15  C20 UNL     1      27.399   5.475  48.602  1.00  0.00    -0.009 C 
HETATM   16  C21 UNL     1      28.678   5.367  48.287  1.00  0.00     0.035 C 
ENDROOT
BRANCH  13  17
HETATM   17  N3  UNL     1      25.667   4.582  50.488  1.00  0.00    -0.344 N 
HETATM   18  H17 UNL     1      26.616   4.280  50.851  1.00  0.00     0.167 HD
BRANCH  17  19
HETATM   19  C12 UNL     1      24.641   3.612  50.390  1.00  0.00     0.033 A 
HETATM   20  C13 UNL     1      23.821   3.346  49.326  1.00  0.00     0.029 A 
HETATM   21  C14 UNL     1      22.831   2.387  49.309  1.00  0.00     0.003 A 
HETATM   22  C15 UNL     1      22.623   1.617  50.434  1.00  0.00     0.007 A 
HETATM   23  C16 UNL     1      23.413   1.833  51.543  1.00  0.00    -0.060 A 
HETATM   24  C17 UNL     1      23.167   0.996  52.729  1.00  0.00     0.048 C 
HETATM   25  C18 UNL     1      24.384   2.804  51.497  1.00  0.00     0.036 A 
ENDBRANCH  17  19
ENDBRANCH  13  17
BRANCH   1  26
HETATM   26  O2  UNL     1      31.094   5.464  47.789  1.00  0.00    -0.347 OA
BRANCH  26  27
HETATM   27  C3  UNL     1      32.329   5.491  48.436  1.00  0.00     0.201 C 
BRANCH  27  28
HETATM   28  C2  UNL     1      33.278   4.427  47.901  1.00  0.00     0.193 C 
BRANCH  28  29
HETATM   29  O1  UNL     1      34.530   4.954  47.618  1.00  0.00    -0.394 OA
HETATM   30  C1  UNL     1      35.008   5.493  48.833  1.00  0.00     0.201 C 
ENDBRANCH  28  29
ENDBRANCH  27  28
ENDBRANCH  26  27
ENDBRANCH   1  26
TORSDOF 6
ENDMDL
MODEL 9
REMARK VINA RESULT:      -7.4      2.907      6.376
REMARK  6 active torsions:
REMARK  status: ('A' for Active; 'I' for Inactive)
REMARK    1  A    between atoms: O1_2  and  C2_3 
REMARK    2  A    between atoms: C2_3  and  C3_4 
REMARK    3  A    between atoms: C3_4  and  O2_5 
REMARK    4  A    between atoms: O2_5  and  C4_6 
REMARK    5  A    between atoms: C11_18  and  N3_19 
REMARK    6  A    between atoms: N3_19  and  C12_20 
ROOT
HETATM    1  C4  UNL     1      24.911   0.430  53.535  1.00  0.00     0.090 C 
HETATM    2  C5  UNL     1      24.265  -0.635  53.993  1.00  0.00     0.171 C 
HETATM    3  O3  UNL     1      23.023  -1.268  53.864  1.00  0.00    -0.358 OA
HETATM    4  C6  UNL     1      21.995  -0.977  54.834  1.00  0.00     0.200 C 
HETATM    5  C7  UNL     1      20.718  -0.985  54.027  1.00  0.00     0.194 C 
HETATM    6  O4  UNL     1      20.823  -0.047  53.036  1.00  0.00    -0.386 OA
HETATM    7  C8  UNL     1      20.970   1.225  53.506  1.00  0.00     0.203 C 
HETATM    8  C9  UNL     1      21.171   2.195  52.300  1.00  0.00     0.193 C 
HETATM    9  O5  UNL     1      19.922   2.382  51.739  1.00  0.00    -0.247 OA
HETATM   10  N1  UNL     1      19.177   1.528  50.921  1.00  0.00    -0.127 NA
HETATM   11  C10 UNL     1      19.669   1.183  49.753  1.00  0.00     0.264 C 
HETATM   12  N2  UNL     1      20.928   1.627  49.255  1.00  0.00    -0.226 NA
HETATM   13  C11 UNL     1      21.992   1.806  49.958  1.00  0.00     0.116 C 
HETATM   14  C19 UNL     1      22.230   1.618  51.398  1.00  0.00     0.112 C 
HETATM   15  C20 UNL     1      23.603   1.947  51.823  1.00  0.00    -0.009 C 
HETATM   16  C21 UNL     1      24.560   1.488  52.611  1.00  0.00     0.035 C 
ENDROOT
BRANCH  13  17
HETATM   17  N3  UNL     1      23.093   2.254  49.178  1.00  0.00    -0.344 N 
HETATM   18  H17 UNL     1      23.798   1.527  48.863  1.00  0.00     0.167 HD
BRANCH  17  19
HETATM   19  C12 UNL     1      23.303   3.604  48.809  1.00  0.00     0.033 A 
HETATM   20  C13 UNL     1      22.483   4.425  48.083  1.00  0.00     0.029 A 
HETATM   21  C14 UNL     1      22.762   5.733  47.752  1.00  0.00     0.003 A 
HETATM   22  C15 UNL     1      23.952   6.292  48.170  1.00  0.00     0.007 A 
HETATM   23  C16 UNL     1      24.827   5.520  48.905  1.00  0.00    -0.060 A 
HETATM   24  C17 UNL     1      26.089   6.144  49.335  1.00  0.00     0.048 C 
HETATM   25  C18 UNL     1      24.490   4.221  49.202  1.00  0.00     0.036 A 
ENDBRANCH  17  19
ENDBRANCH  13  17
BRANCH   1  26
HETATM   26  O2  UNL     1      26.154   0.393  54.146  1.00  0.00    -0.347 OA
BRANCH  26  27
HETATM   27  C3  UNL     1      27.312   1.028  53.698  1.00  0.00     0.201 C 
BRANCH  27  28
HETATM   28  C2  UNL     1      28.531   0.645  54.526  1.00  0.00     0.193 C 
BRANCH  28  29
HETATM   29  O1  UNL     1      28.724  -0.729  54.547  1.00  0.00    -0.394 OA
HETATM   30  C1  UNL     1      29.619  -1.012  53.493  1.00  0.00     0.201 C 
ENDBRANCH  28  29
ENDBRANCH  27  28
ENDBRANCH  26  27
ENDBRANCH   1  26
TORSDOF 6
ENDMDL
