MODEL 1
REMARK VINA RESULT:      -7.6      0.000      0.000
REMARK  5 active torsions:
REMARK  status: ('A' for Active; 'I' for Inactive)
REMARK    1  A    between atoms: C2_2  and  N1_3 
REMARK    2  A    between atoms: C2_2  and  C17_21 
REMARK    3  A    between atoms: N1_3  and  C3_4 
REMARK    4  A    between atoms: C6_9  and  C7_10 
REMARK    5  A    between atoms: C19_23  and  C20_24 
ROOT
HETATM    1  C7  UNL     1      25.865   1.657  52.561  1.00  0.00    -0.010 A 
HETATM    2  C8  UNL     1      25.478   0.341  52.419  1.00  0.00     0.015 A 
HETATM    3  C9  UNL     1      26.337  -0.728  52.625  1.00  0.00     0.023 A 
HETATM    4  C10 UNL     1      27.648  -0.506  52.989  1.00  0.00     0.044 A 
HETATM    5  C11 UNL     1      28.551  -1.599  53.205  1.00  0.00     0.099 C 
HETATM    6  N4  UNL     1      29.290  -2.480  53.373  1.00  0.00    -0.191 NA
HETATM    7  C12 UNL     1      28.064   0.798  53.138  1.00  0.00     0.023 A 
HETATM    8  C13 UNL     1      27.178   1.827  52.924  1.00  0.00     0.015 A 
ENDROOT
BRANCH   1   9
HETATM    9  C6  UNL     1      24.931   2.742  52.334  1.00  0.00     0.037 C 
HETATM   10  N3  UNL     1      24.384   3.331  51.184  1.00  0.00    -0.367 N 
HETATM   11  C5  UNL     1      24.491   2.975  49.801  1.00  0.00     0.146 C 
HETATM   12  C16 UNL     1      23.575   4.495  51.486  1.00  0.00     0.157 C 
HETATM   13  C4  UNL     1      23.542   3.785  48.946  1.00  0.00     0.170 C 
HETATM   14  N2  UNL     1      22.296   3.975  49.645  1.00  0.00    -0.273 NA
HETATM   15  C3  UNL     1      22.238   4.318  50.860  1.00  0.00     0.118 C 
HETATM   16  C15 UNL     1      23.492   4.458  52.987  1.00  0.00     0.062 C 
HETATM   17  C14 UNL     1      24.418   3.390  53.363  1.00  0.00     0.006 C 
BRANCH  15  18
HETATM   18  N1  UNL     1      20.990   4.494  51.511  1.00  0.00    -0.369 N 
HETATM   19  H5  UNL     1      20.651   5.503  51.560  1.00  0.00     0.161 HD
BRANCH  18  20
HETATM   20  C2  UNL     1      20.267   3.416  52.044  1.00  0.00     0.108 C 
HETATM   21  C1  UNL     1      18.960   3.298  51.274  1.00  0.00     0.037 C 
BRANCH  20  22
HETATM   22  C17 UNL     1      20.945   2.117  52.044  1.00  0.00    -0.051 A 
HETATM   23  C18 UNL     1      21.507   0.949  51.547  1.00  0.00    -0.010 A 
HETATM   24  C19 UNL     1      21.550   1.118  52.955  1.00  0.00     0.068 A 
BRANCH  24  25
HETATM   25  C20 UNL     1      20.636   0.249  53.791  1.00  0.00     0.235 C 
HETATM   26  F1  UNL     1      20.624   0.633  55.125  1.00  0.00    -0.254 F 
ENDBRANCH  24  25
ENDBRANCH  20  22
ENDBRANCH  18  20
ENDBRANCH  15  18
ENDBRANCH   1   9
TORSDOF 5
ENDMDL
MODEL 2
REMARK VINA RESULT:      -7.6      3.060      5.163
REMARK  5 active torsions:
REMARK  status: ('A' for Active; 'I' for Inactive)
REMARK    1  A    between atoms: C2_2  and  N1_3 
REMARK    2  A    between atoms: C2_2  and  C17_21 
REMARK    3  A    between atoms: N1_3  and  C3_4 
REMARK    4  A    between atoms: C6_9  and  C7_10 
REMARK    5  A    between atoms: C19_23  and  C20_24 
ROOT
HETATM    1  C7  UNL     1      25.205   4.724  49.810  1.00  0.00    -0.010 A 
HETATM    2  C8  UNL     1      25.302   6.053  49.456  1.00  0.00     0.015 A 
HETATM    3  C9  UNL     1      26.418   6.593  48.833  1.00  0.00     0.023 A 
HETATM    4  C10 UNL     1      27.503   5.796  48.539  1.00  0.00     0.044 A 
HETATM    5  C11 UNL     1      28.666   6.336  47.897  1.00  0.00     0.099 C 
HETATM    6  N4  UNL     1      29.614   6.770  47.385  1.00  0.00    -0.191 NA
HETATM    7  C12 UNL     1      27.436   4.463  48.881  1.00  0.00     0.023 A 
HETATM    8  C13 UNL     1      26.309   3.971  49.496  1.00  0.00     0.015 A 
ENDROOT
BRANCH   1   9
HETATM    9  C6  UNL     1      24.018   4.206  50.459  1.00  0.00     0.037 C 
HETATM   10  N3  UNL     1      23.025   3.288  50.084  1.00  0.00    -0.367 N 
HETATM   11  C5  UNL     1      22.907   2.448  48.930  1.00  0.00     0.146 C 
HETATM   12  C16 UNL     1      21.954   3.198  51.055  1.00  0.00     0.157 C 
HETATM   13  C4  UNL     1      21.765   1.467  49.074  1.00  0.00     0.170 C 
HETATM   14  N2  UNL     1      21.694   0.997  50.435  1.00  0.00    -0.273 NA
HETATM   15  C3  UNL     1      21.774   1.770  51.431  1.00  0.00     0.118 C 
HETATM   16  C15 UNL     1      22.483   4.010  52.205  1.00  0.00     0.062 C 
HETATM   17  C14 UNL     1      23.703   4.616  51.673  1.00  0.00     0.006 C 
BRANCH  15  18
HETATM   18  N1  UNL     1      21.699   1.267  52.756  1.00  0.00    -0.369 N 
HETATM   19  H5  UNL     1      20.790   1.488  53.266  1.00  0.00     0.161 HD
BRANCH  18  20
HETATM   20  C2  UNL     1      22.747   0.537  53.336  1.00  0.00     0.108 C 
HETATM   21  C1  UNL     1      22.477  -0.942  53.103  1.00  0.00     0.037 C 
BRANCH  20  22
HETATM   22  C17 UNL     1      24.099   0.858  52.870  1.00  0.00    -0.051 A 
HETATM   23  C18 UNL     1      25.154   1.051  51.989  1.00  0.00    -0.010 A 
HETATM   24  C19 UNL     1      25.430   1.281  53.362  1.00  0.00     0.068 A 
BRANCH  24  25
HETATM   25  C20 UNL     1      26.296   0.269  54.080  1.00  0.00     0.235 C 
HETATM   26  F1  UNL     1      26.384   0.526  55.441  1.00  0.00    -0.254 F 
ENDBRANCH  24  25
ENDBRANCH  20  22
ENDBRANCH  18  20
ENDBRANCH  15  18
ENDBRANCH   1   9
TORSDOF 5
ENDMDL
MODEL 3
REMARK VINA RESULT:      -7.5      2.794      7.496
REMARK  5 active torsions:
REMARK  status: ('A' for Active; 'I' for Inactive)
REMARK    1  A    between atoms: C2_2  and  N1_3 
REMARK    2  A    between atoms: C2_2  and  C17_21 
REMARK    3  A    between atoms: N1_3  and  C3_4 
REMARK    4  A    between atoms: C6_9  and  C7_10 
REMARK    5  A    between atoms: C19_23  and  C20_24 
ROOT
HETATM    1  C7  UNL     1      23.994   4.147  49.187  1.00  0.00    -0.010 A 
HETATM    2  C8  UNL     1      22.996   3.535  48.460  1.00  0.00     0.015 A 
HETATM    3  C9  UNL     1      22.224   4.202  47.521  1.00  0.00     0.023 A 
HETATM    4  C10 UNL     1      22.433   5.542  47.276  1.00  0.00     0.044 A 
HETATM    5  C11 UNL     1      21.644   6.250  46.309  1.00  0.00     0.099 C 
HETATM    6  N4  UNL     1      21.002   6.831  45.535  1.00  0.00    -0.191 NA
HETATM    7  C12 UNL     1      23.424   6.182  47.988  1.00  0.00     0.023 A 
HETATM    8  C13 UNL     1      24.166   5.480  48.908  1.00  0.00     0.015 A 
ENDROOT
BRANCH   1   9
HETATM    9  C6  UNL     1      24.776   3.408  50.159  1.00  0.00     0.037 C 
HETATM   10  N3  UNL     1      24.458   2.698  51.327  1.00  0.00    -0.367 N 
HETATM   11  C5  UNL     1      23.194   2.370  51.915  1.00  0.00     0.146 C 
HETATM   12  C16 UNL     1      25.634   2.230  52.032  1.00  0.00     0.157 C 
HETATM   13  C4  UNL     1      23.354   1.399  53.064  1.00  0.00     0.170 C 
HETATM   14  N2  UNL     1      24.382   0.439  52.754  1.00  0.00    -0.273 NA
HETATM   15  C3  UNL     1      25.499   0.768  52.261  1.00  0.00     0.118 C 
HETATM   16  C15 UNL     1      26.743   2.539  51.064  1.00  0.00     0.062 C 
HETATM   17  C14 UNL     1      26.084   3.314  50.013  1.00  0.00     0.006 C 
BRANCH  15  18
HETATM   18  N1  UNL     1      26.485  -0.210  51.969  1.00  0.00    -0.369 N 
HETATM   19  H5  UNL     1      26.725  -0.306  50.936  1.00  0.00     0.161 HD
BRANCH  18  20
HETATM   20  C2  UNL     1      27.091  -0.981  52.972  1.00  0.00     0.108 C 
HETATM   21  C1  UNL     1      27.112  -2.430  52.506  1.00  0.00     0.037 C 
BRANCH  20  22
HETATM   22  C17 UNL     1      28.445  -0.584  53.368  1.00  0.00    -0.051 A 
HETATM   23  C18 UNL     1      29.730  -0.695  53.881  1.00  0.00    -0.010 A 
HETATM   24  C19 UNL     1      29.360   0.581  53.381  1.00  0.00     0.068 A 
BRANCH  24  25
HETATM   25  C20 UNL     1      29.120   1.683  54.389  1.00  0.00     0.235 C 
HETATM   26  F1  UNL     1      28.776   2.883  53.781  1.00  0.00    -0.254 F 
ENDBRANCH  24  25
ENDBRANCH  20  22
ENDBRANCH  18  20
ENDBRANCH  15  18
ENDBRANCH   1   9
TORSDOF 5
ENDMDL
MODEL 4
REMARK VINA RESULT:      -7.2      2.352      3.437
REMARK  5 active torsions:
REMARK  status: ('A' for Active; 'I' for Inactive)
REMARK    1  A    between atoms: C2_2  and  N1_3 
REMARK    2  A    between atoms: C2_2  and  C17_21 
REMARK    3  A    between atoms: N1_3  and  C3_4 
REMARK    4  A    between atoms: C6_9  and  C7_10 
REMARK    5  A    between atoms: C19_23  and  C20_24 
ROOT
HETATM    1  C7  UNL     1      23.793   0.984  52.695  1.00  0.00    -0.010 A 
HETATM    2  C8  UNL     1      24.887   1.269  51.906  1.00  0.00     0.015 A 
HETATM    3  C9  UNL     1      26.107   0.621  52.038  1.00  0.00     0.023 A 
HETATM    4  C10 UNL     1      26.273  -0.359  52.992  1.00  0.00     0.044 A 
HETATM    5  C11 UNL     1      27.527  -1.039  53.144  1.00  0.00     0.099 C 
HETATM    6  N4  UNL     1      28.542  -1.587  53.279  1.00  0.00    -0.191 NA
HETATM    7  C12 UNL     1      25.197  -0.666  53.797  1.00  0.00     0.023 A 
HETATM    8  C13 UNL     1      24.007   0.001  53.629  1.00  0.00     0.015 A 
ENDROOT
BRANCH   1   9
HETATM    9  C6  UNL     1      22.538   1.688  52.520  1.00  0.00     0.037 C 
HETATM   10  N3  UNL     1      22.200   3.027  52.275  1.00  0.00    -0.367 N 
HETATM   11  C5  UNL     1      23.018   4.171  52.002  1.00  0.00     0.146 C 
HETATM   12  C16 UNL     1      20.769   3.255  52.307  1.00  0.00     0.157 C 
HETATM   13  C4  UNL     1      22.183   5.362  51.587  1.00  0.00     0.170 C 
HETATM   14  N2  UNL     1      21.088   4.927  50.757  1.00  0.00    -0.273 NA
HETATM   15  C3  UNL     1      20.368   3.928  51.043  1.00  0.00     0.118 C 
HETATM   16  C15 UNL     1      20.215   1.859  52.390  1.00  0.00     0.062 C 
HETATM   17  C14 UNL     1      21.400   1.024  52.586  1.00  0.00     0.006 C 
BRANCH  15  18
HETATM   18  N1  UNL     1      19.299   3.532  50.198  1.00  0.00    -0.369 N 
HETATM   19  H5  UNL     1      18.328   3.683  50.608  1.00  0.00     0.161 HD
BRANCH  18  20
HETATM   20  C2  UNL     1      19.518   2.986  48.925  1.00  0.00     0.108 C 
HETATM   21  C1  UNL     1      19.659   4.134  47.936  1.00  0.00     0.037 C 
BRANCH  20  22
HETATM   22  C17 UNL     1      20.672   2.092  48.791  1.00  0.00    -0.051 A 
HETATM   23  C18 UNL     1      21.468   0.968  48.966  1.00  0.00    -0.010 A 
HETATM   24  C19 UNL     1      22.002   1.996  48.145  1.00  0.00     0.068 A 
BRANCH  24  25
HETATM   25  C20 UNL     1      23.143   2.815  48.705  1.00  0.00     0.235 C 
HETATM   26  F1  UNL     1      23.129   4.122  48.237  1.00  0.00    -0.254 F 
ENDBRANCH  24  25
ENDBRANCH  20  22
ENDBRANCH  18  20
ENDBRANCH  15  18
ENDBRANCH   1   9
TORSDOF 5
ENDMDL
MODEL 5
REMARK VINA RESULT:      -7.1      3.204      5.181
REMARK  5 active torsions:
REMARK  status: ('A' for Active; 'I' for Inactive)
REMARK    1  A    between atoms: C2_2  and  N1_3 
REMARK    2  A    between atoms: C2_2  and  C17_21 
REMARK    3  A    between atoms: N1_3  and  C3_4 
REMARK    4  A    between atoms: C6_9  and  C7_10 
REMARK    5  A    between atoms: C19_23  and  C20_24 
ROOT
HETATM    1  C7  UNL     1      24.516   2.345  51.229  1.00  0.00    -0.010 A 
HETATM    2  C8  UNL     1      25.892   2.377  51.166  1.00  0.00     0.015 A 
HETATM    3  C9  UNL     1      26.708   1.628  52.002  1.00  0.00     0.023 A 
HETATM    4  C10 UNL     1      26.153   0.803  52.956  1.00  0.00     0.044 A 
HETATM    5  C11 UNL     1      26.980   0.022  53.830  1.00  0.00     0.099 C 
HETATM    6  N4  UNL     1      27.644  -0.606  54.547  1.00  0.00    -0.191 NA
HETATM    7  C12 UNL     1      24.779   0.749  53.044  1.00  0.00     0.023 A 
HETATM    8  C13 UNL     1      24.010   1.507  52.193  1.00  0.00     0.015 A 
ENDROOT
BRANCH   1   9
HETATM    9  C6  UNL     1      23.705   3.145  50.334  1.00  0.00     0.037 C 
HETATM   10  N3  UNL     1      22.839   4.235  50.516  1.00  0.00    -0.367 N 
HETATM   11  C5  UNL     1      22.536   5.013  51.679  1.00  0.00     0.146 C 
HETATM   12  C16 UNL     1      22.153   4.611  49.296  1.00  0.00     0.157 C 
HETATM   13  C4  UNL     1      21.702   6.226  51.331  1.00  0.00     0.170 C 
HETATM   14  N2  UNL     1      22.141   6.776  50.074  1.00  0.00    -0.273 NA
HETATM   15  C3  UNL     1      22.372   6.062  49.058  1.00  0.00     0.118 C 
HETATM   16  C15 UNL     1      22.842   3.769  48.258  1.00  0.00     0.062 C 
HETATM   17  C14 UNL     1      23.703   2.883  49.040  1.00  0.00     0.006 C 
BRANCH  15  18
HETATM   18  N1  UNL     1      22.802   6.643  47.837  1.00  0.00    -0.369 N 
HETATM   19  H5  UNL     1      22.027   6.815  47.127  1.00  0.00     0.161 HD
BRANCH  18  20
HETATM   20  C2  UNL     1      24.147   6.964  47.597  1.00  0.00     0.108 C 
HETATM   21  C1  UNL     1      24.221   8.437  47.220  1.00  0.00     0.037 C 
BRANCH  20  22
HETATM   22  C17 UNL     1      25.083   6.701  48.693  1.00  0.00    -0.051 A 
HETATM   23  C18 UNL     1      25.772   6.892  49.883  1.00  0.00    -0.010 A 
HETATM   24  C19 UNL     1      26.082   5.711  49.159  1.00  0.00     0.068 A 
BRANCH  24  25
HETATM   25  C20 UNL     1      27.425   5.651  48.464  1.00  0.00     0.235 C 
HETATM   26  F1  UNL     1      27.953   4.367  48.456  1.00  0.00    -0.254 F 
ENDBRANCH  24  25
ENDBRANCH  20  22
ENDBRANCH  18  20
ENDBRANCH  15  18
ENDBRANCH   1   9
TORSDOF 5
ENDMDL
MODEL 6
REMARK VINA RESULT:      -7.0      4.922      7.079
REMARK  5 active torsions:
REMARK  status: ('A' for Active; 'I' for Inactive)
REMARK    1  A    between atoms: C2_2  and  N1_3 
REMARK    2  A    between atoms: C2_2  and  C17_21 
REMARK    3  A    between atoms: N1_3  and  C3_4 
REMARK    4  A    between atoms: C6_9  and  C7_10 
REMARK    5  A    between atoms: C19_23  and  C20_24 
ROOT
HETATM    1  C7  UNL     1      24.257   1.980  51.645  1.00  0.00    -0.010 A 
HETATM    2  C8  UNL     1      25.005   1.313  52.591  1.00  0.00     0.015 A 
HETATM    3  C9  UNL     1      24.470   0.360  53.447  1.00  0.00     0.023 A 
HETATM    4  C10 UNL     1      23.132   0.040  53.380  1.00  0.00     0.044 A 
HETATM    5  C11 UNL     1      22.560  -0.942  54.256  1.00  0.00     0.099 C 
HETATM    6  N4  UNL     1      22.090  -1.728  54.969  1.00  0.00    -0.191 NA
HETATM    7  C12 UNL     1      22.358   0.691  52.444  1.00  0.00     0.023 A 
HETATM    8  C13 UNL     1      22.931   1.627  51.616  1.00  0.00     0.015 A 
ENDROOT
BRANCH   1   9
HETATM    9  C6  UNL     1      24.860   2.968  50.773  1.00  0.00     0.037 C 
HETATM   10  N3  UNL     1      24.387   4.131  50.145  1.00  0.00    -0.367 N 
HETATM   11  C5  UNL     1      23.130   4.810  50.243  1.00  0.00     0.146 C 
HETATM   12  C16 UNL     1      25.366   4.719  49.253  1.00  0.00     0.157 C 
HETATM   13  C4  UNL     1      23.167   6.147  49.538  1.00  0.00     0.170 C 
HETATM   14  N2  UNL     1      24.449   6.772  49.744  1.00  0.00    -0.273 NA
HETATM   15  C3  UNL     1      25.542   6.149  49.621  1.00  0.00     0.118 C 
HETATM   16  C15 UNL     1      26.604   3.917  49.547  1.00  0.00     0.062 C 
HETATM   17  C14 UNL     1      26.129   2.850  50.428  1.00  0.00     0.006 C 
BRANCH  15  18
HETATM   18  N1  UNL     1      26.784   6.802  49.832  1.00  0.00    -0.369 N 
HETATM   19  H5  UNL     1      27.330   6.458  50.680  1.00  0.00     0.161 HD
BRANCH  18  20
HETATM   20  C2  UNL     1      27.246   7.820  48.984  1.00  0.00     0.108 C 
HETATM   21  C1  UNL     1      27.365   9.098  49.801  1.00  0.00     0.037 C 
BRANCH  20  22
HETATM   22  C17 UNL     1      28.517   7.567  48.300  1.00  0.00    -0.051 A 
HETATM   23  C18 UNL     1      29.887   7.427  48.119  1.00  0.00    -0.010 A 
HETATM   24  C19 UNL     1      29.076   7.211  46.975  1.00  0.00     0.068 A 
BRANCH  24  25
HETATM   25  C20 UNL     1      29.104   8.266  45.890  1.00  0.00     0.235 C 
HETATM   26  F1  UNL     1      27.961   8.236  45.102  1.00  0.00    -0.254 F 
ENDBRANCH  24  25
ENDBRANCH  20  22
ENDBRANCH  18  20
ENDBRANCH  15  18
ENDBRANCH   1   9
TORSDOF 5
ENDMDL
MODEL 7
REMARK VINA RESULT:      -6.9      2.097      2.686
REMARK  5 active torsions:
REMARK  status: ('A' for Active; 'I' for Inactive)
REMARK    1  A    between atoms: C2_2  and  N1_3 
REMARK    2  A    between atoms: C2_2  and  C17_21 
REMARK    3  A    between atoms: N1_3  and  C3_4 
REMARK    4  A    between atoms: C6_9  and  C7_10 
REMARK    5  A    between atoms: C19_23  and  C20_24 
ROOT
HETATM    1  C7  UNL     1      24.846   1.860  52.050  1.00  0.00    -0.010 A 
HETATM    2  C8  UNL     1      24.340   0.809  52.786  1.00  0.00     0.015 A 
HETATM    3  C9  UNL     1      25.060  -0.346  53.052  1.00  0.00     0.023 A 
HETATM    4  C10 UNL     1      26.345  -0.489  52.574  1.00  0.00     0.044 A 
HETATM    5  C11 UNL     1      27.105  -1.677  52.838  1.00  0.00     0.099 C 
HETATM    6  N4  UNL     1      27.722  -2.640  53.041  1.00  0.00    -0.191 NA
HETATM    7  C12 UNL     1      26.878   0.544  51.835  1.00  0.00     0.023 A 
HETATM    8  C13 UNL     1      26.128   1.672  51.598  1.00  0.00     0.015 A 
ENDROOT
BRANCH   1   9
HETATM    9  C6  UNL     1      24.055   3.048  51.798  1.00  0.00     0.037 C 
HETATM   10  N3  UNL     1      24.252   4.202  51.024  1.00  0.00    -0.367 N 
HETATM   11  C5  UNL     1      25.296   4.557  50.110  1.00  0.00     0.146 C 
HETATM   12  C16 UNL     1      23.197   5.180  51.204  1.00  0.00     0.157 C 
HETATM   13  C4  UNL     1      24.959   5.820  49.349  1.00  0.00     0.170 C 
HETATM   14  N2  UNL     1      23.554   5.836  49.028  1.00  0.00    -0.273 NA
HETATM   15  C3  UNL     1      22.657   5.544  49.868  1.00  0.00     0.118 C 
HETATM   16  C15 UNL     1      22.186   4.426  52.024  1.00  0.00     0.062 C 
HETATM   17  C14 UNL     1      22.872   3.181  52.367  1.00  0.00     0.006 C 
BRANCH  15  18
HETATM   18  N1  UNL     1      21.283   5.573  49.512  1.00  0.00    -0.369 N 
HETATM   19  H5  UNL     1      20.776   6.475  49.764  1.00  0.00     0.161 HD
BRANCH  18  20
HETATM   20  C2  UNL     1      20.655   4.492  48.875  1.00  0.00     0.108 C 
HETATM   21  C1  UNL     1      19.789   5.044  47.752  1.00  0.00     0.037 C 
BRANCH  20  22
HETATM   22  C17 UNL     1      21.538   3.454  48.336  1.00  0.00    -0.051 A 
HETATM   23  C18 UNL     1      22.280   2.738  47.406  1.00  0.00    -0.010 A 
HETATM   24  C19 UNL     1      22.310   2.256  48.740  1.00  0.00     0.068 A 
BRANCH  24  25
HETATM   25  C20 UNL     1      21.562   0.974  49.037  1.00  0.00     0.235 C 
HETATM   26  F1  UNL     1      21.474   0.723  50.399  1.00  0.00    -0.254 F 
ENDBRANCH  24  25
ENDBRANCH  20  22
ENDBRANCH  18  20
ENDBRANCH  15  18
ENDBRANCH   1   9
TORSDOF 5
ENDMDL
MODEL 8
REMARK VINA RESULT:      -6.9      3.208      4.608
REMARK  5 active torsions:
REMARK  status: ('A' for Active; 'I' for Inactive)
REMARK    1  A    between atoms: C2_2  and  N1_3 
REMARK    2  A    between atoms: C2_2  and  C17_21 
REMARK    3  A    between atoms: N1_3  and  C3_4 
REMARK    4  A    between atoms: C6_9  and  C7_10 
REMARK    5  A    between atoms: C19_23  and  C20_24 
ROOT
HETATM    1  C7  UNL     1      24.971   5.252  49.554  1.00  0.00    -0.010 A 
HETATM    2  C8  UNL     1      25.829   4.176  49.635  1.00  0.00     0.015 A 
HETATM    3  C9  UNL     1      27.140   4.215  49.182  1.00  0.00     0.023 A 
HETATM    4  C10 UNL     1      27.645   5.366  48.616  1.00  0.00     0.044 A 
HETATM    5  C11 UNL     1      28.997   5.426  48.141  1.00  0.00     0.099 C 
HETATM    6  N4  UNL     1      30.088   5.477  47.746  1.00  0.00    -0.191 NA
HETATM    7  C12 UNL     1      26.811   6.459  48.521  1.00  0.00     0.023 A 
HETATM    8  C13 UNL     1      25.519   6.375  48.984  1.00  0.00     0.015 A 
ENDROOT
BRANCH   1   9
HETATM    9  C6  UNL     1      23.609   5.163  50.041  1.00  0.00     0.037 C 
HETATM   10  N3  UNL     1      22.395   4.752  49.469  1.00  0.00    -0.367 N 
HETATM   11  C5  UNL     1      22.106   4.163  48.196  1.00  0.00     0.146 C 
HETATM   12  C16 UNL     1      21.263   4.973  50.345  1.00  0.00     0.157 C 
HETATM   13  C4  UNL     1      20.671   3.692  48.117  1.00  0.00     0.170 C 
HETATM   14  N2  UNL     1      20.270   3.133  49.384  1.00  0.00    -0.273 NA
HETATM   15  C3  UNL     1      20.518   3.695  50.489  1.00  0.00     0.118 C 
HETATM   16  C15 UNL     1      21.920   5.378  51.636  1.00  0.00     0.062 C 
HETATM   17  C14 UNL     1      23.332   5.521  51.280  1.00  0.00     0.006 C 
BRANCH  15  18
HETATM   18  N1  UNL     1      20.106   3.110  51.714  1.00  0.00    -0.369 N 
HETATM   19  H5  UNL     1      19.284   3.597  52.186  1.00  0.00     0.161 HD
BRANCH  18  20
HETATM   20  C2  UNL     1      20.739   1.979  52.252  1.00  0.00     0.108 C 
HETATM   21  C1  UNL     1      19.945   0.751  51.834  1.00  0.00     0.037 C 
BRANCH  20  22
HETATM   22  C17 UNL     1      22.146   1.789  51.889  1.00  0.00    -0.051 A 
HETATM   23  C18 UNL     1      23.267   1.626  51.085  1.00  0.00    -0.010 A 
HETATM   24  C19 UNL     1      23.492   1.627  52.486  1.00  0.00     0.068 A 
BRANCH  24  25
HETATM   25  C20 UNL     1      23.844   0.308  53.138  1.00  0.00     0.235 C 
HETATM   26  F1  UNL     1      25.129  -0.108  52.816  1.00  0.00    -0.254 F 
ENDBRANCH  24  25
ENDBRANCH  20  22
ENDBRANCH  18  20
ENDBRANCH  15  18
ENDBRANCH   1   9
TORSDOF 5
ENDMDL
MODEL 9
REMARK VINA RESULT:      -6.8      4.469      6.730
REMARK  5 active torsions:
REMARK  status: ('A' for Active; 'I' for Inactive)
REMARK    1  A    between atoms: C2_2  and  N1_3 
REMARK    2  A    between atoms: C2_2  and  C17_21 
REMARK    3  A    between atoms: N1_3  and  C3_4 
REMARK    4  A    between atoms: C6_9  and  C7_10 
REMARK    5  A    between atoms: C19_23  and  C20_24 
ROOT
HETATM    1  C7  UNL     1      21.014  -0.163  52.686  1.00  0.00    -0.010 A 
HETATM    2  C8  UNL     1      22.217   0.356  52.257  1.00  0.00     0.015 A 
HETATM    3  C9  UNL     1      23.412   0.157  52.933  1.00  0.00     0.023 A 
HETATM    4  C10 UNL     1      23.439  -0.588  54.092  1.00  0.00     0.044 A 
HETATM    5  C11 UNL     1      24.666  -0.803  54.804  1.00  0.00     0.099 C 
HETATM    6  N4  UNL     1      25.653  -0.974  55.391  1.00  0.00    -0.191 NA
HETATM    7  C12 UNL     1      22.252  -1.119  54.546  1.00  0.00     0.023 A 
HETATM    8  C13 UNL     1      21.091  -0.897  53.844  1.00  0.00     0.015 A 
ENDROOT
BRANCH   1   9
HETATM    9  C6  UNL     1      19.789   0.072  51.947  1.00  0.00     0.037 C 
HETATM   10  N3  UNL     1      18.479  -0.419  52.052  1.00  0.00    -0.367 N 
HETATM   11  C5  UNL     1      17.868  -1.271  53.027  1.00  0.00     0.146 C 
HETATM   12  C16 UNL     1      17.625   0.037  50.974  1.00  0.00     0.157 C 
HETATM   13  C4  UNL     1      16.369  -1.346  52.835  1.00  0.00     0.170 C 
HETATM   14  N2  UNL     1      15.861  -0.054  52.449  1.00  0.00    -0.273 NA
HETATM   15  C3  UNL     1      16.411   0.660  51.562  1.00  0.00     0.118 C 
HETATM   16  C15 UNL     1      18.488   1.055  50.279  1.00  0.00     0.062 C 
HETATM   17  C14 UNL     1      19.789   0.915  50.931  1.00  0.00     0.006 C 
BRANCH  15  18
HETATM   18  N1  UNL     1      15.878   1.928  51.211  1.00  0.00    -0.369 N 
HETATM   19  H5  UNL     1      15.808   2.107  50.163  1.00  0.00     0.161 HD
BRANCH  18  20
HETATM   20  C2  UNL     1      15.478   2.863  52.177  1.00  0.00     0.108 C 
HETATM   21  C1  UNL     1      16.260   4.147  51.944  1.00  0.00     0.037 C 
BRANCH  20  22
HETATM   22  C17 UNL     1      14.046   3.175  52.225  1.00  0.00    -0.051 A 
HETATM   23  C18 UNL     1      12.784   3.541  51.778  1.00  0.00    -0.010 A 
HETATM   24  C19 UNL     1      12.903   3.257  53.163  1.00  0.00     0.068 A 
BRANCH  24  25
HETATM   25  C20 UNL     1      12.832   4.423  54.124  1.00  0.00     0.235 C 
HETATM   26  F1  UNL     1      11.648   4.434  54.847  1.00  0.00    -0.254 F 
ENDBRANCH  24  25
ENDBRANCH  20  22
ENDBRANCH  18  20
ENDBRANCH  15  18
ENDBRANCH   1   9
TORSDOF 5
ENDMDL
