MODEL 1
REMARK VINA RESULT:      -7.6      0.000      0.000
REMARK  3 active torsions:
REMARK  status: ('A' for Active; 'I' for Inactive)
REMARK       I    between atoms: C1_2  and  N1_3 
REMARK    1  A    between atoms: C1_2  and  C8_14 
REMARK    2  A    between atoms: N1_3  and  S1_4 
REMARK    3  A    between atoms: S1_4  and  C2_7 
ROOT
HETATM    1  O1  UNL     1      26.798   2.808  49.492  1.00  0.00    -0.267 OA
HETATM    2  C1  UNL     1      26.351   3.946  49.801  1.00  0.00     0.266 C 
HETATM    3  N1  UNL     1      25.520   3.957  50.924  1.00  0.00    -0.246 N 
HETATM    4  H1  UNL     1      25.093   4.844  51.272  1.00  0.00     0.182 HD
ENDROOT
BRANCH   3   5
HETATM    5  S1  UNL     1      25.047   2.646  51.904  1.00  0.00     0.265 S 
HETATM    6  O2  UNL     1      24.029   1.843  51.107  1.00  0.00    -0.200 OA
HETATM    7  O3  UNL     1      24.292   3.212  53.088  1.00  0.00    -0.200 OA
BRANCH   5   8
HETATM    8  C2  UNL     1      26.364   1.632  52.416  1.00  0.00     0.080 A 
HETATM    9  C3  UNL     1      26.155   0.272  52.197  1.00  0.00     0.027 A 
HETATM   10  C4  UNL     1      27.142  -0.626  52.568  1.00  0.00     0.020 A 
HETATM   11  C5  UNL     1      28.302  -0.163  53.141  1.00  0.00     0.011 A 
HETATM   12 BR1  UNL     1      29.681  -1.377  53.663  1.00  0.00    -0.051 Br
HETATM   13  C6  UNL     1      28.459   1.181  53.334  1.00  0.00     0.020 A 
HETATM   14  C7  UNL     1      27.518   2.125  52.989  1.00  0.00     0.027 A 
ENDBRANCH   5   8
ENDBRANCH   3   5
BRANCH   2  15
HETATM   15  C8  UNL     1      26.686   5.126  49.042  1.00  0.00     0.050 A 
HETATM   16  C9  UNL     1      27.959   5.351  48.556  1.00  0.00     0.022 A 
HETATM   17  C10 UNL     1      28.146   6.519  47.845  1.00  0.00     0.045 A 
HETATM   18  C11 UNL     1      27.200   7.481  47.571  1.00  0.00     0.125 A 
HETATM   19 CL1  UNL     1      27.615   8.911  46.650  1.00  0.00    -0.062 Cl
HETATM   20  N2  UNL     1      25.959   7.214  48.073  1.00  0.00    -0.248 NA
HETATM   21  C12 UNL     1      25.732   6.085  48.771  1.00  0.00     0.135 A 
ENDBRANCH   2  15
TORSDOF 3
ENDMDL
MODEL 2
REMARK VINA RESULT:      -7.3      6.606      8.060
REMARK  3 active torsions:
REMARK  status: ('A' for Active; 'I' for Inactive)
REMARK       I    between atoms: C1_2  and  N1_3 
REMARK    1  A    between atoms: C1_2  and  C8_14 
REMARK    2  A    between atoms: N1_3  and  S1_4 
REMARK    3  A    between atoms: S1_4  and  C2_7 
ROOT
HETATM    1  O1  UNL     1      23.739   1.429  53.393  1.00  0.00    -0.267 OA
HETATM    2  C1  UNL     1      24.149   0.250  53.569  1.00  0.00     0.266 C 
HETATM    3  N1  UNL     1      23.135  -0.698  53.731  1.00  0.00    -0.246 N 
HETATM    4  H1  UNL     1      23.358  -1.707  53.883  1.00  0.00     0.182 HD
ENDROOT
BRANCH   3   5
HETATM    5  S1  UNL     1      21.448  -0.457  53.721  1.00  0.00     0.265 S 
HETATM    6  O2  UNL     1      21.107   0.331  54.978  1.00  0.00    -0.200 OA
HETATM    7  O3  UNL     1      20.795  -1.811  53.891  1.00  0.00    -0.200 OA
BRANCH   5   8
HETATM    8  C2  UNL     1      20.858   0.362  52.305  1.00  0.00     0.080 A 
HETATM    9  C3  UNL     1      19.768   1.197  52.542  1.00  0.00     0.027 A 
HETATM   10  C4  UNL     1      19.218   1.898  51.482  1.00  0.00     0.020 A 
HETATM   11  C5  UNL     1      19.753   1.758  50.224  1.00  0.00     0.011 A 
HETATM   12 BR1  UNL     1      19.015   2.712  48.742  1.00  0.00    -0.051 Br
HETATM   13  C6  UNL     1      20.822   0.927  50.043  1.00  0.00     0.020 A 
HETATM   14  C7  UNL     1      21.415   0.202  51.054  1.00  0.00     0.027 A 
ENDBRANCH   5   8
ENDBRANCH   3   5
BRANCH   2  15
HETATM   15  C8  UNL     1      25.555  -0.070  53.595  1.00  0.00     0.050 A 
HETATM   16  C9  UNL     1      26.215  -0.577  52.493  1.00  0.00     0.022 A 
HETATM   17  C10 UNL     1      27.560  -0.840  52.652  1.00  0.00     0.045 A 
HETATM   18  C11 UNL     1      28.312  -0.652  53.790  1.00  0.00     0.125 A 
HETATM   19 CL1  UNL     1      30.018  -1.043  53.815  1.00  0.00    -0.062 Cl
HETATM   20  N2  UNL     1      27.615  -0.150  54.852  1.00  0.00    -0.248 NA
HETATM   21  C12 UNL     1      26.300   0.122  54.740  1.00  0.00     0.135 A 
ENDBRANCH   2  15
TORSDOF 3
ENDMDL
MODEL 3
REMARK VINA RESULT:      -7.1      3.360      3.977
REMARK  3 active torsions:
REMARK  status: ('A' for Active; 'I' for Inactive)
REMARK       I    between atoms: C1_2  and  N1_3 
REMARK    1  A    between atoms: C1_2  and  C8_14 
REMARK    2  A    between atoms: N1_3  and  S1_4 
REMARK    3  A    between atoms: S1_4  and  C2_7 
ROOT
HETATM    1  O1  UNL     1      23.789   4.485  50.847  1.00  0.00    -0.267 OA
HETATM    2  C1  UNL     1      24.354   4.089  49.792  1.00  0.00     0.266 C 
HETATM    3  N1  UNL     1      23.714   3.021  49.158  1.00  0.00    -0.246 N 
HETATM    4  H1  UNL     1      24.092   2.611  48.276  1.00  0.00     0.182 HD
ENDROOT
BRANCH   3   5
HETATM    5  S1  UNL     1      22.293   2.207  49.630  1.00  0.00     0.265 S 
HETATM    6  O2  UNL     1      21.898   1.301  48.473  1.00  0.00    -0.200 OA
HETATM    7  O3  UNL     1      21.193   3.241  49.742  1.00  0.00    -0.200 OA
BRANCH   5   8
HETATM    8  C2  UNL     1      22.456   1.290  51.099  1.00  0.00     0.080 A 
HETATM    9  C3  UNL     1      21.298   0.618  51.483  1.00  0.00     0.027 A 
HETATM   10  C4  UNL     1      21.317  -0.144  52.639  1.00  0.00     0.020 A 
HETATM   11  C5  UNL     1      22.470  -0.221  53.383  1.00  0.00     0.011 A 
HETATM   12 BR1  UNL     1      22.527  -1.264  54.983  1.00  0.00    -0.051 Br
HETATM   13  C6  UNL     1      23.580   0.457  52.964  1.00  0.00     0.020 A 
HETATM   14  C7  UNL     1      23.627   1.231  51.826  1.00  0.00     0.027 A 
ENDBRANCH   5   8
ENDBRANCH   3   5
BRANCH   2  15
HETATM   15  C8  UNL     1      25.561   4.704  49.299  1.00  0.00     0.050 A 
HETATM   16  C9  UNL     1      25.587   6.004  48.830  1.00  0.00     0.022 A 
HETATM   17  C10 UNL     1      26.806   6.471  48.387  1.00  0.00     0.045 A 
HETATM   18  C11 UNL     1      27.998   5.782  48.363  1.00  0.00     0.125 A 
HETATM   19 CL1  UNL     1      29.459   6.536  47.762  1.00  0.00    -0.062 Cl
HETATM   20  N2  UNL     1      27.922   4.504  48.835  1.00  0.00    -0.248 NA
HETATM   21  C12 UNL     1      26.751   4.007  49.279  1.00  0.00     0.135 A 
ENDBRANCH   2  15
TORSDOF 3
ENDMDL
MODEL 4
REMARK VINA RESULT:      -7.1      5.493      7.314
REMARK  3 active torsions:
REMARK  status: ('A' for Active; 'I' for Inactive)
REMARK       I    between atoms: C1_2  and  N1_3 
REMARK    1  A    between atoms: C1_2  and  C8_14 
REMARK    2  A    between atoms: N1_3  and  S1_4 
REMARK    3  A    between atoms: S1_4  and  C2_7 
ROOT
HETATM    1  O1  UNL     1      25.308   2.908  51.513  1.00  0.00    -0.267 OA
HETATM    2  C1  UNL     1      25.235   1.743  51.991  1.00  0.00     0.266 C 
HETATM    3  N1  UNL     1      23.941   1.219  52.045  1.00  0.00    -0.246 N 
HETATM    4  H1  UNL     1      23.761   0.262  52.421  1.00  0.00     0.182 HD
ENDROOT
BRANCH   3   5
HETATM    5  S1  UNL     1      22.481   1.950  51.556  1.00  0.00     0.265 S 
HETATM    6  O2  UNL     1      22.597   2.211  50.061  1.00  0.00    -0.200 OA
HETATM    7  O3  UNL     1      22.413   3.313  52.211  1.00  0.00    -0.200 OA
BRANCH   5   8
HETATM    8  C2  UNL     1      21.063   1.006  51.906  1.00  0.00     0.080 A 
HETATM    9  C3  UNL     1      21.092   0.371  53.145  1.00  0.00     0.027 A 
HETATM   10  C4  UNL     1      20.012  -0.407  53.525  1.00  0.00     0.020 A 
HETATM   11  C5  UNL     1      18.937  -0.540  52.678  1.00  0.00     0.011 A 
HETATM   12 BR1  UNL     1      17.433  -1.608  53.175  1.00  0.00    -0.051 Br
HETATM   13  C6  UNL     1      18.957   0.103  51.472  1.00  0.00     0.020 A 
HETATM   14  C7  UNL     1      19.999   0.891  51.035  1.00  0.00     0.027 A 
ENDBRANCH   5   8
ENDBRANCH   3   5
BRANCH   2  15
HETATM   15  C8  UNL     1      26.406   1.030  52.436  1.00  0.00     0.050 A 
HETATM   16  C9  UNL     1      26.479  -0.349  52.420  1.00  0.00     0.022 A 
HETATM   17  C10 UNL     1      27.657  -0.906  52.873  1.00  0.00     0.045 A 
HETATM   18  C11 UNL     1      28.764  -0.235  53.340  1.00  0.00     0.125 A 
HETATM   19 CL1  UNL     1      30.183  -1.108  53.880  1.00  0.00    -0.062 Cl
HETATM   20  N2  UNL     1      28.644   1.125  53.338  1.00  0.00    -0.248 NA
HETATM   21  C12 UNL     1      27.512   1.711  52.902  1.00  0.00     0.135 A 
ENDBRANCH   2  15
TORSDOF 3
ENDMDL
MODEL 5
REMARK VINA RESULT:      -7.0      4.305      7.299
REMARK  3 active torsions:
REMARK  status: ('A' for Active; 'I' for Inactive)
REMARK       I    between atoms: C1_2  and  N1_3 
REMARK    1  A    between atoms: C1_2  and  C8_14 
REMARK    2  A    between atoms: N1_3  and  S1_4 
REMARK    3  A    between atoms: S1_4  and  C2_7 
ROOT
HETATM    1  O1  UNL     1      24.537   1.719  51.624  1.00  0.00    -0.267 OA
HETATM    2  C1  UNL     1      25.766   2.001  51.593  1.00  0.00     0.266 C 
HETATM    3  N1  UNL     1      26.070   3.191  50.927  1.00  0.00    -0.246 N 
HETATM    4  H1  UNL     1      27.055   3.525  50.839  1.00  0.00     0.182 HD
ENDROOT
BRANCH   3   5
HETATM    5  S1  UNL     1      25.003   4.281  50.166  1.00  0.00     0.265 S 
HETATM    6  O2  UNL     1      24.179   4.934  51.267  1.00  0.00    -0.200 OA
HETATM    7  O3  UNL     1      24.027   3.465  49.346  1.00  0.00    -0.200 OA
BRANCH   5   8
HETATM    8  C2  UNL     1      25.795   5.488  49.196  1.00  0.00     0.080 A 
HETATM    9  C3  UNL     1      27.129   5.206  48.912  1.00  0.00     0.027 A 
HETATM   10  C4  UNL     1      27.855   6.101  48.145  1.00  0.00     0.020 A 
HETATM   11  C5  UNL     1      27.251   7.245  47.680  1.00  0.00     0.011 A 
HETATM   12 BR1  UNL     1      28.227   8.499  46.620  1.00  0.00    -0.051 Br
HETATM   13  C6  UNL     1      25.940   7.476  47.987  1.00  0.00     0.020 A 
HETATM   14  C7  UNL     1      25.163   6.628  48.744  1.00  0.00     0.027 A 
ENDBRANCH   5   8
ENDBRANCH   3   5
BRANCH   2  15
HETATM   15  C8  UNL     1      26.757   1.151  52.204  1.00  0.00     0.050 A 
HETATM   16  C9  UNL     1      26.671  -0.227  52.163  1.00  0.00     0.022 A 
HETATM   17  C10 UNL     1      27.685  -0.924  52.787  1.00  0.00     0.045 A 
HETATM   18  C11 UNL     1      28.771  -0.392  53.445  1.00  0.00     0.125 A 
HETATM   19 CL1  UNL     1      29.970  -1.431  54.185  1.00  0.00    -0.062 Cl
HETATM   20  N2  UNL     1      28.812   0.972  53.459  1.00  0.00    -0.248 NA
HETATM   21  C12 UNL     1      27.842   1.692  52.861  1.00  0.00     0.135 A 
ENDBRANCH   2  15
TORSDOF 3
ENDMDL
MODEL 6
REMARK VINA RESULT:      -6.9      4.949      7.454
REMARK  3 active torsions:
REMARK  status: ('A' for Active; 'I' for Inactive)
REMARK       I    between atoms: C1_2  and  N1_3 
REMARK    1  A    between atoms: C1_2  and  C8_14 
REMARK    2  A    between atoms: N1_3  and  S1_4 
REMARK    3  A    between atoms: S1_4  and  C2_7 
ROOT
HETATM    1  O1  UNL     1      23.935   4.043  52.317  1.00  0.00    -0.267 OA
HETATM    2  C1  UNL     1      23.202   3.186  51.753  1.00  0.00     0.266 C 
HETATM    3  N1  UNL     1      22.838   3.509  50.443  1.00  0.00    -0.246 N 
HETATM    4  H1  UNL     1      22.233   2.872  49.878  1.00  0.00     0.182 HD
ENDROOT
BRANCH   3   5
HETATM    5  S1  UNL     1      23.256   4.890  49.537  1.00  0.00     0.265 S 
HETATM    6  O2  UNL     1      22.770   6.099  50.325  1.00  0.00    -0.200 OA
HETATM    7  O3  UNL     1      22.434   4.866  48.266  1.00  0.00    -0.200 OA
BRANCH   5   8
HETATM    8  C2  UNL     1      24.955   5.025  49.193  1.00  0.00     0.080 A 
HETATM    9  C3  UNL     1      25.345   6.280  48.730  1.00  0.00     0.027 A 
HETATM   10  C4  UNL     1      26.678   6.497  48.425  1.00  0.00     0.020 A 
HETATM   11  C5  UNL     1      27.587   5.478  48.583  1.00  0.00     0.011 A 
HETATM   12 BR1  UNL     1      29.432   5.748  48.171  1.00  0.00    -0.051 Br
HETATM   13  C6  UNL     1      27.154   4.265  49.040  1.00  0.00     0.020 A 
HETATM   14  C7  UNL     1      25.844   3.984  49.361  1.00  0.00     0.027 A 
ENDBRANCH   5   8
ENDBRANCH   3   5
BRANCH   2  15
HETATM   15  C8  UNL     1      22.787   1.980  52.424  1.00  0.00     0.050 A 
HETATM   16  C9  UNL     1      23.694   1.054  52.901  1.00  0.00     0.022 A 
HETATM   17  C10 UNL     1      23.165  -0.057  53.525  1.00  0.00     0.045 A 
HETATM   18  C11 UNL     1      21.833  -0.340  53.721  1.00  0.00     0.125 A 
HETATM   19 CL1  UNL     1      21.337  -1.808  54.537  1.00  0.00    -0.062 Cl
HETATM   20  N2  UNL     1      20.975   0.603  53.232  1.00  0.00    -0.248 NA
HETATM   21  C12 UNL     1      21.449   1.704  52.617  1.00  0.00     0.135 A 
ENDBRANCH   2  15
TORSDOF 3
ENDMDL
MODEL 7
REMARK VINA RESULT:      -6.9      5.585      7.456
REMARK  3 active torsions:
REMARK  status: ('A' for Active; 'I' for Inactive)
REMARK       I    between atoms: C1_2  and  N1_3 
REMARK    1  A    between atoms: C1_2  and  C8_14 
REMARK    2  A    between atoms: N1_3  and  S1_4 
REMARK    3  A    between atoms: S1_4  and  C2_7 
ROOT
HETATM    1  O1  UNL     1      21.613   2.653  51.378  1.00  0.00    -0.267 OA
HETATM    2  C1  UNL     1      21.690   1.535  51.957  1.00  0.00     0.266 C 
HETATM    3  N1  UNL     1      22.976   1.186  52.374  1.00  0.00    -0.246 N 
HETATM    4  H1  UNL     1      23.158   0.283  52.866  1.00  0.00     0.182 HD
ENDROOT
BRANCH   3   5
HETATM    5  S1  UNL     1      24.424   2.068  52.197  1.00  0.00     0.265 S 
HETATM    6  O2  UNL     1      24.305   3.295  53.089  1.00  0.00    -0.200 OA
HETATM    7  O3  UNL     1      24.466   2.590  50.777  1.00  0.00    -0.200 OA
BRANCH   5   8
HETATM    8  C2  UNL     1      25.857   1.164  52.585  1.00  0.00     0.080 A 
HETATM    9  C3  UNL     1      26.958   1.953  52.913  1.00  0.00     0.027 A 
HETATM   10  C4  UNL     1      28.153   1.334  53.239  1.00  0.00     0.020 A 
HETATM   11  C5  UNL     1      28.231  -0.039  53.235  1.00  0.00     0.011 A 
HETATM   12 BR1  UNL     1      29.866  -0.920  53.681  1.00  0.00    -0.051 Br
HETATM   13  C6  UNL     1      27.124  -0.768  52.906  1.00  0.00     0.020 A 
HETATM   14  C7  UNL     1      25.907  -0.215  52.572  1.00  0.00     0.027 A 
ENDBRANCH   5   8
ENDBRANCH   3   5
BRANCH   2  15
HETATM   15  C8  UNL     1      20.529   0.705  52.162  1.00  0.00     0.050 A 
HETATM   16  C9  UNL     1      19.492   0.651  51.250  1.00  0.00     0.022 A 
HETATM   17  C10 UNL     1      18.440  -0.184  51.567  1.00  0.00     0.045 A 
HETATM   18  C11 UNL     1      18.315  -0.966  52.693  1.00  0.00     0.125 A 
HETATM   19 CL1  UNL     1      16.902  -1.972  52.934  1.00  0.00    -0.062 Cl
HETATM   20  N2  UNL     1      19.363  -0.879  53.563  1.00  0.00    -0.248 NA
HETATM   21  C12 UNL     1      20.411  -0.077  53.292  1.00  0.00     0.135 A 
ENDBRANCH   2  15
TORSDOF 3
ENDMDL
MODEL 8
REMARK VINA RESULT:      -6.7      4.956      7.292
REMARK  3 active torsions:
REMARK  status: ('A' for Active; 'I' for Inactive)
REMARK       I    between atoms: C1_2  and  N1_3 
REMARK    1  A    between atoms: C1_2  and  C8_14 
REMARK    2  A    between atoms: N1_3  and  S1_4 
REMARK    3  A    between atoms: S1_4  and  C2_7 
ROOT
HETATM    1  O1  UNL     1      23.864   1.161  52.262  1.00  0.00    -0.267 OA
HETATM    2  C1  UNL     1      24.979   1.749  52.281  1.00  0.00     0.266 C 
HETATM    3  N1  UNL     1      24.925   3.107  51.956  1.00  0.00    -0.246 N 
HETATM    4  H1  UNL     1      25.788   3.694  51.940  1.00  0.00     0.182 HD
ENDROOT
BRANCH   3   5
HETATM    5  S1  UNL     1      23.562   4.043  51.544  1.00  0.00     0.265 S 
HETATM    6  O2  UNL     1      23.906   5.490  51.864  1.00  0.00    -0.200 OA
HETATM    7  O3  UNL     1      22.446   3.663  52.493  1.00  0.00    -0.200 OA
BRANCH   5   8
HETATM    8  C2  UNL     1      23.067   3.883  49.884  1.00  0.00     0.080 A 
HETATM    9  C3  UNL     1      23.067   5.080  49.171  1.00  0.00     0.027 A 
HETATM   10  C4  UNL     1      22.690   5.066  47.839  1.00  0.00     0.020 A 
HETATM   11  C5  UNL     1      22.323   3.880  47.248  1.00  0.00     0.011 A 
HETATM   12 BR1  UNL     1      21.798   3.831  45.412  1.00  0.00    -0.051 Br
HETATM   13  C6  UNL     1      22.340   2.733  47.990  1.00  0.00     0.020 A 
HETATM   14  C7  UNL     1      22.704   2.678  49.318  1.00  0.00     0.027 A 
ENDBRANCH   5   8
ENDBRANCH   3   5
BRANCH   2  15
HETATM   15  C8  UNL     1      26.198   1.055  52.616  1.00  0.00     0.050 A 
HETATM   16  C9  UNL     1      26.317  -0.317  52.509  1.00  0.00     0.022 A 
HETATM   17  C10 UNL     1      27.538  -0.855  52.861  1.00  0.00     0.045 A 
HETATM   18  C11 UNL     1      28.646  -0.172  53.308  1.00  0.00     0.125 A 
HETATM   19 CL1  UNL     1      30.122  -1.022  53.713  1.00  0.00    -0.062 Cl
HETATM   20  N2  UNL     1      28.479   1.180  53.398  1.00  0.00    -0.248 NA
HETATM   21  C12 UNL     1      27.304   1.748  53.062  1.00  0.00     0.135 A 
ENDBRANCH   2  15
TORSDOF 3
ENDMDL
MODEL 9
REMARK VINA RESULT:      -6.6      5.217      7.021
REMARK  3 active torsions:
REMARK  status: ('A' for Active; 'I' for Inactive)
REMARK       I    between atoms: C1_2  and  N1_3 
REMARK    1  A    between atoms: C1_2  and  C8_14 
REMARK    2  A    between atoms: N1_3  and  S1_4 
REMARK    3  A    between atoms: S1_4  and  C2_7 
ROOT
HETATM    1  O1  UNL     1      24.512   2.663  53.263  1.00  0.00    -0.267 OA
HETATM    2  C1  UNL     1      25.250   2.176  52.364  1.00  0.00     0.266 C 
HETATM    3  N1  UNL     1      24.813   2.421  51.060  1.00  0.00    -0.246 N 
HETATM    4  H1  UNL     1      25.346   2.065  50.236  1.00  0.00     0.182 HD
ENDROOT
BRANCH   3   5
HETATM    5  S1  UNL     1      23.432   3.278  50.550  1.00  0.00     0.265 S 
HETATM    6  O2  UNL     1      23.560   3.467  49.045  1.00  0.00    -0.200 OA
HETATM    7  O3  UNL     1      23.511   4.666  51.149  1.00  0.00    -0.200 OA
BRANCH   5   8
HETATM    8  C2  UNL     1      21.928   2.500  50.945  1.00  0.00     0.080 A 
HETATM    9  C3  UNL     1      21.876   1.151  50.602  1.00  0.00     0.027 A 
HETATM   10  C4  UNL     1      20.723   0.434  50.873  1.00  0.00     0.020 A 
HETATM   11  C5  UNL     1      19.656   1.062  51.471  1.00  0.00     0.011 A 
HETATM   12 BR1  UNL     1      18.053   0.099  51.856  1.00  0.00    -0.051 Br
HETATM   13  C6  UNL     1      19.757   2.387  51.788  1.00  0.00     0.020 A 
HETATM   14  C7  UNL     1      20.873   3.156  51.546  1.00  0.00     0.027 A 
ENDBRANCH   5   8
ENDBRANCH   3   5
BRANCH   2  15
HETATM   15  C8  UNL     1      26.444   1.432  52.682  1.00  0.00     0.050 A 
HETATM   16  C9  UNL     1      26.452   0.053  52.763  1.00  0.00     0.022 A 
HETATM   17  C10 UNL     1      27.660  -0.536  53.075  1.00  0.00     0.045 A 
HETATM   18  C11 UNL     1      28.855   0.104  53.314  1.00  0.00     0.125 A 
HETATM   19 CL1  UNL     1      30.300  -0.806  53.699  1.00  0.00    -0.062 Cl
HETATM   20  N2  UNL     1      28.797   1.465  53.222  1.00  0.00    -0.248 NA
HETATM   21  C12 UNL     1      27.638   2.081  52.919  1.00  0.00     0.135 A 
ENDBRANCH   2  15
TORSDOF 3
ENDMDL
