MODEL 1
REMARK VINA RESULT:      -7.2      0.000      0.000
REMARK  7 active torsions:
REMARK  status: ('A' for Active; 'I' for Inactive)
REMARK    1  A    between atoms: C2_2  and  O1_3 
REMARK    2  A    between atoms: C2_2  and  C4_5 
REMARK    3  A    between atoms: C4_5  and  O3_24 
REMARK    4  A    between atoms: C5_6  and  C6_7 
REMARK    5  A    between atoms: C9_12  and  N3_13 
REMARK    6  A    between atoms: N3_13  and  C10_14 
REMARK    7  A    between atoms: C13_17  and  N4_18 
REMARK       I    between atoms: N4_18  and  C14_19 
ROOT
HETATM    1  C6  UNL     1      25.091  -0.232  54.756  1.00  0.00     0.030 A 
HETATM    2  C7  UNL     1      24.531  -0.978  55.757  1.00  0.00     0.133 A 
HETATM    3  N1  UNL     1      23.333  -1.578  55.668  1.00  0.00    -0.253 NA
HETATM    4  C8  UNL     1      22.624  -1.447  54.528  1.00  0.00     0.234 A 
HETATM    5  N2  UNL     1      23.134  -0.720  53.512  1.00  0.00    -0.224 NA
HETATM    6  C9  UNL     1      24.340  -0.119  53.610  1.00  0.00     0.141 A 
ENDROOT
BRANCH   6   7
HETATM    7  N3  UNL     1      24.759   0.627  52.475  1.00  0.00    -0.340 N 
HETATM    8  H9  UNL     1      25.476   0.153  51.918  1.00  0.00     0.167 HD
BRANCH   7   9
HETATM    9  C10 UNL     1      24.251   1.909  52.122  1.00  0.00     0.033 A 
HETATM   10  C11 UNL     1      24.232   2.961  53.042  1.00  0.00     0.032 A 
HETATM   11  C12 UNL     1      23.759   4.211  52.706  1.00  0.00     0.032 A 
HETATM   12  C13 UNL     1      23.284   4.473  51.443  1.00  0.00     0.034 A 
HETATM   13  C16 UNL     1      23.317   3.418  50.569  1.00  0.00     0.032 A 
HETATM   14  C17 UNL     1      23.775   2.167  50.853  1.00  0.00     0.032 A 
BRANCH  12  15
HETATM   15  N4  UNL     1      22.822   5.782  51.174  1.00  0.00    -0.328 N 
HETATM   16  C14 UNL     1      21.540   6.252  50.798  1.00  0.00     0.218 C 
HETATM   17  C15 UNL     1      21.176   7.656  50.540  1.00  0.00     0.117 C 
HETATM   18  O2  UNL     1      20.623   5.403  50.669  1.00  0.00    -0.274 OA
HETATM   19  H12 UNL     1      23.489   6.596  51.244  1.00  0.00     0.169 HD
ENDBRANCH  12  15
ENDBRANCH   7   9
ENDBRANCH   6   7
BRANCH   1  20
HETATM   20  C5  UNL     1      26.406   0.360  54.901  1.00  0.00     0.056 C 
HETATM   21  C4  UNL     1      27.617   0.147  54.419  1.00  0.00     0.101 C 
BRANCH  21  22
HETATM   22  C2  UNL     1      28.209  -0.803  53.492  1.00  0.00     0.092 C 
HETATM   23  C1  UNL     1      29.375  -1.416  53.496  1.00  0.00     0.053 C 
BRANCH  22  24
HETATM   24  O1  UNL     1      27.324  -1.055  52.434  1.00  0.00    -0.354 OA
HETATM   25  C3  UNL     1      26.836  -2.374  52.184  1.00  0.00     0.210 C 
ENDBRANCH  22  24
ENDBRANCH  21  22
BRANCH  21  26
HETATM   26  O3  UNL     1      28.637   0.975  54.839  1.00  0.00    -0.353 OA
HETATM   27  C18 UNL     1      29.061   2.133  54.144  1.00  0.00     0.210 C 
ENDBRANCH  21  26
ENDBRANCH   1  20
TORSDOF 7
ENDMDL
MODEL 2
REMARK VINA RESULT:      -7.1      2.170      3.033
REMARK  7 active torsions:
REMARK  status: ('A' for Active; 'I' for Inactive)
REMARK    1  A    between atoms: C2_2  and  O1_3 
REMARK    2  A    between atoms: C2_2  and  C4_5 
REMARK    3  A    between atoms: C4_5  and  O3_24 
REMARK    4  A    between atoms: C5_6  and  C6_7 
REMARK    5  A    between atoms: C9_12  and  N3_13 
REMARK    6  A    between atoms: N3_13  and  C10_14 
REMARK    7  A    between atoms: C13_17  and  N4_18 
REMARK       I    between atoms: N4_18  and  C14_19 
ROOT
HETATM    1  C6  UNL     1      23.208  -0.431  53.497  1.00  0.00     0.030 A 
HETATM    2  C7  UNL     1      22.796  -0.938  54.700  1.00  0.00     0.133 A 
HETATM    3  N1  UNL     1      21.588  -0.711  55.238  1.00  0.00    -0.253 NA
HETATM    4  C8  UNL     1      20.712   0.063  54.565  1.00  0.00     0.234 A 
HETATM    5  N2  UNL     1      21.072   0.588  53.375  1.00  0.00    -0.224 NA
HETATM    6  C9  UNL     1      22.289   0.355  52.840  1.00  0.00     0.141 A 
ENDROOT
BRANCH   6   7
HETATM    7  N3  UNL     1      22.550   0.973  51.588  1.00  0.00    -0.340 N 
HETATM    8  H9  UNL     1      22.256   0.409  50.785  1.00  0.00     0.167 HD
BRANCH   7   9
HETATM    9  C10 UNL     1      23.157   2.252  51.432  1.00  0.00     0.033 A 
HETATM   10  C11 UNL     1      22.553   3.408  51.934  1.00  0.00     0.032 A 
HETATM   11  C12 UNL     1      23.140   4.648  51.804  1.00  0.00     0.032 A 
HETATM   12  C13 UNL     1      24.351   4.797  51.172  1.00  0.00     0.034 A 
HETATM   13  C16 UNL     1      24.912   3.642  50.692  1.00  0.00     0.032 A 
HETATM   14  C17 UNL     1      24.372   2.396  50.796  1.00  0.00     0.032 A 
BRANCH  12  15
HETATM   15  N4  UNL     1      24.891   6.101  51.085  1.00  0.00    -0.328 N 
HETATM   16  C14 UNL     1      25.581   6.749  50.031  1.00  0.00     0.218 C 
HETATM   17  C15 UNL     1      26.103   8.126  50.059  1.00  0.00     0.117 C 
HETATM   18  O2  UNL     1      25.769   6.100  48.972  1.00  0.00    -0.274 OA
HETATM   19  H12 UNL     1      24.805   6.757  51.905  1.00  0.00     0.169 HD
ENDBRANCH  12  15
ENDBRANCH   7   9
ENDBRANCH   6   7
BRANCH   1  20
HETATM   20  C5  UNL     1      24.514  -0.743  52.953  1.00  0.00     0.056 C 
HETATM   21  C4  UNL     1      25.755  -0.326  53.127  1.00  0.00     0.101 C 
BRANCH  21  22
HETATM   22  C2  UNL     1      26.404   0.666  53.969  1.00  0.00     0.092 C 
HETATM   23  C1  UNL     1      26.356   1.983  53.962  1.00  0.00     0.053 C 
BRANCH  22  24
HETATM   24  O1  UNL     1      27.208   0.031  54.925  1.00  0.00    -0.354 OA
HETATM   25  C3  UNL     1      28.625   0.212  54.931  1.00  0.00     0.210 C 
ENDBRANCH  22  24
ENDBRANCH  21  22
BRANCH  21  26
HETATM   26  O3  UNL     1      26.748  -0.912  52.371  1.00  0.00    -0.353 OA
HETATM   27  C18 UNL     1      26.968  -2.308  52.288  1.00  0.00     0.210 C 
ENDBRANCH  21  26
ENDBRANCH   1  20
TORSDOF 7
ENDMDL
MODEL 3
REMARK VINA RESULT:      -7.1      1.935      2.407
REMARK  7 active torsions:
REMARK  status: ('A' for Active; 'I' for Inactive)
REMARK    1  A    between atoms: C2_2  and  O1_3 
REMARK    2  A    between atoms: C2_2  and  C4_5 
REMARK    3  A    between atoms: C4_5  and  O3_24 
REMARK    4  A    between atoms: C5_6  and  C6_7 
REMARK    5  A    between atoms: C9_12  and  N3_13 
REMARK    6  A    between atoms: N3_13  and  C10_14 
REMARK    7  A    between atoms: C13_17  and  N4_18 
REMARK       I    between atoms: N4_18  and  C14_19 
ROOT
HETATM    1  C6  UNL     1      23.520  -0.226  53.380  1.00  0.00     0.030 A 
HETATM    2  C7  UNL     1      23.629  -0.859  54.589  1.00  0.00     0.133 A 
HETATM    3  N1  UNL     1      22.602  -1.441  55.229  1.00  0.00    -0.253 NA
HETATM    4  C8  UNL     1      21.380  -1.408  54.659  1.00  0.00     0.234 A 
HETATM    5  N2  UNL     1      21.221  -0.794  53.468  1.00  0.00    -0.224 NA
HETATM    6  C9  UNL     1      22.259  -0.211  52.832  1.00  0.00     0.141 A 
ENDROOT
BRANCH   6   7
HETATM    7  N3  UNL     1      21.959   0.412  51.590  1.00  0.00    -0.340 N 
HETATM    8  H9  UNL     1      21.583  -0.233  50.890  1.00  0.00     0.167 HD
BRANCH   7   9
HETATM    9  C10 UNL     1      22.151   1.797  51.316  1.00  0.00     0.033 A 
HETATM   10  C11 UNL     1      21.756   2.778  52.230  1.00  0.00     0.032 A 
HETATM   11  C12 UNL     1      21.953   4.119  51.984  1.00  0.00     0.032 A 
HETATM   12  C13 UNL     1      22.549   4.548  50.822  1.00  0.00     0.034 A 
HETATM   13  C16 UNL     1      22.921   3.557  49.951  1.00  0.00     0.032 A 
HETATM   14  C17 UNL     1      22.749   2.221  50.148  1.00  0.00     0.032 A 
BRANCH  12  15
HETATM   15  N4  UNL     1      22.721   5.940  50.646  1.00  0.00    -0.328 N 
HETATM   16  C14 UNL     1      23.898   6.720  50.534  1.00  0.00     0.218 C 
HETATM   17  C15 UNL     1      23.951   8.181  50.352  1.00  0.00     0.117 C 
HETATM   18  O2  UNL     1      25.001   6.123  50.593  1.00  0.00    -0.274 OA
HETATM   19  H12 UNL     1      21.875   6.565  50.580  1.00  0.00     0.169 HD
ENDBRANCH  12  15
ENDBRANCH   7   9
ENDBRANCH   6   7
BRANCH   1  20
HETATM   20  C5  UNL     1      24.676   0.351  52.724  1.00  0.00     0.056 C 
HETATM   21  C4  UNL     1      25.957   0.057  52.594  1.00  0.00     0.101 C 
BRANCH  21  22
HETATM   22  C2  UNL     1      26.825  -1.013  53.060  1.00  0.00     0.092 C 
HETATM   23  C1  UNL     1      27.129  -2.182  52.534  1.00  0.00     0.053 C 
BRANCH  22  24
HETATM   24  O1  UNL     1      27.394  -0.665  54.292  1.00  0.00    -0.354 OA
HETATM   25  C3  UNL     1      28.765  -0.272  54.383  1.00  0.00     0.210 C 
ENDBRANCH  22  24
ENDBRANCH  21  22
BRANCH  21  26
HETATM   26  O3  UNL     1      26.747   0.913  51.856  1.00  0.00    -0.353 OA
HETATM   27  C18 UNL     1      26.359   2.216  51.463  1.00  0.00     0.210 C 
ENDBRANCH  21  26
ENDBRANCH   1  20
TORSDOF 7
ENDMDL
MODEL 4
REMARK VINA RESULT:      -7.0      3.988      5.657
REMARK  7 active torsions:
REMARK  status: ('A' for Active; 'I' for Inactive)
REMARK    1  A    between atoms: C2_2  and  O1_3 
REMARK    2  A    between atoms: C2_2  and  C4_5 
REMARK    3  A    between atoms: C4_5  and  O3_24 
REMARK    4  A    between atoms: C5_6  and  C6_7 
REMARK    5  A    between atoms: C9_12  and  N3_13 
REMARK    6  A    between atoms: N3_13  and  C10_14 
REMARK    7  A    between atoms: C13_17  and  N4_18 
REMARK       I    between atoms: N4_18  and  C14_19 
ROOT
HETATM    1  C6  UNL     1      25.383   2.397  52.696  1.00  0.00     0.030 A 
HETATM    2  C7  UNL     1      25.858   2.052  53.933  1.00  0.00     0.133 A 
HETATM    3  N1  UNL     1      27.159   1.880  54.218  1.00  0.00    -0.253 NA
HETATM    4  C8  UNL     1      28.067   2.053  53.236  1.00  0.00     0.234 A 
HETATM    5  N2  UNL     1      27.648   2.392  51.999  1.00  0.00    -0.224 NA
HETATM    6  C9  UNL     1      26.338   2.563  51.720  1.00  0.00     0.141 A 
ENDROOT
BRANCH   6   7
HETATM    7  N3  UNL     1      26.025   2.907  50.377  1.00  0.00    -0.340 N 
HETATM    8  H9  UNL     1      25.636   2.130  49.837  1.00  0.00     0.167 HD
BRANCH   7   9
HETATM    9  C10 UNL     1      26.222   4.199  49.810  1.00  0.00     0.033 A 
HETATM   10  C11 UNL     1      25.356   5.257  50.098  1.00  0.00     0.032 A 
HETATM   11  C12 UNL     1      25.547   6.516  49.570  1.00  0.00     0.032 A 
HETATM   12  C13 UNL     1      26.605   6.780  48.733  1.00  0.00     0.034 A 
HETATM   13  C16 UNL     1      27.431   5.718  48.474  1.00  0.00     0.032 A 
HETATM   14  C17 UNL     1      27.285   4.459  48.971  1.00  0.00     0.032 A 
BRANCH  12  15
HETATM   15  N4  UNL     1      26.736   8.098  48.237  1.00  0.00    -0.328 N 
HETATM   16  C14 UNL     1      27.294   9.258  48.827  1.00  0.00     0.218 C 
HETATM   17  C15 UNL     1      27.373  10.591  48.204  1.00  0.00     0.117 C 
HETATM   18  O2  UNL     1      27.766   9.153  49.986  1.00  0.00    -0.274 OA
HETATM   19  H12 UNL     1      26.380   8.329  47.272  1.00  0.00     0.169 HD
ENDBRANCH  12  15
ENDBRANCH   7   9
ENDBRANCH   6   7
BRANCH   1  20
HETATM   20  C5  UNL     1      23.968   2.603  52.462  1.00  0.00     0.056 C 
HETATM   21  C4  UNL     1      22.851   1.924  52.651  1.00  0.00     0.101 C 
BRANCH  21  22
HETATM   22  C2  UNL     1      22.514   0.620  53.199  1.00  0.00     0.092 C 
HETATM   23  C1  UNL     1      23.194  -0.507  53.252  1.00  0.00     0.053 C 
BRANCH  22  24
HETATM   24  O1  UNL     1      21.221   0.648  53.740  1.00  0.00    -0.354 OA
HETATM   25  C3  UNL     1      20.402  -0.522  53.744  1.00  0.00     0.210 C 
ENDBRANCH  22  24
ENDBRANCH  21  22
BRANCH  21  26
HETATM   26  O3  UNL     1      21.663   2.509  52.267  1.00  0.00    -0.353 OA
HETATM   27  C18 UNL     1      21.555   3.816  51.735  1.00  0.00     0.210 C 
ENDBRANCH  21  26
ENDBRANCH   1  20
TORSDOF 7
ENDMDL
MODEL 5
REMARK VINA RESULT:      -7.0      3.378      5.005
REMARK  7 active torsions:
REMARK  status: ('A' for Active; 'I' for Inactive)
REMARK    1  A    between atoms: C2_2  and  O1_3 
REMARK    2  A    between atoms: C2_2  and  C4_5 
REMARK    3  A    between atoms: C4_5  and  O3_24 
REMARK    4  A    between atoms: C5_6  and  C6_7 
REMARK    5  A    between atoms: C9_12  and  N3_13 
REMARK    6  A    between atoms: N3_13  and  C10_14 
REMARK    7  A    between atoms: C13_17  and  N4_18 
REMARK       I    between atoms: N4_18  and  C14_19 
ROOT
HETATM    1  C6  UNL     1      25.643   1.849  52.414  1.00  0.00     0.030 A 
HETATM    2  C7  UNL     1      26.743   1.928  51.601  1.00  0.00     0.133 A 
HETATM    3  N1  UNL     1      26.841   2.753  50.547  1.00  0.00    -0.253 NA
HETATM    4  C8  UNL     1      25.801   3.562  50.256  1.00  0.00     0.234 A 
HETATM    5  N2  UNL     1      24.695   3.520  51.028  1.00  0.00    -0.224 NA
HETATM    6  C9  UNL     1      24.604   2.687  52.086  1.00  0.00     0.141 A 
ENDROOT
BRANCH   6   7
HETATM    7  N3  UNL     1      23.382   2.730  52.810  1.00  0.00    -0.340 N 
HETATM    8  H9  UNL     1      23.442   3.268  53.679  1.00  0.00     0.167 HD
BRANCH   7   9
HETATM    9  C10 UNL     1      22.175   2.098  52.394  1.00  0.00     0.033 A 
HETATM   10  C11 UNL     1      20.956   2.781  52.409  1.00  0.00     0.032 A 
HETATM   11  C12 UNL     1      19.786   2.186  51.991  1.00  0.00     0.032 A 
HETATM   12  C13 UNL     1      19.772   0.887  51.540  1.00  0.00     0.034 A 
HETATM   13  C16 UNL     1      20.986   0.250  51.542  1.00  0.00     0.032 A 
HETATM   14  C17 UNL     1      22.167   0.794  51.943  1.00  0.00     0.032 A 
BRANCH  12  15
HETATM   15  N4  UNL     1      18.533   0.349  51.123  1.00  0.00    -0.328 N 
HETATM   16  C14 UNL     1      17.604  -0.472  51.807  1.00  0.00     0.218 C 
HETATM   17  C15 UNL     1      16.332  -0.976  51.261  1.00  0.00     0.117 C 
HETATM   18  O2  UNL     1      17.879  -0.807  52.986  1.00  0.00    -0.274 OA
HETATM   19  H12 UNL     1      18.177   0.551  50.152  1.00  0.00     0.169 HD
ENDBRANCH  12  15
ENDBRANCH   7   9
ENDBRANCH   6   7
BRANCH   1  20
HETATM   20  C5  UNL     1      25.614   0.962  53.560  1.00  0.00     0.056 C 
HETATM   21  C4  UNL     1      26.488   0.253  54.251  1.00  0.00     0.101 C 
BRANCH  21  22
HETATM   22  C2  UNL     1      27.923   0.028  54.184  1.00  0.00     0.092 C 
HETATM   23  C1  UNL     1      28.635  -0.883  53.552  1.00  0.00     0.053 C 
BRANCH  22  24
HETATM   24  O1  UNL     1      28.594   0.986  54.956  1.00  0.00    -0.354 OA
HETATM   25  C3  UNL     1      29.292   2.068  54.340  1.00  0.00     0.210 C 
ENDBRANCH  22  24
ENDBRANCH  21  22
BRANCH  21  26
HETATM   26  O3  UNL     1      26.022  -0.492  55.314  1.00  0.00    -0.353 OA
HETATM   27  C18 UNL     1      24.756  -1.124  55.350  1.00  0.00     0.210 C 
ENDBRANCH  21  26
ENDBRANCH   1  20
TORSDOF 7
ENDMDL
MODEL 6
REMARK VINA RESULT:      -6.9      3.901      6.236
REMARK  7 active torsions:
REMARK  status: ('A' for Active; 'I' for Inactive)
REMARK    1  A    between atoms: C2_2  and  O1_3 
REMARK    2  A    between atoms: C2_2  and  C4_5 
REMARK    3  A    between atoms: C4_5  and  O3_24 
REMARK    4  A    between atoms: C5_6  and  C6_7 
REMARK    5  A    between atoms: C9_12  and  N3_13 
REMARK    6  A    between atoms: N3_13  and  C10_14 
REMARK    7  A    between atoms: C13_17  and  N4_18 
REMARK       I    between atoms: N4_18  and  C14_19 
ROOT
HETATM    1  C6  UNL     1      25.426   1.979  52.283  1.00  0.00     0.030 A 
HETATM    2  C7  UNL     1      25.734   1.660  53.579  1.00  0.00     0.133 A 
HETATM    3  N1  UNL     1      26.966   1.751  54.103  1.00  0.00    -0.253 NA
HETATM    4  C8  UNL     1      27.976   2.181  53.318  1.00  0.00     0.234 A 
HETATM    5  N2  UNL     1      27.722   2.507  52.034  1.00  0.00    -0.224 NA
HETATM    6  C9  UNL     1      26.480   2.412  51.514  1.00  0.00     0.141 A 
ENDROOT
BRANCH   6   7
HETATM    7  N3  UNL     1      26.346   2.773  50.146  1.00  0.00    -0.340 N 
HETATM    8  H9  UNL     1      26.157   1.977  49.531  1.00  0.00     0.167 HD
BRANCH   7   9
HETATM    9  C10 UNL     1      26.459   4.103  49.649  1.00  0.00     0.033 A 
HETATM   10  C11 UNL     1      27.554   4.498  48.876  1.00  0.00     0.032 A 
HETATM   11  C12 UNL     1      27.665   5.777  48.374  1.00  0.00     0.032 A 
HETATM   12  C13 UNL     1      26.695   6.720  48.617  1.00  0.00     0.034 A 
HETATM   13  C16 UNL     1      25.638   6.296  49.380  1.00  0.00     0.032 A 
HETATM   14  C17 UNL     1      25.483   5.046  49.896  1.00  0.00     0.032 A 
BRANCH  12  15
HETATM   15  N4  UNL     1      26.878   8.008  48.063  1.00  0.00    -0.328 N 
HETATM   16  C14 UNL     1      27.506   9.162  48.592  1.00  0.00     0.218 C 
HETATM   17  C15 UNL     1      27.634  10.463  47.912  1.00  0.00     0.117 C 
HETATM   18  O2  UNL     1      28.001   9.081  49.743  1.00  0.00    -0.274 OA
HETATM   19  H12 UNL     1      26.510   8.218  47.098  1.00  0.00     0.169 HD
ENDBRANCH  12  15
ENDBRANCH   7   9
ENDBRANCH   6   7
BRANCH   1  20
HETATM   20  C5  UNL     1      24.066   1.894  51.788  1.00  0.00     0.056 C 
HETATM   21  C4  UNL     1      23.018   2.693  51.709  1.00  0.00     0.101 C 
BRANCH  21  22
HETATM   22  C2  UNL     1      22.733   4.066  52.091  1.00  0.00     0.092 C 
HETATM   23  C1  UNL     1      23.345   4.887  52.922  1.00  0.00     0.053 C 
BRANCH  22  24
HETATM   24  O1  UNL     1      21.592   4.523  51.419  1.00  0.00    -0.354 OA
HETATM   25  C3  UNL     1      21.507   5.868  50.945  1.00  0.00     0.210 C 
ENDBRANCH  22  24
ENDBRANCH  21  22
BRANCH  21  26
HETATM   26  O3  UNL     1      21.863   2.193  51.145  1.00  0.00    -0.353 OA
HETATM   27  C18 UNL     1      21.755   0.912  50.553  1.00  0.00     0.210 C 
ENDBRANCH  21  26
ENDBRANCH   1  20
TORSDOF 7
ENDMDL
MODEL 7
REMARK VINA RESULT:      -6.8      3.644      4.432
REMARK  7 active torsions:
REMARK  status: ('A' for Active; 'I' for Inactive)
REMARK    1  A    between atoms: C2_2  and  O1_3 
REMARK    2  A    between atoms: C2_2  and  C4_5 
REMARK    3  A    between atoms: C4_5  and  O3_24 
REMARK    4  A    between atoms: C5_6  and  C6_7 
REMARK    5  A    between atoms: C9_12  and  N3_13 
REMARK    6  A    between atoms: N3_13  and  C10_14 
REMARK    7  A    between atoms: C13_17  and  N4_18 
REMARK       I    between atoms: N4_18  and  C14_19 
ROOT
HETATM    1  C6  UNL     1      24.581   2.213  52.282  1.00  0.00     0.030 A 
HETATM    2  C7  UNL     1      23.371   1.896  52.839  1.00  0.00     0.133 A 
HETATM    3  N1  UNL     1      22.210   1.891  52.164  1.00  0.00    -0.253 NA
HETATM    4  C8  UNL     1      22.219   2.218  50.856  1.00  0.00     0.234 A 
HETATM    5  N2  UNL     1      23.387   2.540  50.262  1.00  0.00    -0.224 NA
HETATM    6  C9  UNL     1      24.550   2.542  50.948  1.00  0.00     0.141 A 
ENDROOT
BRANCH   6   7
HETATM    7  N3  UNL     1      25.708   2.911  50.211  1.00  0.00    -0.340 N 
HETATM    8  H9  UNL     1      26.313   2.118  49.978  1.00  0.00     0.167 HD
BRANCH   7   9
HETATM    9  C10 UNL     1      26.023   4.243  49.818  1.00  0.00     0.033 A 
HETATM   10  C11 UNL     1      27.102   4.514  48.972  1.00  0.00     0.032 A 
HETATM   11  C12 UNL     1      27.406   5.797  48.571  1.00  0.00     0.032 A 
HETATM   12  C13 UNL     1      26.653   6.867  48.992  1.00  0.00     0.034 A 
HETATM   13  C16 UNL     1      25.605   6.563  49.821  1.00  0.00     0.032 A 
HETATM   14  C17 UNL     1      25.265   5.314  50.243  1.00  0.00     0.032 A 
BRANCH  12  15
HETATM   15  N4  UNL     1      27.025   8.152  48.532  1.00  0.00    -0.328 N 
HETATM   16  C14 UNL     1      27.440   9.305  49.242  1.00  0.00     0.218 C 
HETATM   17  C15 UNL     1      27.804  10.602  48.646  1.00  0.00     0.117 C 
HETATM   18  O2  UNL     1      27.508   9.225  50.494  1.00  0.00    -0.274 OA
HETATM   19  H12 UNL     1      27.013   8.360  47.499  1.00  0.00     0.169 HD
ENDBRANCH  12  15
ENDBRANCH   7   9
ENDBRANCH   6   7
BRANCH   1  20
HETATM   20  C5  UNL     1      25.804   2.164  53.057  1.00  0.00     0.056 C 
HETATM   21  C4  UNL     1      26.421   1.286  53.828  1.00  0.00     0.101 C 
BRANCH  21  22
HETATM   22  C2  UNL     1      26.154  -0.074  54.266  1.00  0.00     0.092 C 
HETATM   23  C1  UNL     1      25.168  -0.585  54.975  1.00  0.00     0.053 C 
BRANCH  22  24
HETATM   24  O1  UNL     1      27.172  -0.929  53.823  1.00  0.00    -0.354 OA
HETATM   25  C3  UNL     1      27.054  -1.632  52.585  1.00  0.00     0.210 C 
ENDBRANCH  22  24
ENDBRANCH  21  22
BRANCH  21  26
HETATM   26  O3  UNL     1      27.618   1.659  54.404  1.00  0.00    -0.353 OA
HETATM   27  C18 UNL     1      28.664   2.316  53.715  1.00  0.00     0.210 C 
ENDBRANCH  21  26
ENDBRANCH   1  20
TORSDOF 7
ENDMDL
MODEL 8
REMARK VINA RESULT:      -6.7      2.591      7.535
REMARK  7 active torsions:
REMARK  status: ('A' for Active; 'I' for Inactive)
REMARK    1  A    between atoms: C2_2  and  O1_3 
REMARK    2  A    between atoms: C2_2  and  C4_5 
REMARK    3  A    between atoms: C4_5  and  O3_24 
REMARK    4  A    between atoms: C5_6  and  C6_7 
REMARK    5  A    between atoms: C9_12  and  N3_13 
REMARK    6  A    between atoms: N3_13  and  C10_14 
REMARK    7  A    between atoms: C13_17  and  N4_18 
REMARK       I    between atoms: N4_18  and  C14_19 
ROOT
HETATM    1  C6  UNL     1      23.299   3.150  49.276  1.00  0.00     0.030 A 
HETATM    2  C7  UNL     1      22.616   3.025  48.095  1.00  0.00     0.133 A 
HETATM    3  N1  UNL     1      21.610   2.159  47.896  1.00  0.00    -0.253 NA
HETATM    4  C8  UNL     1      21.236   1.353  48.912  1.00  0.00     0.234 A 
HETATM    5  N2  UNL     1      21.880   1.438  50.094  1.00  0.00    -0.224 NA
HETATM    6  C9  UNL     1      22.892   2.311  50.286  1.00  0.00     0.141 A 
ENDROOT
BRANCH   6   7
HETATM    7  N3  UNL     1      23.495   2.294  51.573  1.00  0.00    -0.340 N 
HETATM    8  H9  UNL     1      23.066   2.948  52.234  1.00  0.00     0.167 HD
BRANCH   7   9
HETATM    9  C10 UNL     1      24.590   1.460  51.938  1.00  0.00     0.033 A 
HETATM   10  C11 UNL     1      25.866   1.662  51.404  1.00  0.00     0.032 A 
HETATM   11  C12 UNL     1      26.936   0.873  51.764  1.00  0.00     0.032 A 
HETATM   12  C13 UNL     1      26.790  -0.152  52.668  1.00  0.00     0.034 A 
HETATM   13  C16 UNL     1      25.525  -0.320  53.169  1.00  0.00     0.032 A 
HETATM   14  C17 UNL     1      24.437   0.433  52.846  1.00  0.00     0.032 A 
BRANCH  12  15
HETATM   15  N4  UNL     1      27.937  -0.913  52.990  1.00  0.00    -0.328 N 
HETATM   16  C14 UNL     1      29.082  -0.582  53.756  1.00  0.00     0.218 C 
HETATM   17  C15 UNL     1      30.227  -1.470  54.023  1.00  0.00     0.117 C 
HETATM   18  O2  UNL     1      29.137   0.568  54.256  1.00  0.00    -0.274 OA
HETATM   19  H12 UNL     1      28.024  -1.901  52.634  1.00  0.00     0.169 HD
ENDBRANCH  12  15
ENDBRANCH   7   9
ENDBRANCH   6   7
BRANCH   1  20
HETATM   20  C5  UNL     1      24.353   4.131  49.437  1.00  0.00     0.056 C 
HETATM   21  C4  UNL     1      24.490   5.310  50.015  1.00  0.00     0.101 C 
BRANCH  21  22
HETATM   22  C2  UNL     1      23.626   6.195  50.779  1.00  0.00     0.092 C 
HETATM   23  C1  UNL     1      23.463   7.502  50.743  1.00  0.00     0.053 C 
BRANCH  22  24
HETATM   24  O1  UNL     1      22.871   5.452  51.697  1.00  0.00    -0.354 OA
HETATM   25  C3  UNL     1      21.454   5.339  51.560  1.00  0.00     0.210 C 
ENDBRANCH  22  24
ENDBRANCH  21  22
BRANCH  21  26
HETATM   26  O3  UNL     1      25.716   5.938  49.925  1.00  0.00    -0.353 OA
HETATM   27  C18 UNL     1      26.403   6.172  48.711  1.00  0.00     0.210 C 
ENDBRANCH  21  26
ENDBRANCH   1  20
TORSDOF 7
ENDMDL
MODEL 9
REMARK VINA RESULT:      -6.7      2.401      7.308
REMARK  7 active torsions:
REMARK  status: ('A' for Active; 'I' for Inactive)
REMARK    1  A    between atoms: C2_2  and  O1_3 
REMARK    2  A    between atoms: C2_2  and  C4_5 
REMARK    3  A    between atoms: C4_5  and  O3_24 
REMARK    4  A    between atoms: C5_6  and  C6_7 
REMARK    5  A    between atoms: C9_12  and  N3_13 
REMARK    6  A    between atoms: N3_13  and  C10_14 
REMARK    7  A    between atoms: C13_17  and  N4_18 
REMARK       I    between atoms: N4_18  and  C14_19 
ROOT
HETATM    1  C6  UNL     1      20.989   1.406  50.880  1.00  0.00     0.030 A 
HETATM    2  C7  UNL     1      19.833   0.833  50.422  1.00  0.00     0.133 A 
HETATM    3  N1  UNL     1      18.986   0.129  51.190  1.00  0.00    -0.253 NA
HETATM    4  C8  UNL     1      19.278  -0.033  52.497  1.00  0.00     0.234 A 
HETATM    5  N2  UNL     1      20.407   0.512  52.995  1.00  0.00    -0.224 NA
HETATM    6  C9  UNL     1      21.253   1.218  52.216  1.00  0.00     0.141 A 
ENDROOT
BRANCH   6   7
HETATM    7  N3  UNL     1      22.413   1.731  52.858  1.00  0.00    -0.340 N 
HETATM    8  H9  UNL     1      22.249   2.611  53.354  1.00  0.00     0.167 HD
BRANCH   7   9
HETATM    9  C10 UNL     1      23.691   1.103  52.833  1.00  0.00     0.033 A 
HETATM   10  C11 UNL     1      24.793   1.726  52.240  1.00  0.00     0.032 A 
HETATM   11  C12 UNL     1      26.039   1.137  52.226  1.00  0.00     0.032 A 
HETATM   12  C13 UNL     1      26.247  -0.095  52.799  1.00  0.00     0.034 A 
HETATM   13  C16 UNL     1      25.143  -0.675  53.369  1.00  0.00     0.032 A 
HETATM   14  C17 UNL     1      23.894  -0.133  53.409  1.00  0.00     0.032 A 
BRANCH  12  15
HETATM   15  N4  UNL     1      27.554  -0.631  52.749  1.00  0.00    -0.328 N 
HETATM   16  C14 UNL     1      28.563  -0.704  53.740  1.00  0.00     0.218 C 
HETATM   17  C15 UNL     1      29.903  -1.291  53.566  1.00  0.00     0.117 C 
HETATM   18  O2  UNL     1      28.303  -0.227  54.872  1.00  0.00    -0.274 OA
HETATM   19  H12 UNL     1      27.906  -1.065  51.855  1.00  0.00     0.169 HD
ENDBRANCH  12  15
ENDBRANCH   7   9
ENDBRANCH   6   7
BRANCH   1  20
HETATM   20  C5  UNL     1      21.842   2.186  50.005  1.00  0.00     0.056 C 
HETATM   21  C4  UNL     1      22.339   3.409  49.985  1.00  0.00     0.101 C 
BRANCH  21  22
HETATM   22  C2  UNL     1      22.261   4.572  50.853  1.00  0.00     0.092 C 
HETATM   23  C1  UNL     1      23.149   5.126  51.653  1.00  0.00     0.053 C 
BRANCH  22  24
HETATM   24  O1  UNL     1      20.985   5.145  50.772  1.00  0.00    -0.354 OA
HETATM   25  C3  UNL     1      20.796   6.441  50.202  1.00  0.00     0.210 C 
ENDBRANCH  22  24
ENDBRANCH  21  22
BRANCH  21  26
HETATM   26  O3  UNL     1      23.139   3.766  48.919  1.00  0.00    -0.353 OA
HETATM   27  C18 UNL     1      22.669   4.416  47.754  1.00  0.00     0.210 C 
ENDBRANCH  21  26
ENDBRANCH   1  20
TORSDOF 7
ENDMDL
