MODEL 1
REMARK VINA RESULT:      -7.7      0.000      0.000
REMARK  8 active torsions:
REMARK  status: ('A' for Active; 'I' for Inactive)
REMARK    1  A    between atoms: O1_2  and  C2_3 
REMARK    2  A    between atoms: C2_3  and  C18_23 
REMARK    3  A    between atoms: C3_4  and  C4_5 
REMARK    4  A    between atoms: C6_9  and  N3_10 
REMARK    5  A    between atoms: N3_10  and  C7_11 
REMARK    6  A    between atoms: C9_13  and  C10_14 
REMARK    7  A    between atoms: C18_23  and  O3_24 
REMARK    8  A    between atoms: O3_24  and  C19_25 
ROOT
HETATM    1  C4  UNL     1      25.871   2.616  51.988  1.00  0.00     0.070 A 
HETATM    2  N1  UNL     1      26.823   2.781  51.081  1.00  0.00    -0.241 NA
HETATM    3  C5  UNL     1      26.550   3.102  49.807  1.00  0.00     0.235 A 
HETATM    4  N2  UNL     1      25.284   3.267  49.416  1.00  0.00    -0.224 NA
HETATM    5  C6  UNL     1      24.254   3.116  50.283  1.00  0.00     0.133 A 
HETATM    6  C16 UNL     1      24.561   2.791  51.568  1.00  0.00     0.013 A 
HETATM    7  C17 UNL     1      23.493   2.623  52.559  1.00  0.00     0.055 C 
ENDROOT
BRANCH   5   8
HETATM    8  N3  UNL     1      22.955   3.321  49.764  1.00  0.00    -0.369 N 
HETATM    9  H6  UNL     1      22.417   4.168  50.047  1.00  0.00     0.161 HD
BRANCH   8  10
HETATM   10  C7  UNL     1      21.999   2.720  48.901  1.00  0.00     0.091 A 
HETATM   11  C8  UNL     1      20.552   3.056  49.214  1.00  0.00     0.036 A 
HETATM   12  C9  UNL     1      21.070   1.638  49.297  1.00  0.00     0.034 A 
BRANCH  12  13
HETATM   13  C10 UNL     1      21.153   1.003  50.630  1.00  0.00    -0.009 C 
HETATM   14  C11 UNL     1      20.339   0.401  51.482  1.00  0.00    -0.036 A 
HETATM   15  C12 UNL     1      20.875  -0.099  52.751  1.00  0.00     0.035 A 
HETATM   16  C15 UNL     1      18.926   0.240  51.155  1.00  0.00     0.035 A 
HETATM   17  C13 UNL     1      19.960  -0.679  53.510  1.00  0.00     0.142 A 
HETATM   18  O2  UNL     1      18.616  -0.838  53.212  1.00  0.00    -0.335 OA
HETATM   19  C14 UNL     1      18.100  -0.368  52.011  1.00  0.00     0.142 A 
ENDBRANCH  12  13
ENDBRANCH   8  10
ENDBRANCH   5   8
BRANCH   1  20
HETATM   20  C3  UNL     1      26.253   2.270  53.340  1.00  0.00     0.066 C 
HETATM   21  C2  UNL     1      26.157   0.997  53.691  1.00  0.00     0.072 C 
BRANCH  21  22
HETATM   22  O1  UNL     1      25.742  -0.101  52.975  1.00  0.00    -0.358 OA
HETATM   23  C1  UNL     1      24.575  -0.828  53.281  1.00  0.00     0.209 C 
ENDBRANCH  21  22
BRANCH  21  24
HETATM   24  C18 UNL     1      26.497   0.437  55.023  1.00  0.00     0.243 C 
BRANCH  24  25
HETATM   25  O3  UNL     1      27.690  -0.321  55.020  1.00  0.00    -0.315 OA
BRANCH  25  26
HETATM   26  C19 UNL     1      28.876   0.225  54.591  1.00  0.00     0.255 C 
HETATM   27  C20 UNL     1      29.791  -0.415  53.641  1.00  0.00     0.126 C 
HETATM   28  O4  UNL     1      29.143   1.367  55.088  1.00  0.00    -0.266 OA
ENDBRANCH  25  26
ENDBRANCH  24  25
ENDBRANCH  21  24
ENDBRANCH   1  20
TORSDOF 8
ENDMDL
MODEL 2
REMARK VINA RESULT:      -7.6      1.934      2.642
REMARK  8 active torsions:
REMARK  status: ('A' for Active; 'I' for Inactive)
REMARK    1  A    between atoms: O1_2  and  C2_3 
REMARK    2  A    between atoms: C2_3  and  C18_23 
REMARK    3  A    between atoms: C3_4  and  C4_5 
REMARK    4  A    between atoms: C6_9  and  N3_10 
REMARK    5  A    between atoms: N3_10  and  C7_11 
REMARK    6  A    between atoms: C9_13  and  C10_14 
REMARK    7  A    between atoms: C18_23  and  O3_24 
REMARK    8  A    between atoms: O3_24  and  C19_25 
ROOT
HETATM    1  C4  UNL     1      25.909   2.228  51.464  1.00  0.00     0.070 A 
HETATM    2  N1  UNL     1      26.777   2.557  50.518  1.00  0.00    -0.241 NA
HETATM    3  C5  UNL     1      26.627   3.652  49.758  1.00  0.00     0.235 A 
HETATM    4  N2  UNL     1      25.575   4.454  49.941  1.00  0.00    -0.224 NA
HETATM    5  C6  UNL     1      24.642   4.186  50.886  1.00  0.00     0.133 A 
HETATM    6  C16 UNL     1      24.821   3.069  51.642  1.00  0.00     0.013 A 
HETATM    7  C17 UNL     1      23.853   2.728  52.691  1.00  0.00     0.055 C 
ENDROOT
BRANCH   5   8
HETATM    8  N3  UNL     1      23.574   5.104  50.999  1.00  0.00    -0.369 N 
HETATM    9  H6  UNL     1      23.393   5.573  51.913  1.00  0.00     0.161 HD
BRANCH   8  10
HETATM   10  C7  UNL     1      22.527   5.685  50.234  1.00  0.00     0.091 A 
HETATM   11  C8  UNL     1      21.608   6.616  51.005  1.00  0.00     0.036 A 
HETATM   12  C9  UNL     1      21.093   5.344  50.371  1.00  0.00     0.034 A 
BRANCH  12  13
HETATM   13  C10 UNL     1      20.646   4.252  51.262  1.00  0.00    -0.009 C 
HETATM   14  C11 UNL     1      20.654   2.928  51.271  1.00  0.00    -0.036 A 
HETATM   15  C12 UNL     1      20.072   2.218  52.412  1.00  0.00     0.035 A 
HETATM   16  C15 UNL     1      21.235   2.192  50.153  1.00  0.00     0.035 A 
HETATM   17  C13 UNL     1      20.144   0.902  52.299  1.00  0.00     0.142 A 
HETATM   18  O2  UNL     1      20.692   0.191  51.244  1.00  0.00    -0.335 OA
HETATM   19  C14 UNL     1      21.246   0.856  50.157  1.00  0.00     0.142 A 
ENDBRANCH  12  13
ENDBRANCH   8  10
ENDBRANCH   5   8
BRANCH   1  20
HETATM   20  C3  UNL     1      26.147   1.028  52.238  1.00  0.00     0.066 C 
HETATM   21  C2  UNL     1      26.887   1.146  53.328  1.00  0.00     0.072 C 
BRANCH  21  22
HETATM   22  O1  UNL     1      27.496   2.247  53.883  1.00  0.00    -0.358 OA
HETATM   23  C1  UNL     1      28.860   2.548  53.703  1.00  0.00     0.209 C 
ENDBRANCH  21  22
BRANCH  21  24
HETATM   24  C18 UNL     1      27.246   0.044  54.256  1.00  0.00     0.243 C 
BRANCH  24  25
HETATM   25  O3  UNL     1      27.497  -1.180  53.595  1.00  0.00    -0.315 OA
BRANCH  25  26
HETATM   26  C19 UNL     1      28.775  -1.668  53.467  1.00  0.00     0.255 C 
HETATM   27  C20 UNL     1      29.988  -0.844  53.517  1.00  0.00     0.126 C 
HETATM   28  O4  UNL     1      28.847  -2.927  53.296  1.00  0.00    -0.266 OA
ENDBRANCH  25  26
ENDBRANCH  24  25
ENDBRANCH  21  24
ENDBRANCH   1  20
TORSDOF 8
ENDMDL
MODEL 3
REMARK VINA RESULT:      -7.5      3.063      6.458
REMARK  8 active torsions:
REMARK  status: ('A' for Active; 'I' for Inactive)
REMARK    1  A    between atoms: O1_2  and  C2_3 
REMARK    2  A    between atoms: C2_3  and  C18_23 
REMARK    3  A    between atoms: C3_4  and  C4_5 
REMARK    4  A    between atoms: C6_9  and  N3_10 
REMARK    5  A    between atoms: N3_10  and  C7_11 
REMARK    6  A    between atoms: C9_13  and  C10_14 
REMARK    7  A    between atoms: C18_23  and  O3_24 
REMARK    8  A    between atoms: O3_24  and  C19_25 
ROOT
HETATM    1  C4  UNL     1      22.489   3.687  50.499  1.00  0.00     0.070 A 
HETATM    2  N1  UNL     1      21.338   4.324  50.662  1.00  0.00    -0.241 NA
HETATM    3  C5  UNL     1      20.452   3.971  51.605  1.00  0.00     0.235 A 
HETATM    4  N2  UNL     1      20.714   2.947  52.420  1.00  0.00    -0.224 NA
HETATM    5  C6  UNL     1      21.867   2.244  52.318  1.00  0.00     0.133 A 
HETATM    6  C16 UNL     1      22.748   2.624  51.352  1.00  0.00     0.013 A 
HETATM    7  C17 UNL     1      24.020   1.911  51.197  1.00  0.00     0.055 C 
ENDROOT
BRANCH   5   8
HETATM    8  N3  UNL     1      22.045   1.184  53.235  1.00  0.00    -0.369 N 
HETATM    9  H6  UNL     1      22.396   1.389  54.196  1.00  0.00     0.161 HD
BRANCH   8  10
HETATM   10  C7  UNL     1      21.911  -0.227  53.337  1.00  0.00     0.091 A 
HETATM   11  C8  UNL     1      21.593  -0.743  54.729  1.00  0.00     0.036 A 
HETATM   12  C9  UNL     1      22.875  -1.117  54.022  1.00  0.00     0.034 A 
BRANCH  12  13
HETATM   13  C10 UNL     1      24.148  -0.597  54.566  1.00  0.00    -0.009 C 
HETATM   14  C11 UNL     1      25.399  -0.447  54.160  1.00  0.00    -0.036 A 
HETATM   15  C12 UNL     1      26.381   0.143  55.074  1.00  0.00     0.035 A 
HETATM   16  C15 UNL     1      25.788  -0.865  52.818  1.00  0.00     0.035 A 
HETATM   17  C13 UNL     1      27.591   0.238  54.548  1.00  0.00     0.142 A 
HETATM   18  O2  UNL     1      27.974  -0.156  53.276  1.00  0.00    -0.335 OA
HETATM   19  C14 UNL     1      27.049  -0.716  52.403  1.00  0.00     0.142 A 
ENDBRANCH  12  13
ENDBRANCH   8  10
ENDBRANCH   5   8
BRANCH   1  20
HETATM   20  C3  UNL     1      23.388   4.131  49.457  1.00  0.00     0.066 C 
HETATM   21  C2  UNL     1      24.145   5.185  49.717  1.00  0.00     0.072 C 
BRANCH  21  22
HETATM   22  O1  UNL     1      24.235   5.968  50.844  1.00  0.00    -0.358 OA
HETATM   23  C1  UNL     1      23.658   7.249  50.943  1.00  0.00     0.209 C 
ENDBRANCH  21  22
BRANCH  21  24
HETATM   24  C18 UNL     1      25.128   5.797  48.788  1.00  0.00     0.243 C 
BRANCH  24  25
HETATM   25  O3  UNL     1      26.433   5.867  49.325  1.00  0.00    -0.315 OA
BRANCH  25  26
HETATM   26  C19 UNL     1      27.429   5.032  48.880  1.00  0.00     0.255 C 
HETATM   27  C20 UNL     1      28.669   5.484  48.239  1.00  0.00     0.126 C 
HETATM   28  O4  UNL     1      27.203   3.793  49.063  1.00  0.00    -0.266 OA
ENDBRANCH  25  26
ENDBRANCH  24  25
ENDBRANCH  21  24
ENDBRANCH   1  20
TORSDOF 8
ENDMDL
MODEL 4
REMARK VINA RESULT:      -7.5      2.905      6.134
REMARK  8 active torsions:
REMARK  status: ('A' for Active; 'I' for Inactive)
REMARK    1  A    between atoms: O1_2  and  C2_3 
REMARK    2  A    between atoms: C2_3  and  C18_23 
REMARK    3  A    between atoms: C3_4  and  C4_5 
REMARK    4  A    between atoms: C6_9  and  N3_10 
REMARK    5  A    between atoms: N3_10  and  C7_11 
REMARK    6  A    between atoms: C9_13  and  C10_14 
REMARK    7  A    between atoms: C18_23  and  O3_24 
REMARK    8  A    between atoms: O3_24  and  C19_25 
ROOT
HETATM    1  C4  UNL     1      23.155   3.087  49.736  1.00  0.00     0.070 A 
HETATM    2  N1  UNL     1      22.649   2.521  48.650  1.00  0.00    -0.241 NA
HETATM    3  C5  UNL     1      21.885   1.419  48.707  1.00  0.00     0.235 A 
HETATM    4  N2  UNL     1      21.611   0.856  49.886  1.00  0.00    -0.224 NA
HETATM    5  C6  UNL     1      22.090   1.374  51.042  1.00  0.00     0.133 A 
HETATM    6  C16 UNL     1      22.862   2.492  50.953  1.00  0.00     0.013 A 
HETATM    7  C17 UNL     1      23.404   3.109  52.169  1.00  0.00     0.055 C 
ENDROOT
BRANCH   5   8
HETATM    8  N3  UNL     1      21.733   0.703  52.233  1.00  0.00    -0.369 N 
HETATM    9  H6  UNL     1      21.200   1.212  52.970  1.00  0.00     0.161 HD
BRANCH   8  10
HETATM   10  C7  UNL     1      21.855  -0.561  52.872  1.00  0.00     0.091 A 
HETATM   11  C8  UNL     1      21.605  -0.550  54.369  1.00  0.00     0.036 A 
HETATM   12  C9  UNL     1      22.949  -0.936  53.795  1.00  0.00     0.034 A 
BRANCH  12  13
HETATM   13  C10 UNL     1      24.095  -0.033  54.035  1.00  0.00    -0.009 C 
HETATM   14  C11 UNL     1      25.385   0.012  53.744  1.00  0.00    -0.036 A 
HETATM   15  C12 UNL     1      26.182   1.151  54.207  1.00  0.00     0.035 A 
HETATM   16  C15 UNL     1      26.000  -1.062  52.971  1.00  0.00     0.035 A 
HETATM   17  C13 UNL     1      27.454   1.076  53.851  1.00  0.00     0.142 A 
HETATM   18  O2  UNL     1      28.050   0.062  53.118  1.00  0.00    -0.335 OA
HETATM   19  C14 UNL     1      27.302  -1.021  52.675  1.00  0.00     0.142 A 
ENDBRANCH  12  13
ENDBRANCH   8  10
ENDBRANCH   5   8
BRANCH   1  20
HETATM   20  C3  UNL     1      23.970   4.274  49.585  1.00  0.00     0.066 C 
HETATM   21  C2  UNL     1      25.277   4.103  49.480  1.00  0.00     0.072 C 
BRANCH  21  22
HETATM   22  O1  UNL     1      26.035   2.955  49.489  1.00  0.00    -0.358 OA
HETATM   23  C1  UNL     1      26.586   2.402  50.662  1.00  0.00     0.209 C 
ENDBRANCH  21  22
BRANCH  21  24
HETATM   24  C18 UNL     1      26.283   5.183  49.319  1.00  0.00     0.243 C 
BRANCH  24  25
HETATM   25  O3  UNL     1      27.439   4.767  48.620  1.00  0.00    -0.315 OA
BRANCH  25  26
HETATM   26  C19 UNL     1      28.436   5.659  48.305  1.00  0.00     0.255 C 
HETATM   27  C20 UNL     1      28.210   7.055  47.912  1.00  0.00     0.126 C 
HETATM   28  O4  UNL     1      29.614   5.184  48.377  1.00  0.00    -0.266 OA
ENDBRANCH  25  26
ENDBRANCH  24  25
ENDBRANCH  21  24
ENDBRANCH   1  20
TORSDOF 8
ENDMDL
MODEL 5
REMARK VINA RESULT:      -7.4      2.410      3.727
REMARK  8 active torsions:
REMARK  status: ('A' for Active; 'I' for Inactive)
REMARK    1  A    between atoms: O1_2  and  C2_3 
REMARK    2  A    between atoms: C2_3  and  C18_23 
REMARK    3  A    between atoms: C3_4  and  C4_5 
REMARK    4  A    between atoms: C6_9  and  N3_10 
REMARK    5  A    between atoms: N3_10  and  C7_11 
REMARK    6  A    between atoms: C9_13  and  C10_14 
REMARK    7  A    between atoms: C18_23  and  O3_24 
REMARK    8  A    between atoms: O3_24  and  C19_25 
ROOT
HETATM    1  C4  UNL     1      26.077   2.886  50.649  1.00  0.00     0.070 A 
HETATM    2  N1  UNL     1      26.936   3.290  49.724  1.00  0.00    -0.241 NA
HETATM    3  C5  UNL     1      26.816   4.472  49.101  1.00  0.00     0.235 A 
HETATM    4  N2  UNL     1      25.804   5.288  49.406  1.00  0.00    -0.224 NA
HETATM    5  C6  UNL     1      24.883   4.948  50.339  1.00  0.00     0.133 A 
HETATM    6  C16 UNL     1      25.031   3.743  50.955  1.00  0.00     0.013 A 
HETATM    7  C17 UNL     1      24.074   3.321  51.983  1.00  0.00     0.055 C 
ENDROOT
BRANCH   5   8
HETATM    8  N3  UNL     1      23.857   5.888  50.588  1.00  0.00    -0.369 N 
HETATM    9  H6  UNL     1      23.727   6.263  51.553  1.00  0.00     0.161 HD
BRANCH   8  10
HETATM   10  C7  UNL     1      22.812   6.589  49.928  1.00  0.00     0.091 A 
HETATM   11  C8  UNL     1      21.629   6.955  50.807  1.00  0.00     0.036 A 
HETATM   12  C9  UNL     1      21.478   6.022  49.627  1.00  0.00     0.034 A 
BRANCH  12  13
HETATM   13  C10 UNL     1      21.168   4.602  49.896  1.00  0.00    -0.009 C 
HETATM   14  C11 UNL     1      21.401   3.424  49.337  1.00  0.00    -0.036 A 
HETATM   15  C12 UNL     1      20.879   2.214  49.977  1.00  0.00     0.035 A 
HETATM   16  C15 UNL     1      22.168   3.341  48.099  1.00  0.00     0.035 A 
HETATM   17  C13 UNL     1      21.181   1.106  49.320  1.00  0.00     0.142 A 
HETATM   18  O2  UNL     1      21.907   1.013  48.145  1.00  0.00    -0.335 OA
HETATM   19  C14 UNL     1      22.406   2.155  47.531  1.00  0.00     0.142 A 
ENDBRANCH  12  13
ENDBRANCH   8  10
ENDBRANCH   5   8
BRANCH   1  20
HETATM   20  C3  UNL     1      26.281   1.596  51.271  1.00  0.00     0.066 C 
HETATM   21  C2  UNL     1      27.213   1.513  52.206  1.00  0.00     0.072 C 
BRANCH  21  22
HETATM   22  O1  UNL     1      28.060   2.470  52.715  1.00  0.00    -0.358 OA
HETATM   23  C1  UNL     1      28.867   2.263  53.850  1.00  0.00     0.209 C 
ENDBRANCH  21  22
BRANCH  21  24
HETATM   24  C18 UNL     1      27.577   0.288  52.962  1.00  0.00     0.243 C 
BRANCH  24  25
HETATM   25  O3  UNL     1      26.518  -0.643  53.055  1.00  0.00    -0.315 OA
BRANCH  25  26
HETATM   26  C19 UNL     1      25.579  -0.552  54.055  1.00  0.00     0.255 C 
HETATM   27  C20 UNL     1      24.136  -0.419  53.830  1.00  0.00     0.126 C 
HETATM   28  O4  UNL     1      26.056  -0.591  55.234  1.00  0.00    -0.266 OA
ENDBRANCH  25  26
ENDBRANCH  24  25
ENDBRANCH  21  24
ENDBRANCH   1  20
TORSDOF 8
ENDMDL
MODEL 6
REMARK VINA RESULT:      -7.3      3.617      6.829
REMARK  8 active torsions:
REMARK  status: ('A' for Active; 'I' for Inactive)
REMARK    1  A    between atoms: O1_2  and  C2_3 
REMARK    2  A    between atoms: C2_3  and  C18_23 
REMARK    3  A    between atoms: C3_4  and  C4_5 
REMARK    4  A    between atoms: C6_9  and  N3_10 
REMARK    5  A    between atoms: N3_10  and  C7_11 
REMARK    6  A    between atoms: C9_13  and  C10_14 
REMARK    7  A    between atoms: C18_23  and  O3_24 
REMARK    8  A    between atoms: O3_24  and  C19_25 
ROOT
HETATM    1  C4  UNL     1      25.635   4.078  49.568  1.00  0.00     0.070 A 
HETATM    2  N1  UNL     1      24.586   4.741  49.103  1.00  0.00    -0.241 NA
HETATM    3  C5  UNL     1      23.348   4.552  49.586  1.00  0.00     0.235 A 
HETATM    4  N2  UNL     1      23.141   3.671  50.568  1.00  0.00    -0.224 NA
HETATM    5  C6  UNL     1      24.160   2.954  51.097  1.00  0.00     0.133 A 
HETATM    6  C16 UNL     1      25.405   3.167  50.588  1.00  0.00     0.013 A 
HETATM    7  C17 UNL     1      26.554   2.430  51.124  1.00  0.00     0.055 C 
ENDROOT
BRANCH   5   8
HETATM    8  N3  UNL     1      23.830   2.055  52.136  1.00  0.00    -0.369 N 
HETATM    9  H6  UNL     1      23.864   2.380  53.126  1.00  0.00     0.161 HD
BRANCH   8  10
HETATM   10  C7  UNL     1      23.426   0.709  52.350  1.00  0.00     0.091 A 
HETATM   11  C8  UNL     1      22.875   0.418  53.735  1.00  0.00     0.036 A 
HETATM   12  C9  UNL     1      24.132  -0.252  53.227  1.00  0.00     0.034 A 
BRANCH  12  13
HETATM   13  C10 UNL     1      25.416   0.096  53.872  1.00  0.00    -0.009 C 
HETATM   14  C11 UNL     1      26.677  -0.302  53.824  1.00  0.00    -0.036 A 
HETATM   15  C12 UNL     1      27.668   0.355  54.680  1.00  0.00     0.035 A 
HETATM   16  C15 UNL     1      27.069  -1.384  52.926  1.00  0.00     0.035 A 
HETATM   17  C13 UNL     1      28.888  -0.135  54.536  1.00  0.00     0.142 A 
HETATM   18  O2  UNL     1      29.273  -1.161  53.689  1.00  0.00    -0.335 OA
HETATM   19  C14 UNL     1      28.341  -1.790  52.873  1.00  0.00     0.142 A 
ENDBRANCH  12  13
ENDBRANCH   8  10
ENDBRANCH   5   8
BRANCH   1  20
HETATM   20  C3  UNL     1      26.936   4.343  48.991  1.00  0.00     0.066 C 
HETATM   21  C2  UNL     1      27.274   5.609  48.810  1.00  0.00     0.072 C 
BRANCH  21  22
HETATM   22  O1  UNL     1      26.585   6.768  49.082  1.00  0.00    -0.358 OA
HETATM   23  C1  UNL     1      27.196   8.036  49.133  1.00  0.00     0.209 C 
ENDBRANCH  21  22
BRANCH  21  24
HETATM   24  C18 UNL     1      28.555   6.091  48.236  1.00  0.00     0.243 C 
BRANCH  24  25
HETATM   25  O3  UNL     1      29.600   5.144  48.334  1.00  0.00    -0.315 OA
BRANCH  25  26
HETATM   26  C19 UNL     1      30.916   5.530  48.247  1.00  0.00     0.255 C 
HETATM   27  C20 UNL     1      31.365   6.882  47.899  1.00  0.00     0.126 C 
HETATM   28  O4  UNL     1      31.756   4.607  48.498  1.00  0.00    -0.266 OA
ENDBRANCH  25  26
ENDBRANCH  24  25
ENDBRANCH  21  24
ENDBRANCH   1  20
TORSDOF 8
ENDMDL
MODEL 7
REMARK VINA RESULT:      -7.3      3.392      6.856
REMARK  8 active torsions:
REMARK  status: ('A' for Active; 'I' for Inactive)
REMARK    1  A    between atoms: O1_2  and  C2_3 
REMARK    2  A    between atoms: C2_3  and  C18_23 
REMARK    3  A    between atoms: C3_4  and  C4_5 
REMARK    4  A    between atoms: C6_9  and  N3_10 
REMARK    5  A    between atoms: N3_10  and  C7_11 
REMARK    6  A    between atoms: C9_13  and  C10_14 
REMARK    7  A    between atoms: C18_23  and  O3_24 
REMARK    8  A    between atoms: O3_24  and  C19_25 
ROOT
HETATM    1  C4  UNL     1      25.228   2.609  52.242  1.00  0.00     0.070 A 
HETATM    2  N1  UNL     1      24.234   2.855  53.083  1.00  0.00    -0.241 NA
HETATM    3  C5  UNL     1      23.284   3.766  52.822  1.00  0.00     0.235 A 
HETATM    4  N2  UNL     1      23.319   4.461  51.683  1.00  0.00    -0.224 NA
HETATM    5  C6  UNL     1      24.302   4.269  50.771  1.00  0.00     0.133 A 
HETATM    6  C16 UNL     1      25.252   3.338  51.063  1.00  0.00     0.013 A 
HETATM    7  C17 UNL     1      26.338   3.074  50.113  1.00  0.00     0.055 C 
ENDROOT
BRANCH   5   8
HETATM    8  N3  UNL     1      24.240   5.053  49.597  1.00  0.00    -0.369 N 
HETATM    9  H6  UNL     1      24.055   4.591  48.680  1.00  0.00     0.161 HD
BRANCH   8  10
HETATM   10  C7  UNL     1      24.356   6.399  49.156  1.00  0.00     0.091 A 
HETATM   11  C8  UNL     1      24.436   6.575  47.650  1.00  0.00     0.036 A 
HETATM   12  C9  UNL     1      25.575   6.986  48.556  1.00  0.00     0.034 A 
BRANCH  12  13
HETATM   13  C10 UNL     1      26.838   6.221  48.478  1.00  0.00    -0.009 C 
HETATM   14  C11 UNL     1      28.103   6.445  48.159  1.00  0.00    -0.036 A 
HETATM   15  C12 UNL     1      29.063   5.341  48.226  1.00  0.00     0.035 A 
HETATM   16  C15 UNL     1      28.528   7.779  47.748  1.00  0.00     0.035 A 
HETATM   17  C13 UNL     1      30.290   5.697  47.884  1.00  0.00     0.142 A 
HETATM   18  O2  UNL     1      30.707   6.958  47.490  1.00  0.00    -0.335 OA
HETATM   19  C14 UNL     1      29.803   8.011  47.425  1.00  0.00     0.142 A 
ENDBRANCH  12  13
ENDBRANCH   8  10
ENDBRANCH   5   8
BRANCH   1  20
HETATM   20  C3  UNL     1      26.212   1.610  52.602  1.00  0.00     0.066 C 
HETATM   21  C2  UNL     1      25.770   0.392  52.869  1.00  0.00     0.072 C 
BRANCH  21  22
HETATM   22  O1  UNL     1      24.493  -0.119  52.867  1.00  0.00    -0.358 OA
HETATM   23  C1  UNL     1      23.877  -0.665  54.010  1.00  0.00     0.209 C 
ENDBRANCH  21  22
BRANCH  21  24
HETATM   24  C18 UNL     1      26.610  -0.769  53.256  1.00  0.00     0.243 C 
BRANCH  24  25
HETATM   25  O3  UNL     1      27.335  -0.558  54.451  1.00  0.00    -0.315 OA
BRANCH  25  26
HETATM   26  C19 UNL     1      28.630  -0.102  54.424  1.00  0.00     0.255 C 
HETATM   27  C20 UNL     1      29.697  -0.678  53.599  1.00  0.00     0.126 C 
HETATM   28  O4  UNL     1      28.858   0.891  55.187  1.00  0.00    -0.266 OA
ENDBRANCH  25  26
ENDBRANCH  24  25
ENDBRANCH  21  24
ENDBRANCH   1  20
TORSDOF 8
ENDMDL
MODEL 8
REMARK VINA RESULT:      -7.2      1.552      2.027
REMARK  8 active torsions:
REMARK  status: ('A' for Active; 'I' for Inactive)
REMARK    1  A    between atoms: O1_2  and  C2_3 
REMARK    2  A    between atoms: C2_3  and  C18_23 
REMARK    3  A    between atoms: C3_4  and  C4_5 
REMARK    4  A    between atoms: C6_9  and  N3_10 
REMARK    5  A    between atoms: N3_10  and  C7_11 
REMARK    6  A    between atoms: C9_13  and  C10_14 
REMARK    7  A    between atoms: C18_23  and  O3_24 
REMARK    8  A    between atoms: O3_24  and  C19_25 
ROOT
HETATM    1  C4  UNL     1      24.347   1.895  51.958  1.00  0.00     0.070 A 
HETATM    2  N1  UNL     1      24.965   2.765  51.172  1.00  0.00    -0.241 NA
HETATM    3  C5  UNL     1      24.471   3.129  49.979  1.00  0.00     0.235 A 
HETATM    4  N2  UNL     1      23.319   2.612  49.547  1.00  0.00    -0.224 NA
HETATM    5  C6  UNL     1      22.626   1.717  50.291  1.00  0.00     0.133 A 
HETATM    6  C16 UNL     1      23.151   1.366  51.496  1.00  0.00     0.013 A 
HETATM    7  C17 UNL     1      22.445   0.409  52.355  1.00  0.00     0.055 C 
ENDROOT
BRANCH   5   8
HETATM    8  N3  UNL     1      21.416   1.238  49.740  1.00  0.00    -0.369 N 
HETATM    9  H6  UNL     1      21.328   0.230  49.490  1.00  0.00     0.161 HD
BRANCH   8  10
HETATM   10  C7  UNL     1      20.123   1.683  49.351  1.00  0.00     0.091 A 
HETATM   11  C8  UNL     1      19.507   2.734  50.256  1.00  0.00     0.036 A 
HETATM   12  C9  UNL     1      18.871   1.374  50.078  1.00  0.00     0.034 A 
BRANCH  12  13
HETATM   13  C10 UNL     1      18.863   0.452  51.234  1.00  0.00    -0.009 C 
HETATM   14  C11 UNL     1      18.030  -0.412  51.793  1.00  0.00    -0.036 A 
HETATM   15  C12 UNL     1      18.457  -1.144  52.988  1.00  0.00     0.035 A 
HETATM   16  C15 UNL     1      16.706  -0.627  51.221  1.00  0.00     0.035 A 
HETATM   17  C13 UNL     1      17.535  -1.974  53.447  1.00  0.00     0.142 A 
HETATM   18  O2  UNL     1      16.274  -2.187  52.915  1.00  0.00    -0.335 OA
HETATM   19  C14 UNL     1      15.861  -1.498  51.781  1.00  0.00     0.142 A 
ENDBRANCH  12  13
ENDBRANCH   8  10
ENDBRANCH   5   8
BRANCH   1  20
HETATM   20  C3  UNL     1      24.949   1.557  53.230  1.00  0.00     0.066 C 
HETATM   21  C2  UNL     1      25.776   0.524  53.254  1.00  0.00     0.072 C 
BRANCH  21  22
HETATM   22  O1  UNL     1      26.182  -0.323  52.250  1.00  0.00    -0.358 OA
HETATM   23  C1  UNL     1      26.705  -1.609  52.487  1.00  0.00     0.209 C 
ENDBRANCH  21  22
BRANCH  21  24
HETATM   24  C18 UNL     1      26.493   0.015  54.450  1.00  0.00     0.243 C 
BRANCH  24  25
HETATM   25  O3  UNL     1      27.404   0.951  54.992  1.00  0.00    -0.315 OA
BRANCH  25  26
HETATM   26  C19 UNL     1      28.537   1.317  54.305  1.00  0.00     0.255 C 
HETATM   27  C20 UNL     1      29.495   0.374  53.720  1.00  0.00     0.126 C 
HETATM   28  O4  UNL     1      28.710   2.574  54.202  1.00  0.00    -0.266 OA
ENDBRANCH  25  26
ENDBRANCH  24  25
ENDBRANCH  21  24
ENDBRANCH   1  20
TORSDOF 8
ENDMDL
MODEL 9
REMARK VINA RESULT:      -7.1      4.716      7.076
REMARK  8 active torsions:
REMARK  status: ('A' for Active; 'I' for Inactive)
REMARK    1  A    between atoms: O1_2  and  C2_3 
REMARK    2  A    between atoms: C2_3  and  C18_23 
REMARK    3  A    between atoms: C3_4  and  C4_5 
REMARK    4  A    between atoms: C6_9  and  N3_10 
REMARK    5  A    between atoms: N3_10  and  C7_11 
REMARK    6  A    between atoms: C9_13  and  C10_14 
REMARK    7  A    between atoms: C18_23  and  O3_24 
REMARK    8  A    between atoms: O3_24  and  C19_25 
ROOT
HETATM    1  C4  UNL     1      26.845   6.858  48.674  1.00  0.00     0.070 A 
HETATM    2  N1  UNL     1      26.209   7.987  48.951  1.00  0.00    -0.241 NA
HETATM    3  C5  UNL     1      25.182   8.037  49.813  1.00  0.00     0.235 A 
HETATM    4  N2  UNL     1      24.767   6.925  50.425  1.00  0.00    -0.224 NA
HETATM    5  C6  UNL     1      25.364   5.731  50.194  1.00  0.00     0.133 A 
HETATM    6  C16 UNL     1      26.404   5.711  49.316  1.00  0.00     0.013 A 
HETATM    7  C17 UNL     1      27.100   4.452  49.030  1.00  0.00     0.055 C 
ENDROOT
BRANCH   5   8
HETATM    8  N3  UNL     1      24.850   4.619  50.900  1.00  0.00    -0.369 N 
HETATM    9  H6  UNL     1      25.465   4.105  51.566  1.00  0.00     0.161 HD
BRANCH   8  10
HETATM   10  C7  UNL     1      23.663   3.852  51.045  1.00  0.00     0.091 A 
HETATM   11  C8  UNL     1      23.321   3.463  52.472  1.00  0.00     0.036 A 
HETATM   12  C9  UNL     1      23.626   2.421  51.420  1.00  0.00     0.034 A 
BRANCH  12  13
HETATM   13  C10 UNL     1      24.868   1.631  51.560  1.00  0.00    -0.009 C 
HETATM   14  C11 UNL     1      25.350   0.696  52.363  1.00  0.00    -0.036 A 
HETATM   15  C12 UNL     1      26.697   0.172  52.122  1.00  0.00     0.035 A 
HETATM   16  C15 UNL     1      24.545   0.198  53.473  1.00  0.00     0.035 A 
HETATM   17  C13 UNL     1      27.059  -0.756  52.993  1.00  0.00     0.142 A 
HETATM   18  O2  UNL     1      26.305  -1.237  54.051  1.00  0.00    -0.335 OA
HETATM   19  C14 UNL     1      25.026  -0.746  54.287  1.00  0.00     0.142 A 
ENDBRANCH  12  13
ENDBRANCH   8  10
ENDBRANCH   5   8
BRANCH   1  20
HETATM   20  C3  UNL     1      27.942   6.893  47.731  1.00  0.00     0.066 C 
HETATM   21  C2  UNL     1      28.988   7.640  48.045  1.00  0.00     0.072 C 
BRANCH  21  22
HETATM   22  O1  UNL     1      29.232   8.422  49.149  1.00  0.00    -0.358 OA
HETATM   23  C1  UNL     1      30.300   9.337  49.228  1.00  0.00     0.209 C 
ENDBRANCH  21  22
BRANCH  21  24
HETATM   24  C18 UNL     1      30.211   7.810  47.220  1.00  0.00     0.243 C 
BRANCH  24  25
HETATM   25  O3  UNL     1      30.917   6.603  47.016  1.00  0.00    -0.315 OA
BRANCH  25  26
HETATM   26  C19 UNL     1      31.661   6.038  48.024  1.00  0.00     0.255 C 
HETATM   27  C20 UNL     1      32.861   6.642  48.611  1.00  0.00     0.126 C 
HETATM   28  O4  UNL     1      31.227   4.913  48.434  1.00  0.00    -0.266 OA
ENDBRANCH  25  26
ENDBRANCH  24  25
ENDBRANCH  21  24
ENDBRANCH   1  20
TORSDOF 8
ENDMDL
