MODEL 1
REMARK VINA RESULT:      -8.4      0.000      0.000
REMARK  7 active torsions:
REMARK  status: ('A' for Active; 'I' for Inactive)
REMARK    1  A    between atoms: O1_2  and  C2_3 
REMARK    2  A    between atoms: C6_9  and  N3_10 
REMARK    3  A    between atoms: N3_10  and  C7_11 
REMARK    4  A    between atoms: C15_21  and  O2_22 
REMARK    5  A    between atoms: O2_22  and  C16_23 
REMARK    6  A    between atoms: C16_23  and  C17_24 
REMARK    7  A    between atoms: C17_24  and  N4_25 
ROOT
HETATM    1  C2  UNL     1      19.969  -0.139  52.611  1.00  0.00     0.103 A 
HETATM    2  C3  UNL     1      20.311  -0.763  53.807  1.00  0.00     0.072 A 
HETATM    3  C4  UNL     1      21.642  -0.842  54.134  1.00  0.00     0.075 A 
HETATM    4  N1  UNL     1      21.896  -1.468  55.315  1.00  0.00    -0.241 NA
HETATM    5  C5  UNL     1      23.189  -1.570  55.671  1.00  0.00     0.236 A 
HETATM    6  N2  UNL     1      24.164  -1.082  54.904  1.00  0.00    -0.224 NA
HETATM    7  C6  UNL     1      23.989  -0.460  53.744  1.00  0.00     0.142 A 
HETATM    8  C13 UNL     1      22.675  -0.349  53.368  1.00  0.00     0.042 A 
HETATM    9  C14 UNL     1      22.268   0.255  52.200  1.00  0.00     0.057 A 
HETATM   10  C15 UNL     1      20.963   0.386  51.781  1.00  0.00     0.103 A 
ENDROOT
BRANCH   7  11
HETATM   11  N3  UNL     1      25.008   0.051  52.927  1.00  0.00    -0.340 N 
HETATM   12  H6  UNL     1      24.803   0.590  52.072  1.00  0.00     0.167 HD
BRANCH  11  13
HETATM   13  C7  UNL     1      26.406  -0.064  53.108  1.00  0.00     0.035 A 
HETATM   14  C8  UNL     1      27.113  -1.208  52.821  1.00  0.00     0.032 A 
HETATM   15  C9  UNL     1      28.472  -1.365  52.983  1.00  0.00     0.046 A 
HETATM   16  C10 UNL     1      29.221  -0.316  53.468  1.00  0.00     0.138 A 
HETATM   17  F1  UNL     1      30.560  -0.397  53.651  1.00  0.00    -0.204 F 
HETATM   18  C11 UNL     1      28.569   0.856  53.774  1.00  0.00     0.074 A 
HETATM   19 CL1  UNL     1      29.452   2.230  54.393  1.00  0.00    -0.081 Cl
HETATM   20  C12 UNL     1      27.210   0.944  53.588  1.00  0.00     0.056 A 
ENDBRANCH  11  13
ENDBRANCH   7  11
BRANCH  10  21
HETATM   21  O2  UNL     1      20.450   0.956  50.661  1.00  0.00    -0.347 OA
BRANCH  21  22
HETATM   22  C16 UNL     1      21.304   1.465  49.657  1.00  0.00     0.206 C 
BRANCH  22  23
HETATM   23  C17 UNL     1      21.078   2.955  49.569  1.00  0.00     0.299 C 
BRANCH  23  24
HETATM   24  N4  UNL     1      22.309   3.637  49.835  1.00  0.00     0.094 N 
HETATM   25  C18 UNL     1      23.467   2.800  49.543  1.00  0.00     0.298 C 
HETATM   26  C19 UNL     1      24.719   3.620  49.765  1.00  0.00     0.198 C 
HETATM   27  O3  UNL     1      24.805   3.976  51.104  1.00  0.00    -0.388 OA
HETATM   28  C20 UNL     1      23.688   3.625  51.825  1.00  0.00     0.198 C 
HETATM   29  C21 UNL     1      22.394   4.131  51.202  1.00  0.00     0.298 C 
ENDBRANCH  23  24
ENDBRANCH  22  23
ENDBRANCH  21  22
ENDBRANCH  10  21
BRANCH   1  30
HETATM   30  O1  UNL     1      18.608  -0.076  52.309  1.00  0.00    -0.353 OA
HETATM   31  C1  UNL     1      17.721  -1.056  52.743  1.00  0.00     0.210 C 
ENDBRANCH   1  30
TORSDOF 7
ENDMDL
MODEL 2
REMARK VINA RESULT:      -8.1      1.625      2.023
REMARK  7 active torsions:
REMARK  status: ('A' for Active; 'I' for Inactive)
REMARK    1  A    between atoms: O1_2  and  C2_3 
REMARK    2  A    between atoms: C6_9  and  N3_10 
REMARK    3  A    between atoms: N3_10  and  C7_11 
REMARK    4  A    between atoms: C15_21  and  O2_22 
REMARK    5  A    between atoms: O2_22  and  C16_23 
REMARK    6  A    between atoms: C16_23  and  C17_24 
REMARK    7  A    between atoms: C17_24  and  N4_25 
ROOT
HETATM    1  C2  UNL     1      20.502   2.134  52.398  1.00  0.00     0.103 A 
HETATM    2  C3  UNL     1      20.492   1.221  53.448  1.00  0.00     0.072 A 
HETATM    3  C4  UNL     1      21.640   0.508  53.691  1.00  0.00     0.075 A 
HETATM    4  N1  UNL     1      21.552  -0.366  54.731  1.00  0.00    -0.241 NA
HETATM    5  C5  UNL     1      22.654  -1.088  55.000  1.00  0.00     0.236 A 
HETATM    6  N2  UNL     1      23.769  -0.951  54.283  1.00  0.00    -0.224 NA
HETATM    7  C6  UNL     1      23.926  -0.120  53.260  1.00  0.00     0.142 A 
HETATM    8  C13 UNL     1      22.810   0.623  52.973  1.00  0.00     0.042 A 
HETATM    9  C14 UNL     1      22.752   1.541  51.951  1.00  0.00     0.057 A 
HETATM   10  C15 UNL     1      21.654   2.306  51.625  1.00  0.00     0.103 A 
ENDROOT
BRANCH   7  11
HETATM   11  N3  UNL     1      25.094   0.027  52.496  1.00  0.00    -0.340 N 
HETATM   12  H6  UNL     1      25.069   0.372  51.525  1.00  0.00     0.167 HD
BRANCH  11  13
HETATM   13  C7  UNL     1      26.426  -0.246  52.885  1.00  0.00     0.035 A 
HETATM   14  C8  UNL     1      27.025  -1.473  52.717  1.00  0.00     0.032 A 
HETATM   15  C9  UNL     1      28.317  -1.783  53.081  1.00  0.00     0.046 A 
HETATM   16  C10 UNL     1      29.107  -0.816  53.663  1.00  0.00     0.138 A 
HETATM   17  F1  UNL     1      30.384  -1.048  54.044  1.00  0.00    -0.204 F 
HETATM   18  C11 UNL     1      28.562   0.432  53.856  1.00  0.00     0.074 A 
HETATM   19 CL1  UNL     1      29.503   1.710  54.588  1.00  0.00    -0.081 Cl
HETATM   20  C12 UNL     1      27.266   0.673  53.469  1.00  0.00     0.056 A 
ENDBRANCH  11  13
ENDBRANCH   7  11
BRANCH  10  21
HETATM   21  O2  UNL     1      21.483   3.233  50.648  1.00  0.00    -0.347 OA
BRANCH  21  22
HETATM   22  C16 UNL     1      22.600   3.830  50.021  1.00  0.00     0.206 C 
BRANCH  22  23
HETATM   23  C17 UNL     1      23.307   4.680  51.049  1.00  0.00     0.299 C 
BRANCH  23  24
HETATM   24  N4  UNL     1      24.677   4.846  50.664  1.00  0.00     0.094 N 
HETATM   25  C18 UNL     1      24.802   5.284  49.278  1.00  0.00     0.298 C 
HETATM   26  C19 UNL     1      26.266   5.519  48.981  1.00  0.00     0.198 C 
HETATM   27  O3  UNL     1      26.957   4.320  49.090  1.00  0.00    -0.388 OA
HETATM   28  C20 UNL     1      26.177   3.293  49.570  1.00  0.00     0.198 C 
HETATM   29  C21 UNL     1      25.469   3.642  50.871  1.00  0.00     0.298 C 
ENDBRANCH  23  24
ENDBRANCH  22  23
ENDBRANCH  21  22
ENDBRANCH  10  21
BRANCH   1  30
HETATM   30  O1  UNL     1      19.320   2.841  52.178  1.00  0.00    -0.353 OA
HETATM   31  C1  UNL     1      18.264   2.288  51.461  1.00  0.00     0.210 C 
ENDBRANCH   1  30
TORSDOF 7
ENDMDL
MODEL 3
REMARK VINA RESULT:      -7.9      3.444      5.313
REMARK  7 active torsions:
REMARK  status: ('A' for Active; 'I' for Inactive)
REMARK    1  A    between atoms: O1_2  and  C2_3 
REMARK    2  A    between atoms: C6_9  and  N3_10 
REMARK    3  A    between atoms: N3_10  and  C7_11 
REMARK    4  A    between atoms: C15_21  and  O2_22 
REMARK    5  A    between atoms: O2_22  and  C16_23 
REMARK    6  A    between atoms: C16_23  and  C17_24 
REMARK    7  A    between atoms: C17_24  and  N4_25 
ROOT
HETATM    1  C2  UNL     1      23.542   0.049  53.381  1.00  0.00     0.103 A 
HETATM    2  C3  UNL     1      24.819   0.231  53.905  1.00  0.00     0.072 A 
HETATM    3  C4  UNL     1      25.703   1.002  53.191  1.00  0.00     0.075 A 
HETATM    4  N1  UNL     1      26.930   1.131  53.766  1.00  0.00    -0.241 NA
HETATM    5  C5  UNL     1      27.827   1.875  53.097  1.00  0.00     0.236 A 
HETATM    6  N2  UNL     1      27.526   2.452  51.934  1.00  0.00    -0.224 NA
HETATM    7  C6  UNL     1      26.353   2.370  51.318  1.00  0.00     0.142 A 
HETATM    8  C13 UNL     1      25.427   1.614  51.988  1.00  0.00     0.042 A 
HETATM    9  C14 UNL     1      24.150   1.393  51.527  1.00  0.00     0.057 A 
HETATM   10  C15 UNL     1      23.190   0.639  52.164  1.00  0.00     0.103 A 
ENDROOT
BRANCH   7  11
HETATM   11  N3  UNL     1      26.028   2.968  50.091  1.00  0.00    -0.340 N 
HETATM   12  H6  UNL     1      25.579   2.439  49.329  1.00  0.00     0.167 HD
BRANCH  11  13
HETATM   13  C7  UNL     1      26.238   4.310  49.698  1.00  0.00     0.035 A 
HETATM   14  C8  UNL     1      27.255   4.702  48.858  1.00  0.00     0.032 A 
HETATM   15  C9  UNL     1      27.496   5.995  48.450  1.00  0.00     0.046 A 
HETATM   16  C10 UNL     1      26.676   7.009  48.895  1.00  0.00     0.138 A 
HETATM   17  F1  UNL     1      26.852   8.301  48.534  1.00  0.00    -0.204 F 
HETATM   18  C11 UNL     1      25.641   6.678  49.737  1.00  0.00     0.074 A 
HETATM   19 CL1  UNL     1      24.558   7.910  50.342  1.00  0.00    -0.081 Cl
HETATM   20  C12 UNL     1      25.457   5.367  50.105  1.00  0.00     0.056 A 
ENDBRANCH  11  13
ENDBRANCH   7  11
BRANCH  10  21
HETATM   21  O2  UNL     1      21.911   0.355  51.807  1.00  0.00    -0.347 OA
BRANCH  21  22
HETATM   22  C16 UNL     1      21.350   0.915  50.637  1.00  0.00     0.206 C 
BRANCH  22  23
HETATM   23  C17 UNL     1      20.116   1.687  51.040  1.00  0.00     0.299 C 
BRANCH  23  24
HETATM   24  N4  UNL     1      20.395   3.090  50.978  1.00  0.00     0.094 N 
HETATM   25  C18 UNL     1      21.438   3.394  50.005  1.00  0.00     0.298 C 
HETATM   26  C19 UNL     1      21.608   4.896  49.940  1.00  0.00     0.198 C 
HETATM   27  O3  UNL     1      22.054   5.363  51.169  1.00  0.00    -0.388 OA
HETATM   28  C20 UNL     1      22.080   4.386  52.136  1.00  0.00     0.198 C 
HETATM   29  C21 UNL     1      20.757   3.649  52.274  1.00  0.00     0.298 C 
ENDBRANCH  23  24
ENDBRANCH  22  23
ENDBRANCH  21  22
ENDBRANCH  10  21
BRANCH   1  30
HETATM   30  O1  UNL     1      22.669  -0.740  54.131  1.00  0.00    -0.353 OA
HETATM   31  C1  UNL     1      23.063  -1.321  55.332  1.00  0.00     0.210 C 
ENDBRANCH   1  30
TORSDOF 7
ENDMDL
MODEL 4
REMARK VINA RESULT:      -7.9      3.362      6.389
REMARK  7 active torsions:
REMARK  status: ('A' for Active; 'I' for Inactive)
REMARK    1  A    between atoms: O1_2  and  C2_3 
REMARK    2  A    between atoms: C6_9  and  N3_10 
REMARK    3  A    between atoms: N3_10  and  C7_11 
REMARK    4  A    between atoms: C15_21  and  O2_22 
REMARK    5  A    between atoms: O2_22  and  C16_23 
REMARK    6  A    between atoms: C16_23  and  C17_24 
REMARK    7  A    between atoms: C17_24  and  N4_25 
ROOT
HETATM    1  C2  UNL     1      22.078   0.406  52.236  1.00  0.00     0.103 A 
HETATM    2  C3  UNL     1      21.305   0.676  51.111  1.00  0.00     0.072 A 
HETATM    3  C4  UNL     1      21.837   1.497  50.147  1.00  0.00     0.075 A 
HETATM    4  N1  UNL     1      21.020   1.716  49.080  1.00  0.00    -0.241 NA
HETATM    5  C5  UNL     1      21.502   2.518  48.115  1.00  0.00     0.236 A 
HETATM    6  N2  UNL     1      22.713   3.067  48.204  1.00  0.00    -0.224 NA
HETATM    7  C6  UNL     1      23.561   2.896  49.212  1.00  0.00     0.142 A 
HETATM    8  C13 UNL     1      23.083   2.080  50.204  1.00  0.00     0.042 A 
HETATM    9  C14 UNL     1      23.794   1.772  51.342  1.00  0.00     0.057 A 
HETATM   10  C15 UNL     1      23.354   0.962  52.364  1.00  0.00     0.103 A 
ENDROOT
BRANCH   7  11
HETATM   11  N3  UNL     1      24.835   3.474  49.318  1.00  0.00    -0.340 N 
HETATM   12  H6  UNL     1      25.696   2.920  49.201  1.00  0.00     0.167 HD
BRANCH  11  13
HETATM   13  C7  UNL     1      25.155   4.826  49.582  1.00  0.00     0.035 A 
HETATM   14  C8  UNL     1      24.482   5.596  50.502  1.00  0.00     0.032 A 
HETATM   15  C9  UNL     1      24.759   6.914  50.791  1.00  0.00     0.046 A 
HETATM   16  C10 UNL     1      25.786   7.550  50.128  1.00  0.00     0.138 A 
HETATM   17  F1  UNL     1      26.115   8.842  50.361  1.00  0.00    -0.204 F 
HETATM   18  C11 UNL     1      26.496   6.831  49.195  1.00  0.00     0.074 A 
HETATM   19 CL1  UNL     1      27.812   7.570  48.315  1.00  0.00    -0.081 Cl
HETATM   20  C12 UNL     1      26.166   5.518  48.957  1.00  0.00     0.056 A 
ENDBRANCH  11  13
ENDBRANCH   7  11
BRANCH  10  21
HETATM   21  O2  UNL     1      23.962   0.592  53.521  1.00  0.00    -0.347 OA
BRANCH  21  22
HETATM   22  C16 UNL     1      24.657  -0.635  53.607  1.00  0.00     0.206 C 
BRANCH  22  23
HETATM   23  C17 UNL     1      26.010  -0.445  52.964  1.00  0.00     0.299 C 
BRANCH  23  24
HETATM   24  N4  UNL     1      26.713   0.602  53.642  1.00  0.00     0.094 N 
HETATM   25  C18 UNL     1      27.667   1.272  52.766  1.00  0.00     0.298 C 
HETATM   26  C19 UNL     1      28.298   2.414  53.531  1.00  0.00     0.198 C 
HETATM   27  O3  UNL     1      29.021   1.908  54.603  1.00  0.00    -0.388 OA
HETATM   28  C20 UNL     1      28.855   0.553  54.768  1.00  0.00     0.198 C 
HETATM   29  C21 UNL     1      27.394   0.136  54.843  1.00  0.00     0.298 C 
ENDBRANCH  23  24
ENDBRANCH  22  23
ENDBRANCH  21  22
ENDBRANCH  10  21
BRANCH   1  30
HETATM   30  O1  UNL     1      21.508  -0.431  53.196  1.00  0.00    -0.353 OA
HETATM   31  C1  UNL     1      20.644   0.060  54.168  1.00  0.00     0.210 C 
ENDBRANCH   1  30
TORSDOF 7
ENDMDL
MODEL 5
REMARK VINA RESULT:      -7.9      3.237      6.048
REMARK  7 active torsions:
REMARK  status: ('A' for Active; 'I' for Inactive)
REMARK    1  A    between atoms: O1_2  and  C2_3 
REMARK    2  A    between atoms: C6_9  and  N3_10 
REMARK    3  A    between atoms: N3_10  and  C7_11 
REMARK    4  A    between atoms: C15_21  and  O2_22 
REMARK    5  A    between atoms: O2_22  and  C16_23 
REMARK    6  A    between atoms: C16_23  and  C17_24 
REMARK    7  A    between atoms: C17_24  and  N4_25 
ROOT
HETATM    1  C2  UNL     1      22.248   0.399  52.998  1.00  0.00     0.103 A 
HETATM    2  C3  UNL     1      21.168   1.075  52.439  1.00  0.00     0.072 A 
HETATM    3  C4  UNL     1      21.372   2.359  51.997  1.00  0.00     0.075 A 
HETATM    4  N1  UNL     1      20.270   2.955  51.466  1.00  0.00    -0.241 NA
HETATM    5  C5  UNL     1      20.426   4.215  51.024  1.00  0.00     0.236 A 
HETATM    6  N2  UNL     1      21.600   4.841  51.104  1.00  0.00    -0.224 NA
HETATM    7  C6  UNL     1      22.714   4.322  51.607  1.00  0.00     0.142 A 
HETATM    8  C13 UNL     1      22.570   3.037  52.062  1.00  0.00     0.042 A 
HETATM    9  C14 UNL     1      23.594   2.312  52.625  1.00  0.00     0.057 A 
HETATM   10  C15 UNL     1      23.494   1.022  53.098  1.00  0.00     0.103 A 
ENDROOT
BRANCH   7  11
HETATM   11  N3  UNL     1      23.952   4.975  51.702  1.00  0.00    -0.340 N 
HETATM   12  H6  UNL     1      24.218   5.521  52.534  1.00  0.00     0.167 HD
BRANCH  11  13
HETATM   13  C7  UNL     1      24.994   5.002  50.746  1.00  0.00     0.035 A 
HETATM   14  C8  UNL     1      25.706   3.886  50.372  1.00  0.00     0.032 A 
HETATM   15  C9  UNL     1      26.727   3.867  49.447  1.00  0.00     0.046 A 
HETATM   16  C10 UNL     1      27.096   5.038  48.822  1.00  0.00     0.138 A 
HETATM   17  F1  UNL     1      28.088   5.093  47.903  1.00  0.00    -0.204 F 
HETATM   18  C11 UNL     1      26.419   6.188  49.155  1.00  0.00     0.074 A 
HETATM   19 CL1  UNL     1      26.831   7.711  48.404  1.00  0.00    -0.081 Cl
HETATM   20  C12 UNL     1      25.410   6.135  50.086  1.00  0.00     0.056 A 
ENDBRANCH  11  13
ENDBRANCH   7  11
BRANCH  10  21
HETATM   21  O2  UNL     1      24.427   0.217  53.668  1.00  0.00    -0.347 OA
BRANCH  21  22
HETATM   22  C16 UNL     1      25.370  -0.469  52.868  1.00  0.00     0.206 C 
BRANCH  22  23
HETATM   23  C17 UNL     1      26.288   0.560  52.253  1.00  0.00     0.299 C 
BRANCH  23  24
HETATM   24  N4  UNL     1      27.647   0.217  52.546  1.00  0.00     0.094 N 
HETATM   25  C18 UNL     1      27.756  -1.112  53.136  1.00  0.00     0.298 C 
HETATM   26  C19 UNL     1      29.222  -1.430  53.332  1.00  0.00     0.198 C 
HETATM   27  O3  UNL     1      29.769  -0.537  54.244  1.00  0.00    -0.388 OA
HETATM   28  C20 UNL     1      28.896   0.462  54.605  1.00  0.00     0.198 C 
HETATM   29  C21 UNL     1      28.299   1.191  53.411  1.00  0.00     0.298 C 
ENDBRANCH  23  24
ENDBRANCH  22  23
ENDBRANCH  21  22
ENDBRANCH  10  21
BRANCH   1  30
HETATM   30  O1  UNL     1      22.005  -0.903  53.438  1.00  0.00    -0.353 OA
HETATM   31  C1  UNL     1      21.376  -1.155  54.652  1.00  0.00     0.210 C 
ENDBRANCH   1  30
TORSDOF 7
ENDMDL
MODEL 6
REMARK VINA RESULT:      -7.9      2.157      5.083
REMARK  7 active torsions:
REMARK  status: ('A' for Active; 'I' for Inactive)
REMARK    1  A    between atoms: O1_2  and  C2_3 
REMARK    2  A    between atoms: C6_9  and  N3_10 
REMARK    3  A    between atoms: N3_10  and  C7_11 
REMARK    4  A    between atoms: C15_21  and  O2_22 
REMARK    5  A    between atoms: O2_22  and  C16_23 
REMARK    6  A    between atoms: C16_23  and  C17_24 
REMARK    7  A    between atoms: C17_24  and  N4_25 
ROOT
HETATM    1  C2  UNL     1      22.111   4.540  49.632  1.00  0.00     0.103 A 
HETATM    2  C3  UNL     1      23.338   4.967  49.130  1.00  0.00     0.072 A 
HETATM    3  C4  UNL     1      24.469   4.320  49.561  1.00  0.00     0.075 A 
HETATM    4  N1  UNL     1      25.628   4.796  49.029  1.00  0.00    -0.241 NA
HETATM    5  C5  UNL     1      26.761   4.192  49.428  1.00  0.00     0.236 A 
HETATM    6  N2  UNL     1      26.744   3.182  50.297  1.00  0.00    -0.224 NA
HETATM    7  C6  UNL     1      25.653   2.667  50.853  1.00  0.00     0.142 A 
HETATM    8  C13 UNL     1      24.490   3.273  50.456  1.00  0.00     0.042 A 
HETATM    9  C14 UNL     1      23.246   2.902  50.913  1.00  0.00     0.057 A 
HETATM   10  C15 UNL     1      22.054   3.483  50.545  1.00  0.00     0.103 A 
ENDROOT
BRANCH   7  11
HETATM   11  N3  UNL     1      25.625   1.609  51.774  1.00  0.00    -0.340 N 
HETATM   12  H6  UNL     1      24.743   1.160  52.062  1.00  0.00     0.167 HD
BRANCH  11  13
HETATM   13  C7  UNL     1      26.721   1.001  52.431  1.00  0.00     0.035 A 
HETATM   14  C8  UNL     1      26.966  -0.352  52.396  1.00  0.00     0.032 A 
HETATM   15  C9  UNL     1      28.018  -0.986  53.019  1.00  0.00     0.046 A 
HETATM   16  C10 UNL     1      28.921  -0.242  53.747  1.00  0.00     0.138 A 
HETATM   17  F1  UNL     1      29.978  -0.796  54.385  1.00  0.00    -0.204 F 
HETATM   18  C11 UNL     1      28.727   1.118  53.819  1.00  0.00     0.074 A 
HETATM   19 CL1  UNL     1      29.830   2.127  54.724  1.00  0.00    -0.081 Cl
HETATM   20  C12 UNL     1      27.656   1.685  53.172  1.00  0.00     0.056 A 
ENDBRANCH  11  13
ENDBRANCH   7  11
BRANCH  10  21
HETATM   21  O2  UNL     1      20.781   3.203  50.926  1.00  0.00    -0.347 OA
BRANCH  21  22
HETATM   22  C16 UNL     1      20.468   2.994  52.288  1.00  0.00     0.206 C 
BRANCH  22  23
HETATM   23  C17 UNL     1      20.184   1.523  52.476  1.00  0.00     0.299 C 
BRANCH  23  24
HETATM   24  N4  UNL     1      21.236   0.935  53.250  1.00  0.00     0.094 N 
HETATM   25  C18 UNL     1      22.002  -0.035  52.476  1.00  0.00     0.298 C 
HETATM   26  C19 UNL     1      23.140  -0.541  53.335  1.00  0.00     0.198 C 
HETATM   27  O3  UNL     1      22.625  -1.216  54.432  1.00  0.00    -0.388 OA
HETATM   28  C20 UNL     1      21.256  -1.123  54.525  1.00  0.00     0.198 C 
HETATM   29  C21 UNL     1      20.753   0.312  54.475  1.00  0.00     0.298 C 
ENDBRANCH  23  24
ENDBRANCH  22  23
ENDBRANCH  21  22
ENDBRANCH  10  21
BRANCH   1  30
HETATM   30  O1  UNL     1      20.982   5.219  49.174  1.00  0.00    -0.353 OA
HETATM   31  C1  UNL     1      20.514   6.363  49.811  1.00  0.00     0.210 C 
ENDBRANCH   1  30
TORSDOF 7
ENDMDL
MODEL 7
REMARK VINA RESULT:      -7.8      4.006      6.541
REMARK  7 active torsions:
REMARK  status: ('A' for Active; 'I' for Inactive)
REMARK    1  A    between atoms: O1_2  and  C2_3 
REMARK    2  A    between atoms: C6_9  and  N3_10 
REMARK    3  A    between atoms: N3_10  and  C7_11 
REMARK    4  A    between atoms: C15_21  and  O2_22 
REMARK    5  A    between atoms: O2_22  and  C16_23 
REMARK    6  A    between atoms: C16_23  and  C17_24 
REMARK    7  A    between atoms: C17_24  and  N4_25 
ROOT
HETATM    1  C2  UNL     1      26.935   0.541  53.364  1.00  0.00     0.103 A 
HETATM    2  C3  UNL     1      26.428  -0.118  54.480  1.00  0.00     0.072 A 
HETATM    3  C4  UNL     1      25.111  -0.505  54.454  1.00  0.00     0.075 A 
HETATM    4  N1  UNL     1      24.688  -1.140  55.582  1.00  0.00    -0.241 NA
HETATM    5  C5  UNL     1      23.401  -1.532  55.599  1.00  0.00     0.236 A 
HETATM    6  N2  UNL     1      22.590  -1.308  54.566  1.00  0.00    -0.224 NA
HETATM    7  C6  UNL     1      22.934  -0.697  53.438  1.00  0.00     0.142 A 
HETATM    8  C13 UNL     1      24.243  -0.291  53.406  1.00  0.00     0.042 A 
HETATM    9  C14 UNL     1      24.808   0.365  52.336  1.00  0.00     0.057 A 
HETATM   10  C15 UNL     1      26.115   0.793  52.262  1.00  0.00     0.103 A 
ENDROOT
BRANCH   7  11
HETATM   11  N3  UNL     1      22.086  -0.450  52.348  1.00  0.00    -0.340 N 
HETATM   12  H6  UNL     1      22.100  -1.040  51.503  1.00  0.00     0.167 HD
BRANCH  11  13
HETATM   13  C7  UNL     1      21.122   0.575  52.214  1.00  0.00     0.035 A 
HETATM   14  C8  UNL     1      21.374   1.894  52.515  1.00  0.00     0.032 A 
HETATM   15  C9  UNL     1      20.467   2.924  52.399  1.00  0.00     0.046 A 
HETATM   16  C10 UNL     1      19.193   2.655  51.950  1.00  0.00     0.138 A 
HETATM   17  F1  UNL     1      18.250   3.617  51.811  1.00  0.00    -0.204 F 
HETATM   18  C11 UNL     1      18.881   1.354  51.633  1.00  0.00     0.074 A 
HETATM   19 CL1  UNL     1      17.285   0.937  51.056  1.00  0.00    -0.081 Cl
HETATM   20  C12 UNL     1      19.835   0.375  51.771  1.00  0.00     0.056 A 
ENDBRANCH  11  13
ENDBRANCH   7  11
BRANCH  10  21
HETATM   21  O2  UNL     1      26.775   1.442  51.268  1.00  0.00    -0.347 OA
BRANCH  21  22
HETATM   22  C16 UNL     1      26.705   2.850  51.160  1.00  0.00     0.206 C 
BRANCH  22  23
HETATM   23  C17 UNL     1      25.891   3.178  49.931  1.00  0.00     0.299 C 
BRANCH  23  24
HETATM   24  N4  UNL     1      25.003   4.263  50.228  1.00  0.00     0.094 N 
HETATM   25  C18 UNL     1      24.221   4.010  51.432  1.00  0.00     0.298 C 
HETATM   26  C19 UNL     1      23.380   5.233  51.721  1.00  0.00     0.198 C 
HETATM   27  O3  UNL     1      22.476   5.428  50.685  1.00  0.00    -0.388 OA
HETATM   28  C20 UNL     1      22.678   4.569  49.630  1.00  0.00     0.198 C 
HETATM   29  C21 UNL     1      24.111   4.578  49.120  1.00  0.00     0.298 C 
ENDBRANCH  23  24
ENDBRANCH  22  23
ENDBRANCH  21  22
ENDBRANCH  10  21
BRANCH   1  30
HETATM   30  O1  UNL     1      28.277   0.920  53.423  1.00  0.00    -0.353 OA
HETATM   31  C1  UNL     1      29.097   0.529  54.476  1.00  0.00     0.210 C 
ENDBRANCH   1  30
TORSDOF 7
ENDMDL
MODEL 8
REMARK VINA RESULT:      -7.7      3.964      6.503
REMARK  7 active torsions:
REMARK  status: ('A' for Active; 'I' for Inactive)
REMARK    1  A    between atoms: O1_2  and  C2_3 
REMARK    2  A    between atoms: C6_9  and  N3_10 
REMARK    3  A    between atoms: N3_10  and  C7_11 
REMARK    4  A    between atoms: C15_21  and  O2_22 
REMARK    5  A    between atoms: O2_22  and  C16_23 
REMARK    6  A    between atoms: C16_23  and  C17_24 
REMARK    7  A    between atoms: C17_24  and  N4_25 
ROOT
HETATM    1  C2  UNL     1      27.514   1.549  53.124  1.00  0.00     0.103 A 
HETATM    2  C3  UNL     1      27.192   0.754  54.221  1.00  0.00     0.072 A 
HETATM    3  C4  UNL     1      25.949   0.174  54.251  1.00  0.00     0.075 A 
HETATM    4  N1  UNL     1      25.708  -0.585  55.356  1.00  0.00    -0.241 NA
HETATM    5  C5  UNL     1      24.499  -1.169  55.427  1.00  0.00     0.236 A 
HETATM    6  N2  UNL     1      23.590  -1.010  54.465  1.00  0.00    -0.224 NA
HETATM    7  C6  UNL     1      23.757  -0.287  53.364  1.00  0.00     0.142 A 
HETATM    8  C13 UNL     1      24.985   0.315  53.277  1.00  0.00     0.042 A 
HETATM    9  C14 UNL     1      25.367   1.112  52.223  1.00  0.00     0.057 A 
HETATM   10  C15 UNL     1      26.587   1.739  52.096  1.00  0.00     0.103 A 
ENDROOT
BRANCH   7  11
HETATM   11  N3  UNL     1      22.804  -0.108  52.349  1.00  0.00    -0.340 N 
HETATM   12  H6  UNL     1      22.732  -0.753  51.549  1.00  0.00     0.167 HD
BRANCH  11  13
HETATM   13  C7  UNL     1      21.833   0.914  52.242  1.00  0.00     0.035 A 
HETATM   14  C8  UNL     1      20.480   0.669  52.190  1.00  0.00     0.032 A 
HETATM   15  C9  UNL     1      19.500   1.631  52.086  1.00  0.00     0.046 A 
HETATM   16  C10 UNL     1      19.860   2.959  52.026  1.00  0.00     0.138 A 
HETATM   17  F1  UNL     1      18.953   3.958  51.925  1.00  0.00    -0.204 F 
HETATM   18  C11 UNL     1      21.200   3.268  52.075  1.00  0.00     0.074 A 
HETATM   19 CL1  UNL     1      21.733   4.930  52.005  1.00  0.00    -0.081 Cl
HETATM   20  C12 UNL     1      22.125   2.257  52.179  1.00  0.00     0.056 A 
ENDBRANCH  11  13
ENDBRANCH   7  11
BRANCH  10  21
HETATM   21  O2  UNL     1      27.069   2.540  51.112  1.00  0.00    -0.347 OA
BRANCH  21  22
HETATM   22  C16 UNL     1      26.199   3.092  50.144  1.00  0.00     0.206 C 
BRANCH  22  23
HETATM   23  C17 UNL     1      27.004   4.038  49.286  1.00  0.00     0.299 C 
BRANCH  23  24
HETATM   24  N4  UNL     1      26.194   5.168  48.940  1.00  0.00     0.094 N 
HETATM   25  C18 UNL     1      27.002   6.303  48.510  1.00  0.00     0.298 C 
HETATM   26  C19 UNL     1      26.072   7.417  48.082  1.00  0.00     0.198 C 
HETATM   27  O3  UNL     1      25.327   7.841  49.174  1.00  0.00    -0.388 OA
HETATM   28  C20 UNL     1      25.519   7.061  50.290  1.00  0.00     0.198 C 
HETATM   29  C21 UNL     1      25.309   5.577  50.022  1.00  0.00     0.298 C 
ENDBRANCH  23  24
ENDBRANCH  22  23
ENDBRANCH  21  22
ENDBRANCH  10  21
BRANCH   1  30
HETATM   30  O1  UNL     1      28.785   2.125  53.125  1.00  0.00    -0.353 OA
HETATM   31  C1  UNL     1      29.566   2.161  54.275  1.00  0.00     0.210 C 
ENDBRANCH   1  30
TORSDOF 7
ENDMDL
MODEL 9
REMARK VINA RESULT:      -7.7      3.389      6.094
REMARK  7 active torsions:
REMARK  status: ('A' for Active; 'I' for Inactive)
REMARK    1  A    between atoms: O1_2  and  C2_3 
REMARK    2  A    between atoms: C6_9  and  N3_10 
REMARK    3  A    between atoms: N3_10  and  C7_11 
REMARK    4  A    between atoms: C15_21  and  O2_22 
REMARK    5  A    between atoms: O2_22  and  C16_23 
REMARK    6  A    between atoms: C16_23  and  C17_24 
REMARK    7  A    between atoms: C17_24  and  N4_25 
ROOT
HETATM    1  C2  UNL     1      22.401   0.092  53.249  1.00  0.00     0.103 A 
HETATM    2  C3  UNL     1      21.188   0.144  52.568  1.00  0.00     0.072 A 
HETATM    3  C4  UNL     1      21.159   0.789  51.356  1.00  0.00     0.075 A 
HETATM    4  N1  UNL     1      19.939   0.801  50.753  1.00  0.00    -0.241 NA
HETATM    5  C5  UNL     1      19.866   1.426  49.565  1.00  0.00     0.236 A 
HETATM    6  N2  UNL     1      20.934   2.001  49.013  1.00  0.00    -0.224 NA
HETATM    7  C6  UNL     1      22.152   2.026  49.542  1.00  0.00     0.142 A 
HETATM    8  C13 UNL     1      22.241   1.393  50.754  1.00  0.00     0.042 A 
HETATM    9  C14 UNL     1      23.407   1.305  51.480  1.00  0.00     0.057 A 
HETATM   10  C15 UNL     1      23.543   0.683  52.701  1.00  0.00     0.103 A 
ENDROOT
BRANCH   7  11
HETATM   11  N3  UNL     1      23.280   2.634  48.972  1.00  0.00    -0.340 N 
HETATM   12  H6  UNL     1      23.769   2.225  48.163  1.00  0.00     0.167 HD
BRANCH  11  13
HETATM   13  C7  UNL     1      23.912   3.836  49.369  1.00  0.00     0.035 A 
HETATM   14  C8  UNL     1      25.276   4.012  49.360  1.00  0.00     0.032 A 
HETATM   15  C9  UNL     1      25.933   5.162  49.737  1.00  0.00     0.046 A 
HETATM   16  C10 UNL     1      25.201   6.249  50.164  1.00  0.00     0.138 A 
HETATM   17  F1  UNL     1      25.778   7.412  50.548  1.00  0.00    -0.204 F 
HETATM   18  C11 UNL     1      23.831   6.134  50.195  1.00  0.00     0.074 A 
HETATM   19 CL1  UNL     1      22.838   7.470  50.724  1.00  0.00    -0.081 Cl
HETATM   20  C12 UNL     1      23.241   4.956  49.804  1.00  0.00     0.056 A 
ENDBRANCH  11  13
ENDBRANCH   7  11
BRANCH  10  21
HETATM   21  O2  UNL     1      24.631   0.535  53.500  1.00  0.00    -0.347 OA
BRANCH  21  22
HETATM   22  C16 UNL     1      25.439  -0.621  53.407  1.00  0.00     0.206 C 
BRANCH  22  23
HETATM   23  C17 UNL     1      26.415  -0.412  52.274  1.00  0.00     0.299 C 
BRANCH  23  24
HETATM   24  N4  UNL     1      27.585   0.245  52.773  1.00  0.00     0.094 N 
HETATM   25  C18 UNL     1      27.786  -0.010  54.195  1.00  0.00     0.298 C 
HETATM   26  C19 UNL     1      29.083   0.643  54.620  1.00  0.00     0.198 C 
HETATM   27  O3  UNL     1      28.978   2.019  54.467  1.00  0.00    -0.388 OA
HETATM   28  C20 UNL     1      27.811   2.402  53.849  1.00  0.00     0.198 C 
HETATM   29  C21 UNL     1      27.571   1.681  52.531  1.00  0.00     0.298 C 
ENDBRANCH  23  24
ENDBRANCH  22  23
ENDBRANCH  21  22
ENDBRANCH  10  21
BRANCH   1  30
HETATM   30  O1  UNL     1      22.395  -0.569  54.477  1.00  0.00    -0.353 OA
HETATM   31  C1  UNL     1      21.561  -1.656  54.714  1.00  0.00     0.210 C 
ENDBRANCH   1  30
TORSDOF 7
ENDMDL
