MODEL 1
REMARK VINA RESULT:      -7.5      0.000      0.000
REMARK  7 active torsions:
REMARK  status: ('A' for Active; 'I' for Inactive)
REMARK       I    between atoms: N1_2  and  C2_3 
REMARK       I    between atoms: C2_3  and  N2_5 
REMARK    1  A    between atoms: N2_5  and  C3_6 
REMARK    2  A    between atoms: C6_9  and  O2_10 
REMARK    3  A    between atoms: O2_10  and  N3_11 
REMARK    4  A    between atoms: N3_11  and  C7_12 
REMARK    5  A    between atoms: C7_12  and  C8_13 
REMARK    6  A    between atoms: C11_16  and  O3_17 
REMARK    7  A    between atoms: C13_19  and  O4_20 
ROOT
HETATM    1  O2  UNL     1      27.246   3.807  49.195  1.00  0.00    -0.264 OA
ENDROOT
BRANCH   1   2
HETATM    2  C6  UNL     1      27.495   5.094  48.700  1.00  0.00     0.092 A 
HETATM    3  C5  UNL     1      28.819   5.227  48.308  1.00  0.00     0.041 A 
HETATM    4  C4  UNL     1      29.278   6.432  47.784  1.00  0.00     0.032 A 
HETATM    5  C3  UNL     1      28.336   7.455  47.689  1.00  0.00     0.036 A 
HETATM    6  C17 UNL     1      27.029   7.343  48.070  1.00  0.00     0.032 A 
HETATM    7  C16 UNL     1      26.605   6.140  48.584  1.00  0.00     0.041 A 
BRANCH   5   8
HETATM    8  N2  UNL     1      28.774   8.721  47.151  1.00  0.00    -0.309 N 
HETATM    9  C2  UNL     1      29.365   9.490  48.173  1.00  0.00     0.320 C 
HETATM   10  N1  UNL     1      29.899  10.803  47.941  1.00  0.00    -0.347 N 
HETATM   11  O1  UNL     1      29.414   8.982  49.323  1.00  0.00    -0.247 OA
HETATM   12  C1  UNL     1      30.516  11.625  48.971  1.00  0.00     0.151 C 
HETATM   13  H4  UNL     1      29.859  11.226  46.987  1.00  0.00     0.163 HD
HETATM   14  H5  UNL     1      28.736   9.152  46.193  1.00  0.00     0.170 HD
ENDBRANCH   5   8
ENDBRANCH   1   2
BRANCH   1  15
HETATM   15  N3  UNL     1      27.031   3.639  50.539  1.00  0.00    -0.196 NA
HETATM   16  H8  UNL     1      27.718   3.056  51.025  1.00  0.00     0.154 HD
BRANCH  15  17
HETATM   17  C7  UNL     1      25.663   3.190  50.714  1.00  0.00     0.156 C 
BRANCH  17  18
HETATM   18  C8  UNL     1      25.621   2.155  51.780  1.00  0.00    -0.040 A 
HETATM   19  C9  UNL     1      24.659   1.204  51.989  1.00  0.00     0.011 A 
HETATM   20  C10 UNL     1      24.763   0.307  53.031  1.00  0.00     0.040 A 
HETATM   21  C11 UNL     1      25.826   0.314  53.911  1.00  0.00     0.101 A 
HETATM   22  C13 UNL     1      26.815   1.259  53.730  1.00  0.00     0.102 A 
HETATM   23  C15 UNL     1      26.686   2.144  52.681  1.00  0.00     0.048 A 
BRANCH  21  24
HETATM   24  O3  UNL     1      25.961  -0.566  54.959  1.00  0.00    -0.353 OA
HETATM   25  C12 UNL     1      24.809  -1.126  55.547  1.00  0.00     0.210 C 
ENDBRANCH  21  24
BRANCH  22  26
HETATM   26  O4  UNL     1      27.908   1.312  54.585  1.00  0.00    -0.353 OA
HETATM   27  C14 UNL     1      29.132   0.728  54.169  1.00  0.00     0.210 C 
ENDBRANCH  22  26
ENDBRANCH  17  18
ENDBRANCH  15  17
ENDBRANCH   1  15
TORSDOF 7
ENDMDL
MODEL 2
REMARK VINA RESULT:      -7.3      3.728      8.550
REMARK  7 active torsions:
REMARK  status: ('A' for Active; 'I' for Inactive)
REMARK       I    between atoms: N1_2  and  C2_3 
REMARK       I    between atoms: C2_3  and  N2_5 
REMARK    1  A    between atoms: N2_5  and  C3_6 
REMARK    2  A    between atoms: C6_9  and  O2_10 
REMARK    3  A    between atoms: O2_10  and  N3_11 
REMARK    4  A    between atoms: N3_11  and  C7_12 
REMARK    5  A    between atoms: C7_12  and  C8_13 
REMARK    6  A    between atoms: C11_16  and  O3_17 
REMARK    7  A    between atoms: C13_19  and  O4_20 
ROOT
HETATM    1  O2  UNL     1      22.728   2.591  51.467  1.00  0.00    -0.264 OA
ENDROOT
BRANCH   1   2
HETATM    2  C6  UNL     1      23.662   1.946  52.288  1.00  0.00     0.092 A 
HETATM    3  C5  UNL     1      24.596   2.848  52.779  1.00  0.00     0.041 A 
HETATM    4  C4  UNL     1      25.616   2.412  53.620  1.00  0.00     0.032 A 
HETATM    5  C3  UNL     1      25.624   1.051  53.918  1.00  0.00     0.036 A 
HETATM    6  C17 UNL     1      24.713   0.149  53.444  1.00  0.00     0.032 A 
HETATM    7  C16 UNL     1      23.717   0.608  52.615  1.00  0.00     0.041 A 
BRANCH   5   8
HETATM    8  N2  UNL     1      26.667   0.561  54.787  1.00  0.00    -0.309 N 
HETATM    9  C2  UNL     1      27.732   0.059  54.012  1.00  0.00     0.320 C 
HETATM   10  N1  UNL     1      28.918  -0.498  54.599  1.00  0.00    -0.347 N 
HETATM   11  O1  UNL     1      27.611   0.114  52.761  1.00  0.00    -0.247 OA
HETATM   12  C1  UNL     1      30.037  -1.025  53.830  1.00  0.00     0.151 C 
HETATM   13  H4  UNL     1      29.020  -0.544  55.637  1.00  0.00     0.163 HD
HETATM   14  H5  UNL     1      26.775   0.511  55.832  1.00  0.00     0.170 HD
ENDBRANCH   5   8
ENDBRANCH   1   2
BRANCH   1  15
HETATM   15  N3  UNL     1      22.961   2.659  50.118  1.00  0.00    -0.196 NA
HETATM   16  H8  UNL     1      23.793   2.162  49.788  1.00  0.00     0.154 HD
BRANCH  15  17
HETATM   17  C7  UNL     1      22.935   4.059  49.737  1.00  0.00     0.156 C 
BRANCH  17  18
HETATM   18  C8  UNL     1      24.316   4.504  49.416  1.00  0.00    -0.040 A 
HETATM   19  C9  UNL     1      25.476   3.784  49.523  1.00  0.00     0.011 A 
HETATM   20  C10 UNL     1      26.691   4.342  49.184  1.00  0.00     0.040 A 
HETATM   21  C11 UNL     1      26.808   5.638  48.723  1.00  0.00     0.101 A 
HETATM   22  C13 UNL     1      25.659   6.393  48.603  1.00  0.00     0.102 A 
HETATM   23  C15 UNL     1      24.458   5.810  48.949  1.00  0.00     0.048 A 
BRANCH  21  24
HETATM   24  O3  UNL     1      28.003   6.223  48.377  1.00  0.00    -0.353 OA
HETATM   25  C12 UNL     1      29.155   5.423  48.242  1.00  0.00     0.210 C 
ENDBRANCH  21  24
BRANCH  22  26
HETATM   26  O4  UNL     1      25.718   7.702  48.144  1.00  0.00    -0.353 OA
HETATM   27  C14 UNL     1      24.957   8.062  47.002  1.00  0.00     0.210 C 
ENDBRANCH  22  26
ENDBRANCH  17  18
ENDBRANCH  15  17
ENDBRANCH   1  15
TORSDOF 7
ENDMDL
MODEL 3
REMARK VINA RESULT:      -7.3      2.995      9.750
REMARK  7 active torsions:
REMARK  status: ('A' for Active; 'I' for Inactive)
REMARK       I    between atoms: N1_2  and  C2_3 
REMARK       I    between atoms: C2_3  and  N2_5 
REMARK    1  A    between atoms: N2_5  and  C3_6 
REMARK    2  A    between atoms: C6_9  and  O2_10 
REMARK    3  A    between atoms: O2_10  and  N3_11 
REMARK    4  A    between atoms: N3_11  and  C7_12 
REMARK    5  A    between atoms: C7_12  and  C8_13 
REMARK    6  A    between atoms: C11_16  and  O3_17 
REMARK    7  A    between atoms: C13_19  and  O4_20 
ROOT
HETATM    1  O2  UNL     1      27.290   2.057  51.070  1.00  0.00    -0.264 OA
ENDROOT
BRANCH   1   2
HETATM    2  C6  UNL     1      26.519   1.235  51.901  1.00  0.00     0.092 A 
HETATM    3  C5  UNL     1      25.551   1.972  52.568  1.00  0.00     0.041 A 
HETATM    4  C4  UNL     1      24.673   1.344  53.447  1.00  0.00     0.032 A 
HETATM    5  C3  UNL     1      24.839  -0.032  53.599  1.00  0.00     0.036 A 
HETATM    6  C17 UNL     1      25.787  -0.774  52.952  1.00  0.00     0.032 A 
HETATM    7  C16 UNL     1      26.640  -0.125  52.089  1.00  0.00     0.041 A 
BRANCH   5   8
HETATM    8  N2  UNL     1      23.948  -0.719  54.503  1.00  0.00    -0.309 N 
HETATM    9  C2  UNL     1      22.671  -0.827  53.917  1.00  0.00     0.320 C 
HETATM   10  N1  UNL     1      21.569  -1.466  54.581  1.00  0.00    -0.347 N 
HETATM   11  O1  UNL     1      22.520  -0.338  52.768  1.00  0.00    -0.247 OA
HETATM   12  C1  UNL     1      20.238  -1.596  54.007  1.00  0.00     0.151 C 
HETATM   13  H4  UNL     1      21.694  -1.872  55.534  1.00  0.00     0.163 HD
HETATM   14  H5  UNL     1      24.067  -1.130  55.464  1.00  0.00     0.170 HD
ENDBRANCH   5   8
ENDBRANCH   1   2
BRANCH   1  15
HETATM   15  N3  UNL     1      26.901   3.357  50.870  1.00  0.00    -0.196 NA
HETATM   16  H8  UNL     1      26.177   3.703  51.505  1.00  0.00     0.154 HD
BRANCH  15  17
HETATM   17  C7  UNL     1      26.560   3.504  49.468  1.00  0.00     0.156 C 
BRANCH  17  18
HETATM   18  C8  UNL     1      27.060   4.814  48.979  1.00  0.00    -0.040 A 
HETATM   19  C9  UNL     1      28.289   5.097  48.444  1.00  0.00     0.011 A 
HETATM   20  C10 UNL     1      28.607   6.375  48.032  1.00  0.00     0.040 A 
HETATM   21  C11 UNL     1      27.720   7.427  48.133  1.00  0.00     0.101 A 
HETATM   22  C13 UNL     1      26.472   7.179  48.667  1.00  0.00     0.102 A 
HETATM   23  C15 UNL     1      26.181   5.893  49.071  1.00  0.00     0.048 A 
BRANCH  21  24
HETATM   24  O3  UNL     1      28.005   8.711  47.732  1.00  0.00    -0.353 OA
HETATM   25  C12 UNL     1      29.131   9.370  48.262  1.00  0.00     0.210 C 
ENDBRANCH  21  24
BRANCH  22  26
HETATM   26  O4  UNL     1      25.540   8.200  48.792  1.00  0.00    -0.353 OA
HETATM   27  C14 UNL     1      24.939   8.428  50.057  1.00  0.00     0.210 C 
ENDBRANCH  22  26
ENDBRANCH  17  18
ENDBRANCH  15  17
ENDBRANCH   1  15
TORSDOF 7
ENDMDL
MODEL 4
REMARK VINA RESULT:      -7.2      2.454      3.442
REMARK  7 active torsions:
REMARK  status: ('A' for Active; 'I' for Inactive)
REMARK       I    between atoms: N1_2  and  C2_3 
REMARK       I    between atoms: C2_3  and  N2_5 
REMARK    1  A    between atoms: N2_5  and  C3_6 
REMARK    2  A    between atoms: C6_9  and  O2_10 
REMARK    3  A    between atoms: O2_10  and  N3_11 
REMARK    4  A    between atoms: N3_11  and  C7_12 
REMARK    5  A    between atoms: C7_12  and  C8_13 
REMARK    6  A    between atoms: C11_16  and  O3_17 
REMARK    7  A    between atoms: C13_19  and  O4_20 
ROOT
HETATM    1  O2  UNL     1      22.696   3.004  50.593  1.00  0.00    -0.264 OA
ENDROOT
BRANCH   1   2
HETATM    2  C6  UNL     1      23.651   4.014  50.419  1.00  0.00     0.092 A 
HETATM    3  C5  UNL     1      24.710   3.567  49.641  1.00  0.00     0.041 A 
HETATM    4  C4  UNL     1      25.771   4.418  49.345  1.00  0.00     0.032 A 
HETATM    5  C3  UNL     1      25.688   5.706  49.873  1.00  0.00     0.036 A 
HETATM    6  C17 UNL     1      24.654   6.163  50.640  1.00  0.00     0.032 A 
HETATM    7  C16 UNL     1      23.619   5.299  50.916  1.00  0.00     0.041 A 
BRANCH   5   8
HETATM    8  N2  UNL     1      26.770   6.618  49.588  1.00  0.00    -0.309 N 
HETATM    9  C2  UNL     1      26.494   7.323  48.400  1.00  0.00     0.320 C 
HETATM   10  N1  UNL     1      27.390   8.307  47.860  1.00  0.00    -0.347 N 
HETATM   11  O1  UNL     1      25.412   7.062  47.812  1.00  0.00    -0.247 OA
HETATM   12  C1  UNL     1      27.138   9.054  46.637  1.00  0.00     0.151 C 
HETATM   13  H4  UNL     1      28.288   8.524  48.348  1.00  0.00     0.163 HD
HETATM   14  H5  UNL     1      27.675   6.841  50.074  1.00  0.00     0.170 HD
ENDBRANCH   5   8
ENDBRANCH   1   2
BRANCH   1  15
HETATM   15  N3  UNL     1      23.096   1.783  51.072  1.00  0.00    -0.196 NA
HETATM   16  H8  UNL     1      22.576   0.977  50.716  1.00  0.00     0.154 HD
BRANCH  15  17
HETATM   17  C7  UNL     1      23.117   1.865  52.521  1.00  0.00     0.156 C 
BRANCH  17  18
HETATM   18  C8  UNL     1      24.304   1.134  53.034  1.00  0.00    -0.040 A 
HETATM   19  C9  UNL     1      24.466  -0.220  53.163  1.00  0.00     0.011 A 
HETATM   20  C10 UNL     1      25.638  -0.750  53.660  1.00  0.00     0.040 A 
HETATM   21  C11 UNL     1      26.700   0.039  54.052  1.00  0.00     0.101 A 
HETATM   22  C13 UNL     1      26.573   1.408  53.936  1.00  0.00     0.102 A 
HETATM   23  C15 UNL     1      25.390   1.911  53.436  1.00  0.00     0.048 A 
BRANCH  21  24
HETATM   24  O3  UNL     1      27.882  -0.458  54.551  1.00  0.00    -0.353 OA
HETATM   25  C12 UNL     1      28.831  -1.009  53.668  1.00  0.00     0.210 C 
ENDBRANCH  21  24
BRANCH  22  26
HETATM   26  O4  UNL     1      27.610   2.250  54.314  1.00  0.00    -0.353 OA
HETATM   27  C14 UNL     1      28.619   2.561  53.367  1.00  0.00     0.210 C 
ENDBRANCH  22  26
ENDBRANCH  17  18
ENDBRANCH  15  17
ENDBRANCH   1  15
TORSDOF 7
ENDMDL
MODEL 5
REMARK VINA RESULT:      -7.2      1.405      2.636
REMARK  7 active torsions:
REMARK  status: ('A' for Active; 'I' for Inactive)
REMARK       I    between atoms: N1_2  and  C2_3 
REMARK       I    between atoms: C2_3  and  N2_5 
REMARK    1  A    between atoms: N2_5  and  C3_6 
REMARK    2  A    between atoms: C6_9  and  O2_10 
REMARK    3  A    between atoms: O2_10  and  N3_11 
REMARK    4  A    between atoms: N3_11  and  C7_12 
REMARK    5  A    between atoms: C7_12  and  C8_13 
REMARK    6  A    between atoms: C11_16  and  O3_17 
REMARK    7  A    between atoms: C13_19  and  O4_20 
ROOT
HETATM    1  O2  UNL     1      24.621   4.030  50.246  1.00  0.00    -0.264 OA
ENDROOT
BRANCH   1   2
HETATM    2  C6  UNL     1      25.640   4.701  49.557  1.00  0.00     0.092 A 
HETATM    3  C5  UNL     1      25.193   5.926  49.082  1.00  0.00     0.041 A 
HETATM    4  C4  UNL     1      26.053   6.756  48.368  1.00  0.00     0.032 A 
HETATM    5  C3  UNL     1      27.347   6.276  48.174  1.00  0.00     0.036 A 
HETATM    6  C17 UNL     1      27.803   5.073  48.634  1.00  0.00     0.032 A 
HETATM    7  C16 UNL     1      26.932   4.275  49.337  1.00  0.00     0.041 A 
BRANCH   5   8
HETATM    8  N2  UNL     1      28.267   7.109  47.437  1.00  0.00    -0.309 N 
HETATM    9  C2  UNL     1      28.677   8.189  48.243  1.00  0.00     0.320 C 
HETATM   10  N1  UNL     1      29.596   9.191  47.781  1.00  0.00    -0.347 N 
HETATM   11  O1  UNL     1      28.205   8.253  49.407  1.00  0.00    -0.247 OA
HETATM   12  C1  UNL     1      30.042  10.320  48.585  1.00  0.00     0.151 C 
HETATM   13  H4  UNL     1      29.989   9.140  46.815  1.00  0.00     0.163 HD
HETATM   14  H5  UNL     1      28.665   7.062  46.465  1.00  0.00     0.170 HD
ENDBRANCH   5   8
ENDBRANCH   1   2
BRANCH   1  15
HETATM   15  N3  UNL     1      24.786   3.755  51.579  1.00  0.00    -0.196 NA
HETATM   16  H8  UNL     1      25.700   3.998  51.970  1.00  0.00     0.154 HD
BRANCH  15  17
HETATM   17  C7  UNL     1      24.417   2.368  51.791  1.00  0.00     0.156 C 
BRANCH  17  18
HETATM   18  C8  UNL     1      25.563   1.646  52.403  1.00  0.00    -0.040 A 
HETATM   19  C9  UNL     1      26.890   1.751  52.081  1.00  0.00     0.011 A 
HETATM   20  C10 UNL     1      27.842   1.008  52.747  1.00  0.00     0.040 A 
HETATM   21  C11 UNL     1      27.521   0.129  53.761  1.00  0.00     0.101 A 
HETATM   22  C13 UNL     1      26.193  -0.002  54.113  1.00  0.00     0.102 A 
HETATM   23  C15 UNL     1      25.261   0.752  53.431  1.00  0.00     0.048 A 
BRANCH  21  24
HETATM   24  O3  UNL     1      28.445  -0.625  54.444  1.00  0.00    -0.353 OA
HETATM   25  C12 UNL     1      29.681  -0.925  53.838  1.00  0.00     0.210 C 
ENDBRANCH  21  24
BRANCH  22  26
HETATM   26  O4  UNL     1      25.812  -0.871  55.126  1.00  0.00    -0.353 OA
HETATM   27  C14 UNL     1      24.430  -1.127  55.325  1.00  0.00     0.210 C 
ENDBRANCH  22  26
ENDBRANCH  17  18
ENDBRANCH  15  17
ENDBRANCH   1  15
TORSDOF 7
ENDMDL
MODEL 6
REMARK VINA RESULT:      -7.1      2.715      3.695
REMARK  7 active torsions:
REMARK  status: ('A' for Active; 'I' for Inactive)
REMARK       I    between atoms: N1_2  and  C2_3 
REMARK       I    between atoms: C2_3  and  N2_5 
REMARK    1  A    between atoms: N2_5  and  C3_6 
REMARK    2  A    between atoms: C6_9  and  O2_10 
REMARK    3  A    between atoms: O2_10  and  N3_11 
REMARK    4  A    between atoms: N3_11  and  C7_12 
REMARK    5  A    between atoms: C7_12  and  C8_13 
REMARK    6  A    between atoms: C11_16  and  O3_17 
REMARK    7  A    between atoms: C13_19  and  O4_20 
ROOT
HETATM    1  O2  UNL     1      23.002   3.459  50.435  1.00  0.00    -0.264 OA
ENDROOT
BRANCH   1   2
HETATM    2  C6  UNL     1      23.759   4.634  50.520  1.00  0.00     0.092 A 
HETATM    3  C5  UNL     1      24.904   4.544  49.741  1.00  0.00     0.041 A 
HETATM    4  C4  UNL     1      25.798   5.610  49.683  1.00  0.00     0.032 A 
HETATM    5  C3  UNL     1      25.464   6.730  50.442  1.00  0.00     0.036 A 
HETATM    6  C17 UNL     1      24.342   6.836  51.215  1.00  0.00     0.032 A 
HETATM    7  C16 UNL     1      23.477   5.768  51.252  1.00  0.00     0.041 A 
BRANCH   5   8
HETATM    8  N2  UNL     1      26.368   7.856  50.408  1.00  0.00    -0.309 N 
HETATM    9  C2  UNL     1      25.895   8.814  49.490  1.00  0.00     0.320 C 
HETATM   10  N1  UNL     1      26.585  10.049  49.239  1.00  0.00    -0.347 N 
HETATM   11  O1  UNL     1      24.824   8.553  48.883  1.00  0.00    -0.247 OA
HETATM   12  C1  UNL     1      26.126  11.061  48.300  1.00  0.00     0.151 C 
HETATM   13  H4  UNL     1      27.473  10.266  49.743  1.00  0.00     0.163 HD
HETATM   14  H5  UNL     1      27.263   8.080  50.912  1.00  0.00     0.170 HD
ENDBRANCH   5   8
ENDBRANCH   1   2
BRANCH   1  15
HETATM   15  N3  UNL     1      23.649   2.252  50.359  1.00  0.00    -0.196 NA
HETATM   16  H8  UNL     1      23.522   1.739  49.483  1.00  0.00     0.154 HD
BRANCH  15  17
HETATM   17  C7  UNL     1      23.291   1.485  51.537  1.00  0.00     0.156 C 
BRANCH  17  18
HETATM   18  C8  UNL     1      24.530   1.034  52.221  1.00  0.00    -0.040 A 
HETATM   19  C9  UNL     1      25.825   1.351  51.907  1.00  0.00     0.011 A 
HETATM   20  C10 UNL     1      26.877   0.848  52.644  1.00  0.00     0.040 A 
HETATM   21  C11 UNL     1      26.690   0.011  53.725  1.00  0.00     0.101 A 
HETATM   22  C13 UNL     1      25.399  -0.329  54.071  1.00  0.00     0.102 A 
HETATM   23  C15 UNL     1      24.366   0.187  53.316  1.00  0.00     0.048 A 
BRANCH  21  24
HETATM   24  O3  UNL     1      27.716  -0.506  54.481  1.00  0.00    -0.353 OA
HETATM   25  C12 UNL     1      29.040  -0.422  54.004  1.00  0.00     0.210 C 
ENDBRANCH  21  24
BRANCH  22  26
HETATM   26  O4  UNL     1      25.152  -1.168  55.149  1.00  0.00    -0.353 OA
HETATM   27  C14 UNL     1      23.817  -1.321  55.606  1.00  0.00     0.210 C 
ENDBRANCH  22  26
ENDBRANCH  17  18
ENDBRANCH  15  17
ENDBRANCH   1  15
TORSDOF 7
ENDMDL
MODEL 7
REMARK VINA RESULT:      -6.9      5.314      8.736
REMARK  7 active torsions:
REMARK  status: ('A' for Active; 'I' for Inactive)
REMARK       I    between atoms: N1_2  and  C2_3 
REMARK       I    between atoms: C2_3  and  N2_5 
REMARK    1  A    between atoms: N2_5  and  C3_6 
REMARK    2  A    between atoms: C6_9  and  O2_10 
REMARK    3  A    between atoms: O2_10  and  N3_11 
REMARK    4  A    between atoms: N3_11  and  C7_12 
REMARK    5  A    between atoms: C7_12  and  C8_13 
REMARK    6  A    between atoms: C11_16  and  O3_17 
REMARK    7  A    between atoms: C13_19  and  O4_20 
ROOT
HETATM    1  O2  UNL     1      21.222  -0.514  54.066  1.00  0.00    -0.264 OA
ENDROOT
BRANCH   1   2
HETATM    2  C6  UNL     1      22.602  -0.664  54.261  1.00  0.00     0.092 A 
HETATM    3  C5  UNL     1      23.308  -0.260  53.137  1.00  0.00     0.041 A 
HETATM    4  C4  UNL     1      24.699  -0.327  53.122  1.00  0.00     0.032 A 
HETATM    5  C3  UNL     1      25.301  -0.814  54.281  1.00  0.00     0.036 A 
HETATM    6  C17 UNL     1      24.621  -1.216  55.396  1.00  0.00     0.032 A 
HETATM    7  C16 UNL     1      23.248  -1.138  55.382  1.00  0.00     0.041 A 
BRANCH   5   8
HETATM    8  N2  UNL     1      26.742  -0.899  54.303  1.00  0.00    -0.309 N 
HETATM    9  C2  UNL     1      27.289   0.390  54.460  1.00  0.00     0.320 C 
HETATM   10  N1  UNL     1      28.704   0.626  54.518  1.00  0.00    -0.347 N 
HETATM   11  O1  UNL     1      26.483   1.352  54.552  1.00  0.00    -0.247 OA
HETATM   12  C1  UNL     1      29.305   1.942  54.680  1.00  0.00     0.151 C 
HETATM   13  H4  UNL     1      29.374  -0.172  54.442  1.00  0.00     0.163 HD
HETATM   14  H5  UNL     1      27.421  -1.698  54.226  1.00  0.00     0.170 HD
ENDBRANCH   5   8
ENDBRANCH   1   2
BRANCH   1  15
HETATM   15  N3  UNL     1      20.712   0.739  53.844  1.00  0.00    -0.196 NA
HETATM   16  H8  UNL     1      20.123   1.114  54.592  1.00  0.00     0.154 HD
BRANCH  15  17
HETATM   17  C7  UNL     1      20.063   0.727  52.547  1.00  0.00     0.156 C 
BRANCH  17  18
HETATM   18  C8  UNL     1      20.941   1.401  51.556  1.00  0.00    -0.040 A 
HETATM   19  C9  UNL     1      21.383   0.911  50.356  1.00  0.00     0.011 A 
HETATM   20  C10 UNL     1      22.200   1.665  49.539  1.00  0.00     0.040 A 
HETATM   21  C11 UNL     1      22.614   2.938  49.877  1.00  0.00     0.101 A 
HETATM   22  C13 UNL     1      22.187   3.464  51.079  1.00  0.00     0.102 A 
HETATM   23  C15 UNL     1      21.371   2.689  51.876  1.00  0.00     0.048 A 
BRANCH  21  24
HETATM   24  O3  UNL     1      23.427   3.715  49.086  1.00  0.00    -0.353 OA
HETATM   25  C12 UNL     1      24.825   3.637  49.241  1.00  0.00     0.210 C 
ENDBRANCH  21  24
BRANCH  22  26
HETATM   26  O4  UNL     1      22.572   4.739  51.470  1.00  0.00    -0.353 OA
HETATM   27  C14 UNL     1      23.388   4.886  52.622  1.00  0.00     0.210 C 
ENDBRANCH  22  26
ENDBRANCH  17  18
ENDBRANCH  15  17
ENDBRANCH   1  15
TORSDOF 7
ENDMDL
MODEL 8
REMARK VINA RESULT:      -6.9      1.524      2.396
REMARK  7 active torsions:
REMARK  status: ('A' for Active; 'I' for Inactive)
REMARK       I    between atoms: N1_2  and  C2_3 
REMARK       I    between atoms: C2_3  and  N2_5 
REMARK    1  A    between atoms: N2_5  and  C3_6 
REMARK    2  A    between atoms: C6_9  and  O2_10 
REMARK    3  A    between atoms: O2_10  and  N3_11 
REMARK    4  A    between atoms: N3_11  and  C7_12 
REMARK    5  A    between atoms: C7_12  and  C8_13 
REMARK    6  A    between atoms: C11_16  and  O3_17 
REMARK    7  A    between atoms: C13_19  and  O4_20 
ROOT
HETATM    1  O2  UNL     1      27.238   3.948  49.179  1.00  0.00    -0.264 OA
ENDROOT
BRANCH   1   2
HETATM    2  C6  UNL     1      27.762   5.132  48.645  1.00  0.00     0.092 A 
HETATM    3  C5  UNL     1      26.791   6.123  48.590  1.00  0.00     0.041 A 
HETATM    4  C4  UNL     1      27.104   7.384  48.090  1.00  0.00     0.032 A 
HETATM    5  C3  UNL     1      28.419   7.564  47.664  1.00  0.00     0.036 A 
HETATM    6  C17 UNL     1      29.387   6.601  47.710  1.00  0.00     0.032 A 
HETATM    7  C16 UNL     1      29.049   5.365  48.209  1.00  0.00     0.041 A 
BRANCH   5   8
HETATM    8  N2  UNL     1      28.782   8.859  47.139  1.00  0.00    -0.309 N 
HETATM    9  C2  UNL     1      29.375   9.633  48.156  1.00  0.00     0.320 C 
HETATM   10  N1  UNL     1      29.842  10.973  47.934  1.00  0.00    -0.347 N 
HETATM   11  O1  UNL     1      29.488   9.104  49.292  1.00  0.00    -0.247 OA
HETATM   12  C1  UNL     1      30.459  11.801  48.959  1.00  0.00     0.151 C 
HETATM   13  H4  UNL     1      29.749  11.413  46.991  1.00  0.00     0.163 HD
HETATM   14  H5  UNL     1      28.690   9.307  46.192  1.00  0.00     0.170 HD
ENDBRANCH   5   8
ENDBRANCH   1   2
BRANCH   1  15
HETATM   15  N3  UNL     1      26.548   3.998  50.362  1.00  0.00    -0.196 NA
HETATM   16  H8  UNL     1      26.747   4.808  50.955  1.00  0.00     0.154 HD
BRANCH  15  17
HETATM   17  C7  UNL     1      26.736   2.727  51.036  1.00  0.00     0.156 C 
BRANCH  17  18
HETATM   18  C8  UNL     1      25.410   2.167  51.403  1.00  0.00    -0.040 A 
HETATM   19  C9  UNL     1      24.191   2.467  50.853  1.00  0.00     0.011 A 
HETATM   20  C10 UNL     1      23.040   1.857  51.306  1.00  0.00     0.040 A 
HETATM   21  C11 UNL     1      23.046   0.925  52.323  1.00  0.00     0.101 A 
HETATM   22  C13 UNL     1      24.256   0.599  52.901  1.00  0.00     0.102 A 
HETATM   23  C15 UNL     1      25.392   1.223  52.429  1.00  0.00     0.048 A 
BRANCH  21  24
HETATM   24  O3  UNL     1      21.917   0.299  52.797  1.00  0.00    -0.353 OA
HETATM   25  C12 UNL     1      20.770   1.064  53.087  1.00  0.00     0.210 C 
ENDBRANCH  21  24
BRANCH  22  26
HETATM   26  O4  UNL     1      24.322  -0.333  53.928  1.00  0.00    -0.353 OA
HETATM   27  C14 UNL     1      25.563  -0.543  54.584  1.00  0.00     0.210 C 
ENDBRANCH  22  26
ENDBRANCH  17  18
ENDBRANCH  15  17
ENDBRANCH   1  15
TORSDOF 7
ENDMDL
MODEL 9
REMARK VINA RESULT:      -6.9      2.909      8.478
REMARK  7 active torsions:
REMARK  status: ('A' for Active; 'I' for Inactive)
REMARK       I    between atoms: N1_2  and  C2_3 
REMARK       I    between atoms: C2_3  and  N2_5 
REMARK    1  A    between atoms: N2_5  and  C3_6 
REMARK    2  A    between atoms: C6_9  and  O2_10 
REMARK    3  A    between atoms: O2_10  and  N3_11 
REMARK    4  A    between atoms: N3_11  and  C7_12 
REMARK    5  A    between atoms: C7_12  and  C8_13 
REMARK    6  A    between atoms: C11_16  and  O3_17 
REMARK    7  A    between atoms: C13_19  and  O4_20 
ROOT
HETATM    1  O2  UNL     1      26.284   6.116  48.876  1.00  0.00    -0.264 OA
ENDROOT
BRANCH   1   2
HETATM    2  C6  UNL     1      25.858   5.020  49.638  1.00  0.00     0.092 A 
HETATM    3  C5  UNL     1      26.685   3.924  49.435  1.00  0.00     0.041 A 
HETATM    4  C4  UNL     1      26.438   2.726  50.101  1.00  0.00     0.032 A 
HETATM    5  C3  UNL     1      25.335   2.717  50.954  1.00  0.00     0.036 A 
HETATM    6  C17 UNL     1      24.510   3.786  51.165  1.00  0.00     0.032 A 
HETATM    7  C16 UNL     1      24.779   4.955  50.494  1.00  0.00     0.041 A 
BRANCH   5   8
HETATM    8  N2  UNL     1      25.046   1.493  51.662  1.00  0.00    -0.309 N 
HETATM    9  C2  UNL     1      25.814   1.436  52.842  1.00  0.00     0.320 C 
HETATM   10  N1  UNL     1      25.742   0.333  53.758  1.00  0.00    -0.347 N 
HETATM   11  O1  UNL     1      26.583   2.404  53.078  1.00  0.00    -0.247 OA
HETATM   12  C1  UNL     1      26.519   0.241  54.986  1.00  0.00     0.151 C 
HETATM   13  H4  UNL     1      25.104  -0.471  53.564  1.00  0.00     0.163 HD
HETATM   14  H5  UNL     1      24.406   0.680  51.472  1.00  0.00     0.170 HD
ENDBRANCH   5   8
ENDBRANCH   1   2
BRANCH   1  15
HETATM   15  N3  UNL     1      27.463   6.736  49.200  1.00  0.00    -0.196 NA
HETATM   16  H8  UNL     1      27.374   7.587  49.761  1.00  0.00     0.154 HD
BRANCH  15  17
HETATM   17  C7  UNL     1      28.211   6.928  47.972  1.00  0.00     0.156 C 
BRANCH  17  18
HETATM   18  C8  UNL     1      29.662   6.782  48.256  1.00  0.00    -0.040 A 
HETATM   19  C9  UNL     1      30.521   7.730  48.743  1.00  0.00     0.011 A 
HETATM   20  C10 UNL     1      31.853   7.439  48.956  1.00  0.00     0.040 A 
HETATM   21  C11 UNL     1      32.389   6.195  48.695  1.00  0.00     0.101 A 
HETATM   22  C13 UNL     1      31.552   5.214  48.203  1.00  0.00     0.102 A 
HETATM   23  C15 UNL     1      30.226   5.533  47.999  1.00  0.00     0.048 A 
BRANCH  21  24
HETATM   24  O3  UNL     1      33.711   5.872  48.896  1.00  0.00    -0.353 OA
HETATM   25  C12 UNL     1      34.712   6.585  48.207  1.00  0.00     0.210 C 
ENDBRANCH  21  24
BRANCH  22  26
HETATM   26  O4  UNL     1      32.038   3.944  47.922  1.00  0.00    -0.353 OA
HETATM   27  C14 UNL     1      32.195   3.555  46.567  1.00  0.00     0.210 C 
ENDBRANCH  22  26
ENDBRANCH  17  18
ENDBRANCH  15  17
ENDBRANCH   1  15
TORSDOF 7
ENDMDL
