MODEL 1
REMARK VINA RESULT:      -8.6      0.000      0.000
REMARK  1 active torsions:
REMARK  status: ('A' for Active; 'I' for Inactive)
REMARK    1  A    between atoms: C5_5  and  N1_6 
ROOT
HETATM    1  C1  UNL     1      21.868  -0.926  54.644  1.00  0.00     0.019 C 
HETATM    2  C2  UNL     1      22.148  -0.091  53.455  1.00  0.00    -0.004 C 
HETATM    3  C3  UNL     1      23.495   0.117  53.438  1.00  0.00     0.029 C 
HETATM    4  C4  UNL     1      24.743   0.535  53.095  1.00  0.00     0.004 C 
HETATM    5  C5  UNL     1      25.631   1.160  52.374  1.00  0.00     0.007 C 
HETATM    6  C8  UNL     1      25.076   1.892  51.263  1.00  0.00     0.093 C 
HETATM    7  C9  UNL     1      23.832   2.745  51.469  1.00  0.00    -0.039 C 
HETATM    8  C10 UNL     1      23.453   4.073  51.343  1.00  0.00     0.053 C 
HETATM    9  C11 UNL     1      24.118   5.376  50.923  1.00  0.00     0.007 C 
HETATM   10  C12 UNL     1      23.316   6.470  50.930  1.00  0.00     0.131 C 
HETATM   11  O1  UNL     1      22.008   6.823  51.201  1.00  0.00    -0.361 OA
HETATM   12  C13 UNL     1      21.236   7.685  50.344  1.00  0.00     0.200 C 
HETATM   13  C14 UNL     1      20.537   6.786  49.302  1.00  0.00     0.194 C 
HETATM   14  O2  UNL     1      21.558   6.136  48.576  1.00  0.00    -0.385 OA
HETATM   15  C15 UNL     1      20.976   5.088  47.822  1.00  0.00     0.195 C 
HETATM   16  C16 UNL     1      22.077   4.362  47.184  1.00  0.00    -0.001 C 
HETATM   17  C17 UNL     1      22.334   3.068  47.464  1.00  0.00    -0.002 C 
HETATM   18  C18 UNL     1      21.488   2.346  48.439  1.00  0.00    -0.003 C 
HETATM   19  C19 UNL     1      20.851   1.581  49.271  1.00  0.00    -0.006 C 
HETATM   20  C20 UNL     1      21.096   0.147  49.739  1.00  0.00     0.172 C 
HETATM   21  N2  UNL     1      21.313   0.466  51.212  1.00  0.00    -0.296 N 
HETATM   22  N3  UNL     1      22.386   1.381  51.021  1.00  0.00    -0.181 NA
HETATM   23  C21 UNL     1      22.506   2.242  51.928  1.00  0.00     0.060 C 
HETATM   24  C22 UNL     1      21.312   2.091  52.712  1.00  0.00     0.089 C 
HETATM   25  C23 UNL     1      21.131   0.502  52.620  1.00  0.00     0.120 C 
ENDROOT
BRANCH   5  26
HETATM   26  N1  UNL     1      26.970   1.035  52.819  1.00  0.00    -0.393 N 
HETATM   27  C6  UNL     1      27.827   2.152  53.148  1.00  0.00     0.148 C 
HETATM   28  C7  UNL     1      27.253  -0.399  52.861  1.00  0.00     0.148 C 
ENDBRANCH   5  26
TORSDOF 1
ENDMDL
MODEL 2
REMARK VINA RESULT:      -8.2      2.699      6.516
REMARK  1 active torsions:
REMARK  status: ('A' for Active; 'I' for Inactive)
REMARK    1  A    between atoms: C5_5  and  N1_6 
ROOT
HETATM    1  C1  UNL     1      21.788   4.004  45.916  1.00  0.00     0.019 C 
HETATM    2  C2  UNL     1      21.717   3.627  47.345  1.00  0.00    -0.004 C 
HETATM    3  C3  UNL     1      21.803   4.787  48.056  1.00  0.00     0.029 C 
HETATM    4  C4  UNL     1      21.861   5.690  49.071  1.00  0.00     0.004 C 
HETATM    5  C5  UNL     1      21.875   6.082  50.315  1.00  0.00     0.007 C 
HETATM    6  C8  UNL     1      21.812   5.004  51.270  1.00  0.00     0.093 C 
HETATM    7  C9  UNL     1      22.679   3.769  51.071  1.00  0.00    -0.039 C 
HETATM    8  C10 UNL     1      23.677   3.083  51.746  1.00  0.00     0.053 C 
HETATM    9  C11 UNL     1      24.423   3.233  53.064  1.00  0.00     0.007 C 
HETATM   10  C12 UNL     1      25.337   2.267  53.331  1.00  0.00     0.131 C 
HETATM   11  O1  UNL     1      25.850   1.110  52.776  1.00  0.00    -0.361 OA
HETATM   12  C13 UNL     1      26.056  -0.097  53.533  1.00  0.00     0.200 C 
HETATM   13  C14 UNL     1      24.747  -0.912  53.458  1.00  0.00     0.194 C 
HETATM   14  O2  UNL     1      23.738  -0.116  54.040  1.00  0.00    -0.385 OA
HETATM   15  C15 UNL     1      22.480  -0.686  53.729  1.00  0.00     0.195 C 
HETATM   16  C16 UNL     1      21.459   0.232  54.243  1.00  0.00    -0.001 C 
HETATM   17  C17 UNL     1      20.588   0.858  53.425  1.00  0.00    -0.002 C 
HETATM   18  C18 UNL     1      20.649   0.621  51.967  1.00  0.00    -0.003 C 
HETATM   19  C19 UNL     1      20.579   0.528  50.674  1.00  0.00    -0.006 C 
HETATM   20  C20 UNL     1      19.711   1.244  49.641  1.00  0.00     0.172 C 
HETATM   21  N2  UNL     1      20.845   1.915  48.878  1.00  0.00    -0.296 N 
HETATM   22  N3  UNL     1      21.400   2.606  49.992  1.00  0.00    -0.181 NA
HETATM   23  C21 UNL     1      22.626   2.858  49.892  1.00  0.00     0.060 C 
HETATM   24  C22 UNL     1      23.043   2.108  48.740  1.00  0.00     0.089 C 
HETATM   25  C23 UNL     1      21.735   2.268  47.829  1.00  0.00     0.120 C 
ENDROOT
BRANCH   5  26
HETATM   26  N1  UNL     1      21.975   7.481  50.508  1.00  0.00    -0.393 N 
HETATM   27  C6  UNL     1      20.867   8.402  50.392  1.00  0.00     0.148 C 
HETATM   28  C7  UNL     1      23.376   7.748  50.832  1.00  0.00     0.148 C 
ENDBRANCH   5  26
TORSDOF 1
ENDMDL
MODEL 3
REMARK VINA RESULT:      -8.0      1.716      4.658
REMARK  1 active torsions:
REMARK  status: ('A' for Active; 'I' for Inactive)
REMARK    1  A    between atoms: C5_5  and  N1_6 
ROOT
HETATM    1  C1  UNL     1      25.685   0.167  53.877  1.00  0.00     0.019 C 
HETATM    2  C2  UNL     1      24.674   1.058  53.263  1.00  0.00    -0.004 C 
HETATM    3  C3  UNL     1      23.473   0.427  53.395  1.00  0.00     0.029 C 
HETATM    4  C4  UNL     1      22.148   0.126  53.335  1.00  0.00     0.004 C 
HETATM    5  C5  UNL     1      20.897   0.321  53.025  1.00  0.00     0.007 C 
HETATM    6  C8  UNL     1      20.657   1.542  52.297  1.00  0.00     0.093 C 
HETATM    7  C9  UNL     1      21.577   1.929  51.148  1.00  0.00    -0.039 C 
HETATM    8  C10 UNL     1      21.487   2.183  49.788  1.00  0.00     0.053 C 
HETATM    9  C11 UNL     1      20.385   2.201  48.739  1.00  0.00     0.007 C 
HETATM   10  C12 UNL     1      20.776   2.548  47.487  1.00  0.00     0.131 C 
HETATM   11  O1  UNL     1      21.914   2.920  46.797  1.00  0.00    -0.361 OA
HETATM   12  C13 UNL     1      21.939   4.017  45.865  1.00  0.00     0.200 C 
HETATM   13  C14 UNL     1      22.284   5.291  46.667  1.00  0.00     0.194 C 
HETATM   14  O2  UNL     1      21.257   5.461  47.620  1.00  0.00    -0.385 OA
HETATM   15  C15 UNL     1      21.676   6.429  48.564  1.00  0.00     0.195 C 
HETATM   16  C16 UNL     1      20.642   6.488  49.601  1.00  0.00    -0.001 C 
HETATM   17  C17 UNL     1      20.898   6.154  50.882  1.00  0.00    -0.002 C 
HETATM   18  C18 UNL     1      22.257   5.717  51.269  1.00  0.00    -0.003 C 
HETATM   19  C19 UNL     1      23.385   5.309  51.764  1.00  0.00    -0.006 C 
HETATM   20  C20 UNL     1      23.775   4.819  53.158  1.00  0.00     0.172 C 
HETATM   21  N2  UNL     1      24.191   3.412  52.752  1.00  0.00    -0.296 N 
HETATM   22  N3  UNL     1      22.953   3.046  52.154  1.00  0.00    -0.181 NA
HETATM   23  C21 UNL     1      23.044   2.168  51.260  1.00  0.00     0.060 C 
HETATM   24  C22 UNL     1      24.457   2.050  51.032  1.00  0.00     0.089 C 
HETATM   25  C23 UNL     1      24.989   2.259  52.529  1.00  0.00     0.120 C 
ENDROOT
BRANCH   5  26
HETATM   26  N1  UNL     1      20.005  -0.703  53.429  1.00  0.00    -0.393 N 
HETATM   27  C6  UNL     1      18.620  -0.785  53.021  1.00  0.00     0.148 C 
HETATM   28  C7  UNL     1      20.774  -1.594  54.296  1.00  0.00     0.148 C 
ENDBRANCH   5  26
TORSDOF 1
ENDMDL
MODEL 4
REMARK VINA RESULT:      -7.3      3.066      7.478
REMARK  1 active torsions:
REMARK  status: ('A' for Active; 'I' for Inactive)
REMARK    1  A    between atoms: C5_5  and  N1_6 
ROOT
HETATM    1  C1  UNL     1      19.846   9.213  49.641  1.00  0.00     0.019 C 
HETATM    2  C2  UNL     1      20.843   8.133  49.472  1.00  0.00    -0.004 C 
HETATM    3  C3  UNL     1      20.482   7.446  48.352  1.00  0.00     0.029 C 
HETATM    4  C4  UNL     1      20.443   6.545  47.334  1.00  0.00     0.004 C 
HETATM    5  C5  UNL     1      20.845   5.518  46.639  1.00  0.00     0.007 C 
HETATM    6  C8  UNL     1      22.000   4.853  47.189  1.00  0.00     0.093 C 
HETATM    7  C9  UNL     1      22.065   4.568  48.683  1.00  0.00    -0.039 C 
HETATM    8  C10 UNL     1      22.177   3.473  49.526  1.00  0.00     0.053 C 
HETATM    9  C11 UNL     1      22.294   1.964  49.366  1.00  0.00     0.007 C 
HETATM   10  C12 UNL     1      22.413   1.262  50.521  1.00  0.00     0.131 C 
HETATM   11  O1  UNL     1      22.474   1.469  51.885  1.00  0.00    -0.361 OA
HETATM   12  C13 UNL     1      23.432   0.810  52.735  1.00  0.00     0.200 C 
HETATM   13  C14 UNL     1      24.694   1.698  52.775  1.00  0.00     0.194 C 
HETATM   14  O2  UNL     1      25.170   1.786  51.449  1.00  0.00    -0.385 OA
HETATM   15  C15 UNL     1      26.137   2.819  51.386  1.00  0.00     0.195 C 
HETATM   16  C16 UNL     1      26.515   2.962  49.977  1.00  0.00    -0.001 C 
HETATM   17  C17 UNL     1      26.283   4.099  49.290  1.00  0.00    -0.002 C 
HETATM   18  C18 UNL     1      25.634   5.244  49.963  1.00  0.00    -0.003 C 
HETATM   19  C19 UNL     1      25.069   6.327  50.402  1.00  0.00    -0.006 C 
HETATM   20  C20 UNL     1      24.672   7.630  49.709  1.00  0.00     0.172 C 
HETATM   21  N2  UNL     1      23.174   7.526  49.959  1.00  0.00    -0.296 N 
HETATM   22  N3  UNL     1      22.994   6.262  49.329  1.00  0.00    -0.181 NA
HETATM   23  C21 UNL     1      22.021   5.597  49.761  1.00  0.00     0.060 C 
HETATM   24  C22 UNL     1      21.601   6.315  50.932  1.00  0.00     0.089 C 
HETATM   25  C23 UNL     1      21.868   7.815  50.436  1.00  0.00     0.120 C 
ENDROOT
BRANCH   5  26
HETATM   26  N1  UNL     1      20.070   5.221  45.491  1.00  0.00    -0.393 N 
HETATM   27  C6  UNL     1      18.930   5.996  45.054  1.00  0.00     0.148 C 
HETATM   28  C7  UNL     1      20.663   4.023  44.898  1.00  0.00     0.148 C 
ENDBRANCH   5  26
TORSDOF 1
ENDMDL
MODEL 5
REMARK VINA RESULT:      -7.1      4.009      6.244
REMARK  1 active torsions:
REMARK  status: ('A' for Active; 'I' for Inactive)
REMARK    1  A    between atoms: C5_5  and  N1_6 
ROOT
HETATM    1  C1  UNL     1      24.021   2.857  48.959  1.00  0.00     0.019 C 
HETATM    2  C2  UNL     1      22.671   2.830  49.565  1.00  0.00    -0.004 C 
HETATM    3  C3  UNL     1      22.759   2.036  50.669  1.00  0.00     0.029 C 
HETATM    4  C4  UNL     1      22.458   1.335  51.795  1.00  0.00     0.004 C 
HETATM    5  C5  UNL     1      21.688   0.885  52.745  1.00  0.00     0.007 C 
HETATM    6  C8  UNL     1      20.311   1.296  52.628  1.00  0.00     0.093 C 
HETATM    7  C9  UNL     1      19.616   1.228  51.276  1.00  0.00    -0.039 C 
HETATM    8  C10 UNL     1      18.518   0.603  50.704  1.00  0.00     0.053 C 
HETATM    9  C11 UNL     1      17.430  -0.356  51.165  1.00  0.00     0.007 C 
HETATM   10  C12 UNL     1      16.510  -0.690  50.225  1.00  0.00     0.131 C 
HETATM   11  O1  UNL     1      16.204  -0.430  48.903  1.00  0.00    -0.361 OA
HETATM   12  C13 UNL     1      14.867  -0.141  48.451  1.00  0.00     0.200 C 
HETATM   13  C14 UNL     1      14.668   1.386  48.560  1.00  0.00     0.194 C 
HETATM   14  O2  UNL     1      14.825   1.720  49.922  1.00  0.00    -0.385 OA
HETATM   15  C15 UNL     1      14.949   3.127  50.028  1.00  0.00     0.195 C 
HETATM   16  C16 UNL     1      15.234   3.423  51.435  1.00  0.00    -0.001 C 
HETATM   17  C17 UNL     1      16.391   3.999  51.821  1.00  0.00    -0.002 C 
HETATM   18  C18 UNL     1      17.410   4.350  50.810  1.00  0.00    -0.003 C 
HETATM   19  C19 UNL     1      18.402   4.706  50.053  1.00  0.00    -0.006 C 
HETATM   20  C20 UNL     1      19.783   5.275  50.373  1.00  0.00     0.172 C 
HETATM   21  N2  UNL     1      20.597   4.130  49.786  1.00  0.00    -0.296 N 
HETATM   22  N3  UNL     1      20.015   3.099  50.576  1.00  0.00    -0.181 NA
HETATM   23  C21 UNL     1      20.042   1.960  50.049  1.00  0.00     0.060 C 
HETATM   24  C22 UNL     1      20.463   2.211  48.699  1.00  0.00     0.089 C 
HETATM   25  C23 UNL     1      21.496   3.407  48.958  1.00  0.00     0.120 C 
ENDROOT
BRANCH   5  26
HETATM   26  N1  UNL     1      22.325   0.057  53.702  1.00  0.00    -0.393 N 
HETATM   27  C6  UNL     1      23.692  -0.404  53.600  1.00  0.00     0.148 C 
HETATM   28  C7  UNL     1      21.332  -0.200  54.745  1.00  0.00     0.148 C 
ENDBRANCH   5  26
TORSDOF 1
ENDMDL
MODEL 6
REMARK VINA RESULT:      -7.0     10.667     12.949
REMARK  1 active torsions:
REMARK  status: ('A' for Active; 'I' for Inactive)
REMARK    1  A    between atoms: C5_5  and  N1_6 
ROOT
HETATM    1  C1  UNL     1      34.204   4.633  41.429  1.00  0.00     0.019 C 
HETATM    2  C2  UNL     1      33.953   5.554  42.560  1.00  0.00    -0.004 C 
HETATM    3  C3  UNL     1      33.888   4.781  43.681  1.00  0.00     0.029 C 
HETATM    4  C4  UNL     1      33.757   4.366  44.969  1.00  0.00     0.004 C 
HETATM    5  C5  UNL     1      33.560   4.507  46.250  1.00  0.00     0.007 C 
HETATM    6  C8  UNL     1      33.299   5.866  46.657  1.00  0.00     0.093 C 
HETATM    7  C9  UNL     1      32.332   6.721  45.852  1.00  0.00    -0.039 C 
HETATM    8  C10 UNL     1      31.143   7.407  46.049  1.00  0.00     0.053 C 
HETATM    9  C11 UNL     1      30.188   7.650  47.208  1.00  0.00     0.007 C 
HETATM   10  C12 UNL     1      29.122   8.442  46.930  1.00  0.00     0.131 C 
HETATM   11  O1  UNL     1      28.576   9.155  45.880  1.00  0.00    -0.361 OA
HETATM   12  C13 UNL     1      28.075  10.497  46.022  1.00  0.00     0.200 C 
HETATM   13  C14 UNL     1      29.256  11.456  45.761  1.00  0.00     0.194 C 
HETATM   14  O2  UNL     1      30.232  11.175  46.741  1.00  0.00    -0.385 OA
HETATM   15  C15 UNL     1      31.441  11.809  46.367  1.00  0.00     0.195 C 
HETATM   16  C16 UNL     1      32.458  11.393  47.338  1.00  0.00    -0.001 C 
HETATM   17  C17 UNL     1      33.542  10.679  46.972  1.00  0.00    -0.002 C 
HETATM   18  C18 UNL     1      33.727  10.299  45.555  1.00  0.00    -0.003 C 
HETATM   19  C19 UNL     1      34.028   9.881  44.364  1.00  0.00    -0.006 C 
HETATM   20  C20 UNL     1      35.161   8.999  43.843  1.00  0.00     0.172 C 
HETATM   21  N2  UNL     1      34.289   7.870  43.311  1.00  0.00    -0.296 N 
HETATM   22  N3  UNL     1      33.628   7.586  44.538  1.00  0.00    -0.181 NA
HETATM   23  C21 UNL     1      32.487   7.078  44.412  1.00  0.00     0.060 C 
HETATM   24  C22 UNL     1      32.201   7.209  43.011  1.00  0.00     0.089 C 
HETATM   25  C23 UNL     1      33.667   6.961  42.414  1.00  0.00     0.120 C 
ENDROOT
BRANCH   5  26
HETATM   26  N1  UNL     1      33.608   3.311  47.007  1.00  0.00    -0.393 N 
HETATM   27  C6  UNL     1      32.641   2.241  46.903  1.00  0.00     0.148 C 
HETATM   28  C7  UNL     1      34.792   3.415  47.858  1.00  0.00     0.148 C 
ENDBRANCH   5  26
TORSDOF 1
ENDMDL
MODEL 7
REMARK VINA RESULT:      -6.8      3.805      6.294
REMARK  1 active torsions:
REMARK  status: ('A' for Active; 'I' for Inactive)
REMARK    1  A    between atoms: C5_5  and  N1_6 
ROOT
HETATM    1  C1  UNL     1      14.518   3.725  51.925  1.00  0.00     0.019 C 
HETATM    2  C2  UNL     1      15.793   3.209  51.381  1.00  0.00    -0.004 C 
HETATM    3  C3  UNL     1      15.891   1.912  51.791  1.00  0.00     0.029 C 
HETATM    4  C4  UNL     1      16.334   0.643  51.999  1.00  0.00     0.004 C 
HETATM    5  C5  UNL     1      17.162  -0.359  51.899  1.00  0.00     0.007 C 
HETATM    6  C8  UNL     1      18.367  -0.053  51.170  1.00  0.00     0.093 C 
HETATM    7  C9  UNL     1      19.107   1.248  51.447  1.00  0.00    -0.039 C 
HETATM    8  C10 UNL     1      20.360   1.657  51.877  1.00  0.00     0.053 C 
HETATM    9  C11 UNL     1      21.657   0.983  52.298  1.00  0.00     0.007 C 
HETATM   10  C12 UNL     1      22.671   1.822  52.627  1.00  0.00     0.131 C 
HETATM   11  O1  UNL     1      22.944   3.174  52.707  1.00  0.00    -0.361 OA
HETATM   12  C13 UNL     1      24.160   3.758  52.202  1.00  0.00     0.200 C 
HETATM   13  C14 UNL     1      23.909   4.129  50.725  1.00  0.00     0.194 C 
HETATM   14  O2  UNL     1      23.608   2.927  50.050  1.00  0.00    -0.385 OA
HETATM   15  C15 UNL     1      23.083   3.247  48.775  1.00  0.00     0.195 C 
HETATM   16  C16 UNL     1      22.668   1.984  48.156  1.00  0.00    -0.001 C 
HETATM   17  C17 UNL     1      21.380   1.733  47.844  1.00  0.00    -0.002 C 
HETATM   18  C18 UNL     1      20.345   2.751  48.124  1.00  0.00    -0.003 C 
HETATM   19  C19 UNL     1      19.325   3.530  48.313  1.00  0.00    -0.006 C 
HETATM   20  C20 UNL     1      17.826   3.328  48.091  1.00  0.00     0.172 C 
HETATM   21  N2  UNL     1      17.398   3.497  49.542  1.00  0.00    -0.296 N 
HETATM   22  N3  UNL     1      18.218   2.463  50.073  1.00  0.00    -0.181 NA
HETATM   23  C21 UNL     1      18.540   2.616  51.277  1.00  0.00     0.060 C 
HETATM   24  C22 UNL     1      18.120   3.956  51.581  1.00  0.00     0.089 C 
HETATM   25  C23 UNL     1      16.778   4.020  50.708  1.00  0.00     0.120 C 
ENDROOT
BRANCH   5  26
HETATM   26  N1  UNL     1      16.750  -1.552  52.540  1.00  0.00    -0.393 N 
HETATM   27  C6  UNL     1      15.493  -2.223  52.287  1.00  0.00     0.148 C 
HETATM   28  C7  UNL     1      17.829  -1.916  53.457  1.00  0.00     0.148 C 
ENDBRANCH   5  26
TORSDOF 1
ENDMDL
MODEL 8
REMARK VINA RESULT:      -6.6      3.773      6.178
REMARK  1 active torsions:
REMARK  status: ('A' for Active; 'I' for Inactive)
REMARK    1  A    between atoms: C5_5  and  N1_6 
ROOT
HETATM    1  C1  UNL     1      24.300   3.729  51.982  1.00  0.00     0.019 C 
HETATM    2  C2  UNL     1      23.006   3.184  51.514  1.00  0.00    -0.004 C 
HETATM    3  C3  UNL     1      22.861   3.591  50.221  1.00  0.00     0.029 C 
HETATM    4  C4  UNL     1      22.372   3.795  48.969  1.00  0.00     0.004 C 
HETATM    5  C5  UNL     1      21.507   3.693  47.998  1.00  0.00     0.007 C 
HETATM    6  C8  UNL     1      20.314   2.964  48.350  1.00  0.00     0.093 C 
HETATM    7  C9  UNL     1      19.623   3.245  49.677  1.00  0.00    -0.039 C 
HETATM    8  C10 UNL     1      18.386   3.676  50.131  1.00  0.00     0.053 C 
HETATM    9  C11 UNL     1      17.065   4.096  49.504  1.00  0.00     0.007 C 
HETATM   10  C12 UNL     1      16.082   4.426  50.379  1.00  0.00     0.131 C 
HETATM   11  O1  UNL     1      15.859   4.510  51.740  1.00  0.00    -0.361 OA
HETATM   12  C13 UNL     1      14.666   4.007  52.370  1.00  0.00     0.200 C 
HETATM   13  C14 UNL     1      14.930   2.530  52.735  1.00  0.00     0.194 C 
HETATM   14  O2  UNL     1      15.187   1.852  51.524  1.00  0.00    -0.385 OA
HETATM   15  C15 UNL     1      15.724   0.578  51.828  1.00  0.00     0.195 C 
HETATM   16  C16 UNL     1      16.091  -0.044  50.552  1.00  0.00    -0.001 C 
HETATM   17  C17 UNL     1      17.369  -0.356  50.255  1.00  0.00    -0.002 C 
HETATM   18  C18 UNL     1      18.441  -0.074  51.233  1.00  0.00    -0.003 C 
HETATM   19  C19 UNL     1      19.490   0.117  51.973  1.00  0.00    -0.006 C 
HETATM   20  C20 UNL     1      20.980  -0.106  51.717  1.00  0.00     0.172 C 
HETATM   21  N2  UNL     1      21.414   1.346  51.866  1.00  0.00    -0.296 N 
HETATM   22  N3  UNL     1      20.556   1.874  50.861  1.00  0.00    -0.181 NA
HETATM   23  C21 UNL     1      20.240   3.078  51.023  1.00  0.00     0.060 C 
HETATM   24  C22 UNL     1      20.709   3.385  52.346  1.00  0.00     0.089 C 
HETATM   25  C23 UNL     1      22.053   2.512  52.363  1.00  0.00     0.120 C 
ENDROOT
BRANCH   5  26
HETATM   26  N1  UNL     1      21.875   4.331  46.788  1.00  0.00    -0.393 N 
HETATM   27  C6  UNL     1      21.804   3.711  45.484  1.00  0.00     0.148 C 
HETATM   28  C7  UNL     1      22.314   5.678  47.155  1.00  0.00     0.148 C 
ENDBRANCH   5  26
TORSDOF 1
ENDMDL
MODEL 9
REMARK VINA RESULT:      -6.5      7.151     10.136
REMARK  1 active torsions:
REMARK  status: ('A' for Active; 'I' for Inactive)
REMARK    1  A    between atoms: C5_5  and  N1_6 
ROOT
HETATM    1  C1  UNL     1      23.851   5.094  48.940  1.00  0.00     0.019 C 
HETATM    2  C2  UNL     1      24.763   6.217  48.628  1.00  0.00    -0.004 C 
HETATM    3  C3  UNL     1      24.288   6.793  47.487  1.00  0.00     0.029 C 
HETATM    4  C4  UNL     1      24.133   7.605  46.407  1.00  0.00     0.004 C 
HETATM    5  C5  UNL     1      24.436   8.584  45.602  1.00  0.00     0.007 C 
HETATM    6  C8  UNL     1      25.642   9.287  45.961  1.00  0.00     0.093 C 
HETATM    7  C9  UNL     1      26.882   8.500  46.363  1.00  0.00    -0.039 C 
HETATM    8  C10 UNL     1      28.193   8.344  45.942  1.00  0.00     0.053 C 
HETATM    9  C11 UNL     1      29.069   8.903  44.830  1.00  0.00     0.007 C 
HETATM   10  C12 UNL     1      30.353   8.465  44.823  1.00  0.00     0.131 C 
HETATM   11  O1  UNL     1      31.193   7.631  45.537  1.00  0.00    -0.361 OA
HETATM   12  C13 UNL     1      32.534   8.002  45.908  1.00  0.00     0.200 C 
HETATM   13  C14 UNL     1      32.450   8.712  47.276  1.00  0.00     0.194 C 
HETATM   14  O2  UNL     1      31.642   9.855  47.092  1.00  0.00    -0.385 OA
HETATM   15  C15 UNL     1      31.292  10.367  48.364  1.00  0.00     0.195 C 
HETATM   16  C16 UNL     1      30.357  11.473  48.134  1.00  0.00    -0.001 C 
HETATM   17  C17 UNL     1      29.085  11.434  48.581  1.00  0.00    -0.002 C 
HETATM   18  C18 UNL     1      28.605  10.252  49.328  1.00  0.00    -0.003 C 
HETATM   19  C19 UNL     1      28.032   9.291  49.986  1.00  0.00    -0.006 C 
HETATM   20  C20 UNL     1      26.595   9.090  50.462  1.00  0.00     0.172 C 
HETATM   21  N2  UNL     1      26.305   7.832  49.654  1.00  0.00    -0.296 N 
HETATM   22  N3  UNL     1      26.596   8.391  48.378  1.00  0.00    -0.181 NA
HETATM   23  C21 UNL     1      26.969   7.558  47.516  1.00  0.00     0.060 C 
HETATM   24  C22 UNL     1      27.184   6.353  48.267  1.00  0.00     0.089 C 
HETATM   25  C23 UNL     1      25.994   6.485  49.331  1.00  0.00     0.120 C 
ENDROOT
BRANCH   5  26
HETATM   26  N1  UNL     1      23.551   8.769  44.511  1.00  0.00    -0.393 N 
HETATM   27  C6  UNL     1      23.005  10.046  44.111  1.00  0.00     0.148 C 
HETATM   28  C7  UNL     1      23.340   7.444  43.930  1.00  0.00     0.148 C 
ENDBRANCH   5  26
TORSDOF 1
ENDMDL
