MODEL 1
REMARK VINA RESULT:     -11.4      0.000      0.000
REMARK  1 active torsions:
REMARK  status: ('A' for Active; 'I' for Inactive)
REMARK    1  A    between atoms: N1_2  and  C2_3 
ROOT
HETATM    1  C2  UNL     1      23.540   4.577  48.335  1.00  0.00     0.248 C 
HETATM    2  C3  UNL     1      22.982   3.471  49.109  1.00  0.00     0.028 C 
HETATM    3  C4  UNL     1      22.686   2.247  49.501  1.00  0.00     0.116 C 
HETATM    4  N2  UNL     1      21.966   1.582  50.525  1.00  0.00    -0.256 NA
HETATM    5  C5  UNL     1      21.070   0.728  50.143  1.00  0.00     0.207 C 
HETATM    6  N3  UNL     1      20.614   0.316  51.426  1.00  0.00    -0.351 N 
HETATM    7  C6  UNL     1      21.247  -0.207  52.588  1.00  0.00     0.035 A 
HETATM    8  C7  UNL     1      20.416  -0.958  53.393  1.00  0.00     0.029 A 
HETATM    9  C8  UNL     1      20.942  -1.506  54.544  1.00  0.00     0.004 A 
HETATM   10  C9  UNL     1      22.279  -1.301  54.878  1.00  0.00     0.029 A 
HETATM   11  C10 UNL     1      23.079  -0.534  54.031  1.00  0.00     0.037 A 
HETATM   12  C11 UNL     1      22.565   0.009  52.892  1.00  0.00     0.059 A 
HETATM   13  N4  UNL     1      24.411  -0.408  54.502  1.00  0.00    -0.323 N 
HETATM   14  C12 UNL     1      25.637  -0.674  53.853  1.00  0.00     0.259 C 
HETATM   15  O1  UNL     1      24.791  -0.964  52.971  1.00  0.00    -0.267 OA
HETATM   16  C13 UNL     1      27.072  -0.773  53.689  1.00  0.00     0.066 A 
HETATM   17  C14 UNL     1      27.418  -1.916  53.003  1.00  0.00     0.020 A 
HETATM   18  C15 UNL     1      28.768  -2.148  52.775  1.00  0.00     0.001 A 
HETATM   19  C16 UNL     1      29.605  -1.177  53.279  1.00  0.00     0.003 A 
HETATM   20  C17 UNL     1      29.280  -0.028  53.967  1.00  0.00     0.038 A 
HETATM   21  C18 UNL     1      27.928   0.157  54.168  1.00  0.00     0.090 A 
HETATM   22  O2  UNL     1      27.452   1.271  54.843  1.00  0.00    -0.322 OA
HETATM   23  C19 UNL     1      26.359   1.920  54.293  1.00  0.00     0.142 C 
HETATM   24  C20 UNL     1      26.168   2.264  53.044  1.00  0.00     0.026 C 
HETATM   25  C21 UNL     1      26.732   2.250  51.727  1.00  0.00     0.021 C 
HETATM   26  C22 UNL     1      26.561   2.586  50.466  1.00  0.00     0.116 C 
HETATM   27  N5  UNL     1      25.463   3.243  49.867  1.00  0.00    -0.277 NA
HETATM   28  C23 UNL     1      25.513   4.524  49.736  1.00  0.00     0.091 C 
HETATM   29  C24 UNL     1      24.477   5.432  49.136  1.00  0.00     0.086 C 
HETATM   30  H9  UNL     1      19.580   0.472  51.408  1.00  0.00     0.166 HD
HETATM   31  H14 UNL     1      24.481  -0.067  55.482  1.00  0.00     0.169 HD
ENDROOT
BRANCH   1  32
HETATM   32  N1  UNL     1      22.509   5.406  47.733  1.00  0.00     0.087 N 
HETATM   33  C1  UNL     1      22.080   4.819  46.463  1.00  0.00     0.307 C 
HETATM   34  H4  UNL     1      22.913   6.337  47.494  1.00  0.00     0.316 HD
ENDBRANCH   1  32
TORSDOF 1
ENDMDL
MODEL 2
REMARK VINA RESULT:     -10.0      2.905      7.376
REMARK  1 active torsions:
REMARK  status: ('A' for Active; 'I' for Inactive)
REMARK    1  A    between atoms: N1_2  and  C2_3 
ROOT
HETATM    1  C2  UNL     1      26.192   0.285  53.486  1.00  0.00     0.248 C 
HETATM    2  C3  UNL     1      24.753   0.067  53.620  1.00  0.00     0.028 C 
HETATM    3  C4  UNL     1      23.488   0.258  53.937  1.00  0.00     0.116 C 
HETATM    4  N2  UNL     1      22.231  -0.389  53.814  1.00  0.00    -0.256 NA
HETATM    5  C5  UNL     1      21.562  -0.567  54.909  1.00  0.00     0.207 C 
HETATM    6  N3  UNL     1      20.424  -1.216  54.353  1.00  0.00    -0.351 N 
HETATM    7  C6  UNL     1      19.497  -0.892  53.324  1.00  0.00     0.035 A 
HETATM    8  C7  UNL     1      18.268  -1.506  53.458  1.00  0.00     0.029 A 
HETATM    9  C8  UNL     1      17.305  -1.254  52.504  1.00  0.00     0.004 A 
HETATM   10  C9  UNL     1      17.573  -0.400  51.436  1.00  0.00     0.029 A 
HETATM   11  C10 UNL     1      18.830   0.197  51.346  1.00  0.00     0.037 A 
HETATM   12  C11 UNL     1      19.786  -0.048  52.285  1.00  0.00     0.059 A 
HETATM   13  N4  UNL     1      18.957   1.033  50.207  1.00  0.00    -0.323 N 
HETATM   14  C12 UNL     1      19.365   2.382  50.107  1.00  0.00     0.259 C 
HETATM   15  O1  UNL     1      19.436   2.165  51.342  1.00  0.00    -0.267 OA
HETATM   16  C13 UNL     1      19.684   3.641  49.468  1.00  0.00     0.066 A 
HETATM   17  C14 UNL     1      19.216   4.707  50.203  1.00  0.00     0.020 A 
HETATM   18  C15 UNL     1      19.445   5.984  49.707  1.00  0.00     0.001 A 
HETATM   19  C16 UNL     1      20.129   6.015  48.512  1.00  0.00     0.003 A 
HETATM   20  C17 UNL     1      20.605   4.963  47.761  1.00  0.00     0.038 A 
HETATM   21  C18 UNL     1      20.353   3.717  48.295  1.00  0.00     0.090 A 
HETATM   22  O2  UNL     1      20.775   2.563  47.650  1.00  0.00    -0.322 OA
HETATM   23  C19 UNL     1      21.367   1.586  48.433  1.00  0.00     0.142 C 
HETATM   24  C20 UNL     1      22.293   1.734  49.347  1.00  0.00     0.026 C 
HETATM   25  C21 UNL     1      23.130   2.681  50.023  1.00  0.00     0.021 C 
HETATM   26  C22 UNL     1      24.060   2.853  50.938  1.00  0.00     0.116 C 
HETATM   27  N5  UNL     1      24.684   1.886  51.757  1.00  0.00    -0.277 NA
HETATM   28  C23 UNL     1      25.800   1.375  51.361  1.00  0.00     0.091 C 
HETATM   29  C24 UNL     1      26.639   0.341  52.055  1.00  0.00     0.086 C 
HETATM   30  H9  UNL     1      20.338  -2.112  54.885  1.00  0.00     0.166 HD
HETATM   31  H14 UNL     1      18.706   0.567  49.312  1.00  0.00     0.169 HD
ENDROOT
BRANCH   1  32
HETATM   32  N1  UNL     1      26.971  -0.707  54.208  1.00  0.00     0.087 N 
HETATM   33  C1  UNL     1      28.268  -0.143  54.582  1.00  0.00     0.307 C 
HETATM   34  H4  UNL     1      27.181  -1.508  53.573  1.00  0.00     0.316 HD
ENDBRANCH   1  32
TORSDOF 1
ENDMDL
MODEL 3
REMARK VINA RESULT:      -9.2      4.010      7.765
REMARK  1 active torsions:
REMARK  status: ('A' for Active; 'I' for Inactive)
REMARK    1  A    between atoms: N1_2  and  C2_3 
ROOT
HETATM    1  C2  UNL     1      14.237   0.752  52.439  1.00  0.00     0.248 C 
HETATM    2  C3  UNL     1      15.545   0.167  52.727  1.00  0.00     0.028 C 
HETATM    3  C4  UNL     1      16.660  -0.521  52.589  1.00  0.00     0.116 C 
HETATM    4  N2  UNL     1      17.845  -0.821  53.309  1.00  0.00    -0.256 NA
HETATM    5  C5  UNL     1      18.129  -2.075  53.462  1.00  0.00     0.207 C 
HETATM    6  N3  UNL     1      19.336  -1.927  54.202  1.00  0.00    -0.351 N 
HETATM    7  C6  UNL     1      20.556  -1.227  53.988  1.00  0.00     0.035 A 
HETATM    8  C7  UNL     1      21.637  -1.759  54.659  1.00  0.00     0.029 A 
HETATM    9  C8  UNL     1      22.863  -1.145  54.513  1.00  0.00     0.004 A 
HETATM   10  C9  UNL     1      22.998  -0.017  53.707  1.00  0.00     0.029 A 
HETATM   11  C10 UNL     1      21.875   0.483  53.049  1.00  0.00     0.037 A 
HETATM   12  C11 UNL     1      20.661  -0.119  53.188  1.00  0.00     0.059 A 
HETATM   13  N4  UNL     1      22.164   1.634  52.272  1.00  0.00    -0.323 N 
HETATM   14  C12 UNL     1      21.902   1.906  50.911  1.00  0.00     0.259 C 
HETATM   15  O1  UNL     1      21.437   0.747  51.055  1.00  0.00    -0.267 OA
HETATM   16  C13 UNL     1      21.884   2.658  49.674  1.00  0.00     0.066 A 
HETATM   17  C14 UNL     1      22.175   1.853  48.596  1.00  0.00     0.020 A 
HETATM   18  C15 UNL     1      22.199   2.442  47.338  1.00  0.00     0.001 A 
HETATM   19  C16 UNL     1      21.922   3.791  47.337  1.00  0.00     0.003 A 
HETATM   20  C17 UNL     1      21.630   4.614  48.402  1.00  0.00     0.038 A 
HETATM   21  C18 UNL     1      21.617   3.983  49.628  1.00  0.00     0.090 A 
HETATM   22  O2  UNL     1      21.336   4.685  50.792  1.00  0.00    -0.322 OA
HETATM   23  C19 UNL     1      20.466   4.091  51.689  1.00  0.00     0.142 C 
HETATM   24  C20 UNL     1      19.315   3.517  51.440  1.00  0.00     0.026 C 
HETATM   25  C21 UNL     1      18.378   3.171  50.412  1.00  0.00     0.021 C 
HETATM   26  C22 UNL     1      17.224   2.599  50.139  1.00  0.00     0.116 C 
HETATM   27  N5  UNL     1      16.312   1.981  51.023  1.00  0.00    -0.277 NA
HETATM   28  C23 UNL     1      15.341   2.686  51.493  1.00  0.00     0.091 C 
HETATM   29  C24 UNL     1      14.259   2.252  52.439  1.00  0.00     0.086 C 
HETATM   30  H9  UNL     1      19.191  -2.491  55.070  1.00  0.00     0.166 HD
HETATM   31  H14 UNL     1      22.647   2.389  52.801  1.00  0.00     0.169 HD
ENDROOT
BRANCH   1  32
HETATM   32  N1  UNL     1      13.206   0.273  53.346  1.00  0.00     0.087 N 
HETATM   33  C1  UNL     1      12.563   1.409  54.008  1.00  0.00     0.307 C 
HETATM   34  H4  UNL     1      13.649  -0.286  54.106  1.00  0.00     0.316 HD
ENDBRANCH   1  32
TORSDOF 1
ENDMDL
MODEL 4
REMARK VINA RESULT:      -9.0      2.991      7.493
REMARK  1 active torsions:
REMARK  status: ('A' for Active; 'I' for Inactive)
REMARK    1  A    between atoms: N1_2  and  C2_3 
ROOT
HETATM    1  C2  UNL     1      26.167   1.112  53.158  1.00  0.00     0.248 C 
HETATM    2  C3  UNL     1      24.722   0.902  53.097  1.00  0.00     0.028 C 
HETATM    3  C4  UNL     1      23.427   1.095  53.250  1.00  0.00     0.116 C 
HETATM    4  N2  UNL     1      22.195   0.461  52.947  1.00  0.00    -0.256 NA
HETATM    5  C5  UNL     1      21.387   0.262  53.940  1.00  0.00     0.207 C 
HETATM    6  N3  UNL     1      20.328  -0.364  53.224  1.00  0.00    -0.351 N 
HETATM    7  C6  UNL     1      19.546  -0.009  52.090  1.00  0.00     0.035 A 
HETATM    8  C7  UNL     1      18.308  -0.616  52.046  1.00  0.00     0.029 A 
HETATM    9  C8  UNL     1      17.479  -0.333  50.981  1.00  0.00     0.004 A 
HETATM   10  C9  UNL     1      17.888   0.545  49.980  1.00  0.00     0.029 A 
HETATM   11  C10 UNL     1      19.149   1.134  50.070  1.00  0.00     0.037 A 
HETATM   12  C11 UNL     1      19.973   0.858  51.119  1.00  0.00     0.059 A 
HETATM   13  N4  UNL     1      19.429   1.996  48.979  1.00  0.00    -0.323 N 
HETATM   14  C12 UNL     1      19.852   3.344  48.967  1.00  0.00     0.259 C 
HETATM   15  O1  UNL     1      19.760   3.096  50.195  1.00  0.00    -0.267 OA
HETATM   16  C13 UNL     1      20.259   4.615  48.407  1.00  0.00     0.066 A 
HETATM   17  C14 UNL     1      19.703   5.667  49.101  1.00  0.00     0.020 A 
HETATM   18  C15 UNL     1      20.001   6.954  48.671  1.00  0.00     0.001 A 
HETATM   19  C16 UNL     1      20.836   7.008  47.577  1.00  0.00     0.003 A 
HETATM   20  C17 UNL     1      21.402   5.970  46.869  1.00  0.00     0.038 A 
HETATM   21  C18 UNL     1      21.076   4.714  47.334  1.00  0.00     0.090 A 
HETATM   22  O2  UNL     1      21.573   3.573  46.721  1.00  0.00    -0.322 OA
HETATM   23  C19 UNL     1      22.053   2.573  47.550  1.00  0.00     0.142 C 
HETATM   24  C20 UNL     1      22.851   2.691  48.581  1.00  0.00     0.026 C 
HETATM   25  C21 UNL     1      23.597   3.615  49.384  1.00  0.00     0.021 C 
HETATM   26  C22 UNL     1      24.400   3.757  50.418  1.00  0.00     0.116 C 
HETATM   27  N5  UNL     1      24.906   2.766  51.287  1.00  0.00    -0.277 NA
HETATM   28  C23 UNL     1      26.062   2.256  51.028  1.00  0.00     0.091 C 
HETATM   29  C24 UNL     1      26.798   1.199  51.800  1.00  0.00     0.086 C 
HETATM   30  H9  UNL     1      20.169  -1.272  53.717  1.00  0.00     0.166 HD
HETATM   31  H14 UNL     1      19.295   1.554  48.047  1.00  0.00     0.169 HD
ENDROOT
BRANCH   1  32
HETATM   32  N1  UNL     1      26.840   0.096  53.950  1.00  0.00     0.087 N 
HETATM   33  C1  UNL     1      26.345   0.134  55.327  1.00  0.00     0.307 C 
HETATM   34  H4  UNL     1      27.856   0.321  54.007  1.00  0.00     0.316 HD
ENDBRANCH   1  32
TORSDOF 1
ENDMDL
MODEL 5
REMARK VINA RESULT:      -8.7      2.944      8.372
REMARK  1 active torsions:
REMARK  status: ('A' for Active; 'I' for Inactive)
REMARK    1  A    between atoms: N1_2  and  C2_3 
ROOT
HETATM    1  C2  UNL     1      25.969  -0.565  53.255  1.00  0.00     0.248 C 
HETATM    2  C3  UNL     1      25.928   0.657  52.454  1.00  0.00     0.028 C 
HETATM    3  C4  UNL     1      25.824   1.465  51.418  1.00  0.00     0.116 C 
HETATM    4  N2  UNL     1      25.868   2.851  51.117  1.00  0.00    -0.256 NA
HETATM    5  C5  UNL     1      26.705   3.217  50.199  1.00  0.00     0.207 C 
HETATM    6  N3  UNL     1      26.433   4.614  50.215  1.00  0.00    -0.351 N 
HETATM    7  C6  UNL     1      25.257   5.401  50.072  1.00  0.00     0.035 A 
HETATM    8  C7  UNL     1      25.488   6.685  49.622  1.00  0.00     0.029 A 
HETATM    9  C8  UNL     1      24.406   7.523  49.454  1.00  0.00     0.004 A 
HETATM   10  C9  UNL     1      23.116   7.078  49.734  1.00  0.00     0.029 A 
HETATM   11  C10 UNL     1      22.934   5.771  50.186  1.00  0.00     0.037 A 
HETATM   12  C11 UNL     1      23.998   4.938  50.354  1.00  0.00     0.059 A 
HETATM   13  N4  UNL     1      21.571   5.464  50.434  1.00  0.00    -0.323 N 
HETATM   14  C12 UNL     1      20.777   4.396  49.961  1.00  0.00     0.259 C 
HETATM   15  O1  UNL     1      21.889   4.171  49.422  1.00  0.00    -0.267 OA
HETATM   16  C13 UNL     1      19.595   3.577  49.795  1.00  0.00     0.066 A 
HETATM   17  C14 UNL     1      19.456   3.159  48.490  1.00  0.00     0.020 A 
HETATM   18  C15 UNL     1      18.358   2.367  48.179  1.00  0.00     0.001 A 
HETATM   19  C16 UNL     1      17.532   2.097  49.247  1.00  0.00     0.003 A 
HETATM   20  C17 UNL     1      17.652   2.504  50.558  1.00  0.00     0.038 A 
HETATM   21  C18 UNL     1      18.757   3.288  50.816  1.00  0.00     0.090 A 
HETATM   22  O2  UNL     1      19.009   3.770  52.092  1.00  0.00    -0.322 OA
HETATM   23  C19 UNL     1      20.312   3.679  52.552  1.00  0.00     0.142 C 
HETATM   24  C20 UNL     1      21.120   2.650  52.492  1.00  0.00     0.026 C 
HETATM   25  C21 UNL     1      21.254   1.290  52.058  1.00  0.00     0.021 C 
HETATM   26  C22 UNL     1      22.050   0.244  51.986  1.00  0.00     0.116 C 
HETATM   27  N5  UNL     1      23.381   0.113  52.439  1.00  0.00    -0.277 NA
HETATM   28  C23 UNL     1      23.583  -0.376  53.614  1.00  0.00     0.091 C 
HETATM   29  C24 UNL     1      24.897  -0.608  54.303  1.00  0.00     0.086 C 
HETATM   30  H9  UNL     1      27.361   5.068  50.373  1.00  0.00     0.166 HD
HETATM   31  H14 UNL     1      21.094   6.141  51.063  1.00  0.00     0.169 HD
ENDROOT
BRANCH   1  32
HETATM   32  N1  UNL     1      27.269  -0.780  53.869  1.00  0.00     0.087 N 
HETATM   33  C1  UNL     1      27.591   0.340  54.753  1.00  0.00     0.307 C 
HETATM   34  H4  UNL     1      28.004  -0.779  53.128  1.00  0.00     0.316 HD
ENDBRANCH   1  32
TORSDOF 1
ENDMDL
MODEL 6
REMARK VINA RESULT:      -8.6      3.802      7.531
REMARK  1 active torsions:
REMARK  status: ('A' for Active; 'I' for Inactive)
REMARK    1  A    between atoms: N1_2  and  C2_3 
ROOT
HETATM    1  C2  UNL     1      20.350   9.594  48.941  1.00  0.00     0.248 C 
HETATM    2  C3  UNL     1      21.745   9.165  49.017  1.00  0.00     0.028 C 
HETATM    3  C4  UNL     1      22.918   8.822  49.511  1.00  0.00     0.116 C 
HETATM    4  N2  UNL     1      24.199   8.404  49.067  1.00  0.00    -0.256 NA
HETATM    5  C5  UNL     1      25.211   9.093  49.489  1.00  0.00     0.207 C 
HETATM    6  N3  UNL     1      26.245   8.364  48.837  1.00  0.00    -0.351 N 
HETATM    7  C6  UNL     1      26.632   6.996  48.806  1.00  0.00     0.035 A 
HETATM    8  C7  UNL     1      27.962   6.792  48.500  1.00  0.00     0.029 A 
HETATM    9  C8  UNL     1      28.429   5.496  48.445  1.00  0.00     0.004 A 
HETATM   10  C9  UNL     1      27.573   4.425  48.693  1.00  0.00     0.029 A 
HETATM   11  C10 UNL     1      26.237   4.683  48.998  1.00  0.00     0.037 A 
HETATM   12  C11 UNL     1      25.769   5.961  49.054  1.00  0.00     0.059 A 
HETATM   13  N4  UNL     1      25.488   3.498  49.218  1.00  0.00    -0.323 N 
HETATM   14  C12 UNL     1      24.673   3.124  50.309  1.00  0.00     0.259 C 
HETATM   15  O1  UNL     1      25.083   4.261  50.650  1.00  0.00    -0.267 OA
HETATM   16  C13 UNL     1      23.786   2.293  51.097  1.00  0.00     0.066 A 
HETATM   17  C14 UNL     1      24.115   2.340  52.433  1.00  0.00     0.020 A 
HETATM   18  C15 UNL     1      23.350   1.584  53.312  1.00  0.00     0.001 A 
HETATM   19  C16 UNL     1      22.337   0.868  52.714  1.00  0.00     0.003 A 
HETATM   20  C17 UNL     1      21.992   0.807  51.381  1.00  0.00     0.038 A 
HETATM   21  C18 UNL     1      22.780   1.574  50.549  1.00  0.00     0.090 A 
HETATM   22  O2  UNL     1      22.550   1.614  49.182  1.00  0.00    -0.322 OA
HETATM   23  C19 UNL     1      22.584   2.858  48.575  1.00  0.00     0.142 C 
HETATM   24  C20 UNL     1      22.014   3.967  48.972  1.00  0.00     0.026 C 
HETATM   25  C21 UNL     1      21.195   4.564  49.987  1.00  0.00     0.021 C 
HETATM   26  C22 UNL     1      20.614   5.668  50.405  1.00  0.00     0.116 C 
HETATM   27  N5  UNL     1      20.628   6.953  49.818  1.00  0.00    -0.277 NA
HETATM   28  C23 UNL     1      19.661   7.276  49.029  1.00  0.00     0.091 C 
HETATM   29  C24 UNL     1      19.463   8.571  48.295  1.00  0.00     0.086 C 
HETATM   30  H9  UNL     1      26.775   9.080  48.290  1.00  0.00     0.166 HD
HETATM   31  H14 UNL     1      25.562   2.803  48.448  1.00  0.00     0.169 HD
ENDROOT
BRANCH   1  32
HETATM   32  N1  UNL     1      20.201  10.873  48.265  1.00  0.00     0.087 N 
HETATM   33  C1  UNL     1      20.496  11.962  49.197  1.00  0.00     0.307 C 
HETATM   34  H4  UNL     1      19.206  11.000  47.984  1.00  0.00     0.316 HD
ENDBRANCH   1  32
TORSDOF 1
ENDMDL
MODEL 7
REMARK VINA RESULT:      -8.5      3.296      5.883
REMARK  1 active torsions:
REMARK  status: ('A' for Active; 'I' for Inactive)
REMARK    1  A    between atoms: N1_2  and  C2_3 
ROOT
HETATM    1  C2  UNL     1      18.724   4.007  46.312  1.00  0.00     0.248 C 
HETATM    2  C3  UNL     1      19.499   3.260  47.300  1.00  0.00     0.028 C 
HETATM    3  C4  UNL     1      20.420   2.483  47.833  1.00  0.00     0.116 C 
HETATM    4  N2  UNL     1      20.811   1.976  49.099  1.00  0.00    -0.256 NA
HETATM    5  C5  UNL     1      20.926   0.690  49.199  1.00  0.00     0.207 C 
HETATM    6  N3  UNL     1      21.316   0.621  50.565  1.00  0.00    -0.351 N 
HETATM    7  C6  UNL     1      22.356   1.212  51.335  1.00  0.00     0.035 A 
HETATM    8  C7  UNL     1      22.705   0.493  52.460  1.00  0.00     0.029 A 
HETATM    9  C8  UNL     1      23.704   0.990  53.270  1.00  0.00     0.004 A 
HETATM   10  C9  UNL     1      24.339   2.189  52.954  1.00  0.00     0.029 A 
HETATM   11  C10 UNL     1      23.951   2.879  51.806  1.00  0.00     0.037 A 
HETATM   12  C11 UNL     1      22.965   2.394  51.002  1.00  0.00     0.059 A 
HETATM   13  N4  UNL     1      24.681   4.082  51.619  1.00  0.00    -0.323 N 
HETATM   14  C12 UNL     1      25.404   4.544  50.498  1.00  0.00     0.259 C 
HETATM   15  O1  UNL     1      24.972   3.431  50.106  1.00  0.00    -0.267 OA
HETATM   16  C13 UNL     1      26.220   5.441  49.706  1.00  0.00     0.066 A 
HETATM   17  C14 UNL     1      27.167   4.749  48.986  1.00  0.00     0.020 A 
HETATM   18  C15 UNL     1      28.030   5.482  48.182  1.00  0.00     0.001 A 
HETATM   19  C16 UNL     1      27.817   6.843  48.213  1.00  0.00     0.003 A 
HETATM   20  C17 UNL     1      26.876   7.554  48.925  1.00  0.00     0.038 A 
HETATM   21  C18 UNL     1      26.044   6.782  49.708  1.00  0.00     0.090 A 
HETATM   22  O2  UNL     1      25.047   7.360  50.479  1.00  0.00    -0.322 OA
HETATM   23  C19 UNL     1      23.803   6.753  50.456  1.00  0.00     0.142 C 
HETATM   24  C20 UNL     1      23.126   6.336  49.416  1.00  0.00     0.026 C 
HETATM   25  C21 UNL     1      23.131   6.218  47.987  1.00  0.00     0.021 C 
HETATM   26  C22 UNL     1      22.468   5.806  46.927  1.00  0.00     0.116 C 
HETATM   27  N5  UNL     1      21.203   5.181  46.863  1.00  0.00    -0.277 NA
HETATM   28  C23 UNL     1      20.164   5.919  46.670  1.00  0.00     0.091 C 
HETATM   29  C24 UNL     1      18.730   5.486  46.567  1.00  0.00     0.086 C 
HETATM   30  H9  UNL     1      20.628  -0.028  51.010  1.00  0.00     0.166 HD
HETATM   31  H14 UNL     1      24.674   4.712  52.447  1.00  0.00     0.169 HD
ENDROOT
BRANCH   1  32
HETATM   32  N1  UNL     1      17.355   3.530  46.207  1.00  0.00     0.087 N 
HETATM   33  C1  UNL     1      17.227   2.643  45.051  1.00  0.00     0.307 C 
HETATM   34  H4  UNL     1      16.723   4.337  46.019  1.00  0.00     0.316 HD
ENDBRANCH   1  32
TORSDOF 1
ENDMDL
MODEL 8
REMARK VINA RESULT:      -8.5      3.429      8.954
REMARK  1 active torsions:
REMARK  status: ('A' for Active; 'I' for Inactive)
REMARK    1  A    between atoms: N1_2  and  C2_3 
ROOT
HETATM    1  C2  UNL     1      26.533   1.108  52.342  1.00  0.00     0.248 C 
HETATM    2  C3  UNL     1      26.541   2.219  51.393  1.00  0.00     0.028 C 
HETATM    3  C4  UNL     1      26.498   2.890  50.260  1.00  0.00     0.116 C 
HETATM    4  N2  UNL     1      26.562   4.227  49.789  1.00  0.00    -0.256 NA
HETATM    5  C5  UNL     1      27.451   4.480  48.882  1.00  0.00     0.207 C 
HETATM    6  N3  UNL     1      27.181   5.866  48.707  1.00  0.00    -0.351 N 
HETATM    7  C6  UNL     1      26.017   6.623  48.398  1.00  0.00     0.035 A 
HETATM    8  C7  UNL     1      26.277   7.841  47.804  1.00  0.00     0.029 A 
HETATM    9  C8  UNL     1      25.208   8.646  47.470  1.00  0.00     0.004 A 
HETATM   10  C9  UNL     1      23.903   8.232  47.729  1.00  0.00     0.029 A 
HETATM   11  C10 UNL     1      23.693   6.992  48.331  1.00  0.00     0.037 A 
HETATM   12  C11 UNL     1      24.744   6.192  48.664  1.00  0.00     0.059 A 
HETATM   13  N4  UNL     1      22.317   6.711  48.537  1.00  0.00    -0.323 N 
HETATM   14  C12 UNL     1      21.549   5.588  48.158  1.00  0.00     0.259 C 
HETATM   15  O1  UNL     1      22.690   5.302  47.716  1.00  0.00    -0.267 OA
HETATM   16  C13 UNL     1      20.377   4.748  48.029  1.00  0.00     0.066 A 
HETATM   17  C14 UNL     1      20.313   4.169  46.781  1.00  0.00     0.020 A 
HETATM   18  C15 UNL     1      19.234   3.338  46.510  1.00  0.00     0.001 A 
HETATM   19  C16 UNL     1      18.346   3.200  47.554  1.00  0.00     0.003 A 
HETATM   20  C17 UNL     1      18.391   3.769  48.808  1.00  0.00     0.038 A 
HETATM   21  C18 UNL     1      19.481   4.585  49.028  1.00  0.00     0.090 A 
HETATM   22  O2  UNL     1      19.660   5.226  50.245  1.00  0.00    -0.322 OA
HETATM   23  C19 UNL     1      20.934   5.200  50.787  1.00  0.00     0.142 C 
HETATM   24  C20 UNL     1      21.743   4.176  50.903  1.00  0.00     0.026 C 
HETATM   25  C21 UNL     1      21.898   2.773  50.653  1.00  0.00     0.021 C 
HETATM   26  C22 UNL     1      22.695   1.730  50.759  1.00  0.00     0.116 C 
HETATM   27  N5  UNL     1      23.998   1.665  51.300  1.00  0.00    -0.277 NA
HETATM   28  C23 UNL     1      24.131   1.328  52.537  1.00  0.00     0.091 C 
HETATM   29  C24 UNL     1      25.403   1.192  53.325  1.00  0.00     0.086 C 
HETATM   30  H9  UNL     1      28.100   6.341  48.859  1.00  0.00     0.166 HD
HETATM   31  H14 UNL     1      21.806   7.459  49.048  1.00  0.00     0.169 HD
ENDROOT
BRANCH   1  32
HETATM   32  N1  UNL     1      27.795   0.979  53.052  1.00  0.00     0.087 N 
HETATM   33  C1  UNL     1      28.284   2.303  53.438  1.00  0.00     0.307 C 
HETATM   34  H4  UNL     1      28.514   0.586  52.407  1.00  0.00     0.316 HD
ENDBRANCH   1  32
TORSDOF 1
ENDMDL
MODEL 9
REMARK VINA RESULT:      -8.0      3.588      7.491
REMARK  1 active torsions:
REMARK  status: ('A' for Active; 'I' for Inactive)
REMARK    1  A    between atoms: N1_2  and  C2_3 
ROOT
HETATM    1  C2  UNL     1      25.112   6.575  49.648  1.00  0.00     0.248 C 
HETATM    2  C3  UNL     1      24.697   5.474  50.516  1.00  0.00     0.028 C 
HETATM    3  C4  UNL     1      24.147   4.815  51.516  1.00  0.00     0.116 C 
HETATM    4  N2  UNL     1      24.004   3.485  51.988  1.00  0.00    -0.256 NA
HETATM    5  C5  UNL     1      24.382   3.258  53.206  1.00  0.00     0.207 C 
HETATM    6  N3  UNL     1      24.078   1.869  53.263  1.00  0.00    -0.351 N 
HETATM    7  C6  UNL     1      22.909   1.095  53.019  1.00  0.00     0.035 A 
HETATM    8  C7  UNL     1      22.882  -0.111  53.688  1.00  0.00     0.029 A 
HETATM    9  C8  UNL     1      21.788  -0.932  53.510  1.00  0.00     0.004 A 
HETATM   10  C9  UNL     1      20.742  -0.545  52.676  1.00  0.00     0.029 A 
HETATM   11  C10 UNL     1      20.816   0.684  52.022  1.00  0.00     0.037 A 
HETATM   12  C11 UNL     1      21.894   1.500  52.193  1.00  0.00     0.059 A 
HETATM   13  N4  UNL     1      19.685   0.938  51.204  1.00  0.00    -0.323 N 
HETATM   14  C12 UNL     1      18.816   2.051  51.170  1.00  0.00     0.259 C 
HETATM   15  O1  UNL     1      19.625   2.362  52.079  1.00  0.00    -0.267 OA
HETATM   16  C13 UNL     1      17.705   2.871  50.733  1.00  0.00     0.066 A 
HETATM   17  C14 UNL     1      17.071   3.462  51.802  1.00  0.00     0.020 A 
HETATM   18  C15 UNL     1      15.978   4.277  51.535  1.00  0.00     0.001 A 
HETATM   19  C16 UNL     1      15.665   4.387  50.198  1.00  0.00     0.003 A 
HETATM   20  C17 UNL     1      16.286   3.805  49.114  1.00  0.00     0.038 A 
HETATM   21  C18 UNL     1      17.364   3.006  49.432  1.00  0.00     0.090 A 
HETATM   22  O2  UNL     1      18.088   2.356  48.443  1.00  0.00    -0.322 OA
HETATM   23  C19 UNL     1      19.468   2.399  48.544  1.00  0.00     0.142 C 
HETATM   24  C20 UNL     1      20.229   3.436  48.792  1.00  0.00     0.026 C 
HETATM   25  C21 UNL     1      20.237   4.844  49.060  1.00  0.00     0.021 C 
HETATM   26  C22 UNL     1      20.982   5.900  49.311  1.00  0.00     0.116 C 
HETATM   27  N5  UNL     1      22.387   5.983  49.425  1.00  0.00    -0.277 NA
HETATM   28  C23 UNL     1      23.069   6.308  48.380  1.00  0.00     0.091 C 
HETATM   29  C24 UNL     1      24.558   6.459  48.259  1.00  0.00     0.086 C 
HETATM   30  H9  UNL     1      24.969   1.410  53.557  1.00  0.00     0.166 HD
HETATM   31  H14 UNL     1      19.472   0.175  50.530  1.00  0.00     0.169 HD
ENDROOT
BRANCH   1  32
HETATM   32  N1  UNL     1      26.558   6.719  49.592  1.00  0.00     0.087 N 
HETATM   33  C1  UNL     1      27.129   5.658  48.762  1.00  0.00     0.307 C 
HETATM   34  H4  UNL     1      26.955   6.579  50.546  1.00  0.00     0.316 HD
ENDBRANCH   1  32
TORSDOF 1
ENDMDL
