MODEL 1
REMARK VINA RESULT:      -8.7      0.000      0.000
REMARK  1 active torsions:
REMARK  status: ('A' for Active; 'I' for Inactive)
REMARK    1  A    between atoms: C2_2  and  N1_3 
ROOT
HETATM    1  N1  UNL     1      28.587   0.608  53.828  1.00  0.00    -0.324 N 
HETATM    2  C3  UNL     1      29.017   1.879  53.566  1.00  0.00     0.212 A 
HETATM    3  N2  UNL     1      28.015   2.599  52.980  1.00  0.00    -0.236 NA
HETATM    4  C4  UNL     1      26.989   1.758  52.894  1.00  0.00     0.151 A 
HETATM    5  C5  UNL     1      25.708   1.876  52.406  1.00  0.00     0.179 A 
HETATM    6  N3  UNL     1      24.854   0.853  52.439  1.00  0.00    -0.043 NA
HETATM    7  C6  UNL     1      25.216  -0.314  52.946  1.00  0.00     0.726 A 
HETATM    8  N4  UNL     1      26.428  -0.535  53.443  1.00  0.00    -0.042 NA
HETATM    9  C7  UNL     1      27.325   0.503  53.420  1.00  0.00     0.182 A 
HETATM   10  N5  UNL     1      23.967  -0.898  52.704  1.00  0.00    -0.216 N 
HETATM   11  C8  UNL     1      22.606  -0.637  53.084  1.00  0.00     0.124 C 
HETATM   12  C9  UNL     1      22.260  -1.098  54.468  1.00  0.00     0.028 C 
HETATM   13  C10 UNL     1      20.786  -1.445  54.452  1.00  0.00     0.002 C 
HETATM   14  C11 UNL     1      20.140  -0.372  53.565  1.00  0.00     0.002 C 
HETATM   15  C12 UNL     1      20.873   0.942  53.722  1.00  0.00     0.029 C 
HETATM   16  C13 UNL     1      22.225   0.878  52.952  1.00  0.00     0.132 C 
HETATM   17  N6  UNL     1      21.851   0.995  51.659  1.00  0.00    -0.280 NA
HETATM   18  C14 UNL     1      20.998   1.858  51.275  1.00  0.00     0.080 C 
HETATM   19  C15 UNL     1      21.400   3.070  51.553  1.00  0.00     0.035 C 
HETATM   20  C16 UNL     1      22.672   3.254  52.297  1.00  0.00     0.019 C 
HETATM   21  C17 UNL     1      23.902   3.145  51.818  1.00  0.00     0.090 C 
HETATM   22  N7  UNL     1      25.325   3.163  51.867  1.00  0.00    -0.348 N 
HETATM   23  H7  UNL     1      24.348  -1.665  52.104  1.00  0.00     0.178 HD
HETATM   24  H21 UNL     1      25.962   3.922  51.586  1.00  0.00     0.167 HD
ENDROOT
BRANCH   1  25
HETATM   25  C2  UNL     1      29.296  -0.494  54.436  1.00  0.00     0.127 C 
HETATM   26  C1  UNL     1      29.809  -1.507  53.452  1.00  0.00     0.027 C 
ENDBRANCH   1  25
TORSDOF 1
ENDMDL
MODEL 2
REMARK VINA RESULT:      -8.2      1.514      3.860
REMARK  1 active torsions:
REMARK  status: ('A' for Active; 'I' for Inactive)
REMARK    1  A    between atoms: C2_2  and  N1_3 
ROOT
HETATM    1  N1  UNL     1      27.717   0.110  53.438  1.00  0.00    -0.324 N 
HETATM    2  C3  UNL     1      27.399  -1.218  53.365  1.00  0.00     0.212 A 
HETATM    3  N2  UNL     1      26.048  -1.366  53.226  1.00  0.00    -0.236 NA
HETATM    4  C4  UNL     1      25.562  -0.129  53.214  1.00  0.00     0.151 A 
HETATM    5  C5  UNL     1      24.292   0.387  53.103  1.00  0.00     0.179 A 
HETATM    6  N3  UNL     1      24.072   1.702  53.122  1.00  0.00    -0.043 NA
HETATM    7  C6  UNL     1      25.075   2.554  53.249  1.00  0.00     0.726 A 
HETATM    8  N4  UNL     1      26.339   2.162  53.363  1.00  0.00    -0.042 NA
HETATM    9  C7  UNL     1      26.592   0.814  53.347  1.00  0.00     0.182 A 
HETATM   10  N5  UNL     1      24.237   3.674  53.194  1.00  0.00    -0.216 N 
HETATM   11  C8  UNL     1      23.289   4.219  52.261  1.00  0.00     0.124 C 
HETATM   12  C9  UNL     1      23.916   4.959  51.117  1.00  0.00     0.028 C 
HETATM   13  C10 UNL     1      22.926   6.026  50.699  1.00  0.00     0.002 C 
HETATM   14  C11 UNL     1      21.552   5.356  50.822  1.00  0.00     0.002 C 
HETATM   15  C12 UNL     1      21.659   3.883  50.491  1.00  0.00     0.029 C 
HETATM   16  C13 UNL     1      22.322   3.130  51.681  1.00  0.00     0.132 C 
HETATM   17  N6  UNL     1      21.333   3.070  52.600  1.00  0.00    -0.280 NA
HETATM   18  C14 UNL     1      20.141   2.747  52.292  1.00  0.00     0.080 C 
HETATM   19  C15 UNL     1      20.099   1.551  51.769  1.00  0.00     0.035 C 
HETATM   20  C16 UNL     1      21.372   0.817  51.550  1.00  0.00     0.019 C 
HETATM   21  C17 UNL     1      22.107   0.201  52.462  1.00  0.00     0.090 C 
HETATM   22  N7  UNL     1      23.208  -0.559  52.953  1.00  0.00    -0.348 N 
HETATM   23  H7  UNL     1      24.532   4.045  54.126  1.00  0.00     0.178 HD
HETATM   24  H21 UNL     1      23.244  -1.567  53.159  1.00  0.00     0.167 HD
ENDROOT
BRANCH   1  25
HETATM   25  C2  UNL     1      29.010   0.737  53.587  1.00  0.00     0.127 C 
HETATM   26  C1  UNL     1      30.163  -0.227  53.565  1.00  0.00     0.027 C 
ENDBRANCH   1  25
TORSDOF 1
ENDMDL
MODEL 3
REMARK VINA RESULT:      -8.1      3.093      6.334
REMARK  1 active torsions:
REMARK  status: ('A' for Active; 'I' for Inactive)
REMARK    1  A    between atoms: C2_2  and  N1_3 
ROOT
HETATM    1  N1  UNL     1      21.625   0.059  53.067  1.00  0.00    -0.324 N 
HETATM    2  C3  UNL     1      20.287   0.336  53.042  1.00  0.00     0.212 A 
HETATM    3  N2  UNL     1      20.085   1.634  52.668  1.00  0.00    -0.236 NA
HETATM    4  C4  UNL     1      21.302   2.131  52.469  1.00  0.00     0.151 A 
HETATM    5  C5  UNL     1      21.768   3.366  52.085  1.00  0.00     0.179 A 
HETATM    6  N3  UNL     1      23.073   3.609  51.959  1.00  0.00    -0.043 NA
HETATM    7  C6  UNL     1      23.964   2.662  52.200  1.00  0.00     0.726 A 
HETATM    8  N4  UNL     1      23.622   1.435  52.576  1.00  0.00    -0.042 NA
HETATM    9  C7  UNL     1      22.284   1.160  52.714  1.00  0.00     0.182 A 
HETATM   10  N5  UNL     1      25.050   3.494  51.903  1.00  0.00    -0.216 N 
HETATM   11  C8  UNL     1      25.493   4.261  50.771  1.00  0.00     0.124 C 
HETATM   12  C9  UNL     1      26.165   3.445  49.707  1.00  0.00     0.028 C 
HETATM   13  C10 UNL     1      27.165   4.357  49.031  1.00  0.00     0.002 C 
HETATM   14  C11 UNL     1      26.463   5.720  48.952  1.00  0.00     0.002 C 
HETATM   15  C12 UNL     1      24.974   5.527  48.763  1.00  0.00     0.029 C 
HETATM   16  C13 UNL     1      24.334   5.084  50.112  1.00  0.00     0.132 C 
HETATM   17  N6  UNL     1      24.311   6.226  50.834  1.00  0.00    -0.280 NA
HETATM   18  C14 UNL     1      23.929   7.334  50.339  1.00  0.00     0.080 C 
HETATM   19  C15 UNL     1      22.696   7.257  49.913  1.00  0.00     0.035 C 
HETATM   20  C16 UNL     1      21.988   5.953  49.991  1.00  0.00     0.019 C 
HETATM   21  C17 UNL     1      21.465   5.390  51.070  1.00  0.00     0.090 C 
HETATM   22  N7  UNL     1      20.780   4.387  51.814  1.00  0.00    -0.348 N 
HETATM   23  H7  UNL     1      25.498   3.385  52.841  1.00  0.00     0.178 HD
HETATM   24  H21 UNL     1      19.792   4.373  52.102  1.00  0.00     0.167 HD
ENDROOT
BRANCH   1  25
HETATM   25  C2  UNL     1      22.302  -1.172  53.401  1.00  0.00     0.127 C 
HETATM   26  C1  UNL     1      22.559  -1.348  54.871  1.00  0.00     0.027 C 
ENDBRANCH   1  25
TORSDOF 1
ENDMDL
MODEL 4
REMARK VINA RESULT:      -7.9      4.164      5.957
REMARK  1 active torsions:
REMARK  status: ('A' for Active; 'I' for Inactive)
REMARK    1  A    between atoms: C2_2  and  N1_3 
ROOT
HETATM    1  N1  UNL     1      28.590   6.964  48.056  1.00  0.00    -0.324 N 
HETATM    2  C3  UNL     1      28.000   8.196  48.120  1.00  0.00     0.212 A 
HETATM    3  N2  UNL     1      26.761   8.091  48.686  1.00  0.00    -0.236 NA
HETATM    4  C4  UNL     1      26.613   6.799  48.959  1.00  0.00     0.151 A 
HETATM    5  C5  UNL     1      25.599   6.063  49.527  1.00  0.00     0.179 A 
HETATM    6  N3  UNL     1      25.705   4.743  49.690  1.00  0.00    -0.043 NA
HETATM    7  C6  UNL     1      26.796   4.100  49.309  1.00  0.00     0.726 A 
HETATM    8  N4  UNL     1      27.833   4.714  48.752  1.00  0.00    -0.042 NA
HETATM    9  C7  UNL     1      27.748   6.072  48.572  1.00  0.00     0.182 A 
HETATM   10  N5  UNL     1      26.307   2.858  49.731  1.00  0.00    -0.216 N 
HETATM   11  C8  UNL     1      25.847   2.286  50.966  1.00  0.00     0.124 C 
HETATM   12  C9  UNL     1      26.950   1.873  51.896  1.00  0.00     0.028 C 
HETATM   13  C10 UNL     1      26.419   0.708  52.704  1.00  0.00     0.002 C 
HETATM   14  C11 UNL     1      24.953   1.062  52.987  1.00  0.00     0.002 C 
HETATM   15  C12 UNL     1      24.801   2.560  53.142  1.00  0.00     0.029 C 
HETATM   16  C13 UNL     1      24.871   3.236  51.741  1.00  0.00     0.132 C 
HETATM   17  N6  UNL     1      23.665   2.953  51.200  1.00  0.00    -0.280 NA
HETATM   18  C14 UNL     1      22.582   3.075  51.857  1.00  0.00     0.080 C 
HETATM   19  C15 UNL     1      22.415   4.305  52.264  1.00  0.00     0.035 C 
HETATM   20  C16 UNL     1      23.480   5.304  51.988  1.00  0.00     0.019 C 
HETATM   21  C17 UNL     1      23.734   5.906  50.836  1.00  0.00     0.090 C 
HETATM   22  N7  UNL     1      24.418   6.784  49.948  1.00  0.00    -0.348 N 
HETATM   23  H7  UNL     1      26.385   2.414  48.788  1.00  0.00     0.178 HD
HETATM   24  H21 UNL     1      24.148   7.735  49.660  1.00  0.00     0.167 HD
ENDROOT
BRANCH   1  25
HETATM   25  C2  UNL     1      29.887   6.593  47.540  1.00  0.00     0.127 C 
HETATM   26  C1  UNL     1      31.012   6.792  48.515  1.00  0.00     0.027 C 
ENDBRANCH   1  25
TORSDOF 1
ENDMDL
MODEL 5
REMARK VINA RESULT:      -7.9      2.587      6.194
REMARK  1 active torsions:
REMARK  status: ('A' for Active; 'I' for Inactive)
REMARK    1  A    between atoms: C2_2  and  N1_3 
ROOT
HETATM    1  N1  UNL     1      24.432   5.987  49.146  1.00  0.00    -0.324 N 
HETATM    2  C3  UNL     1      23.068   6.068  49.195  1.00  0.00     0.212 A 
HETATM    3  N2  UNL     1      22.557   4.968  49.822  1.00  0.00    -0.236 NA
HETATM    4  C4  UNL     1      23.614   4.232  50.148  1.00  0.00     0.151 A 
HETATM    5  C5  UNL     1      23.765   3.024  50.789  1.00  0.00     0.179 A 
HETATM    6  N3  UNL     1      24.969   2.491  50.995  1.00  0.00    -0.043 NA
HETATM    7  C6  UNL     1      26.063   3.112  50.586  1.00  0.00     0.726 A 
HETATM    8  N4  UNL     1      26.030   4.282  49.958  1.00  0.00    -0.042 NA
HETATM    9  C7  UNL     1      24.802   4.851  49.734  1.00  0.00     0.182 A 
HETATM   10  N5  UNL     1      26.912   2.112  51.074  1.00  0.00    -0.216 N 
HETATM   11  C8  UNL     1      27.180   1.507  52.350  1.00  0.00     0.124 C 
HETATM   12  C9  UNL     1      28.065   2.327  53.240  1.00  0.00     0.028 C 
HETATM   13  C10 UNL     1      28.823   1.350  54.114  1.00  0.00     0.002 C 
HETATM   14  C11 UNL     1      27.802   0.255  54.454  1.00  0.00     0.002 C 
HETATM   15  C12 UNL     1      26.416   0.852  54.562  1.00  0.00     0.029 C 
HETATM   16  C13 UNL     1      25.869   1.156  53.136  1.00  0.00     0.132 C 
HETATM   17  N6  UNL     1      25.539  -0.066  52.663  1.00  0.00    -0.280 NA
HETATM   18  C14 UNL     1      24.904  -0.916  53.366  1.00  0.00     0.080 C 
HETATM   19  C15 UNL     1      23.743  -0.445  53.735  1.00  0.00     0.035 C 
HETATM   20  C16 UNL     1      23.385   0.951  53.374  1.00  0.00     0.019 C 
HETATM   21  C17 UNL     1      22.990   1.395  52.191  1.00  0.00     0.090 C 
HETATM   22  N7  UNL     1      22.559   2.364  51.240  1.00  0.00    -0.348 N 
HETATM   23  H7  UNL     1      27.346   1.910  50.145  1.00  0.00     0.178 HD
HETATM   24  H21 UNL     1      21.598   2.568  50.931  1.00  0.00     0.167 HD
ENDROOT
BRANCH   1  25
HETATM   25  C2  UNL     1      25.388   6.912  48.583  1.00  0.00     0.127 C 
HETATM   26  C1  UNL     1      24.885   7.649  47.374  1.00  0.00     0.027 C 
ENDBRANCH   1  25
TORSDOF 1
ENDMDL
MODEL 6
REMARK VINA RESULT:      -7.9      8.707     10.766
REMARK  1 active torsions:
REMARK  status: ('A' for Active; 'I' for Inactive)
REMARK    1  A    between atoms: C2_2  and  N1_3 
ROOT
HETATM    1  N1  UNL     1      33.501   5.068  47.889  1.00  0.00    -0.324 N 
HETATM    2  C3  UNL     1      32.835   3.984  47.389  1.00  0.00     0.212 A 
HETATM    3  N2  UNL     1      31.486   4.167  47.512  1.00  0.00    -0.236 NA
HETATM    4  C4  UNL     1      31.349   5.359  48.083  1.00  0.00     0.151 A 
HETATM    5  C5  UNL     1      30.258   6.105  48.466  1.00  0.00     0.179 A 
HETATM    6  N3  UNL     1      30.399   7.303  49.034  1.00  0.00    -0.043 NA
HETATM    7  C6  UNL     1      31.600   7.813  49.246  1.00  0.00     0.726 A 
HETATM    8  N4  UNL     1      32.718   7.178  48.915  1.00  0.00    -0.042 NA
HETATM    9  C7  UNL     1      32.600   5.943  48.329  1.00  0.00     0.182 A 
HETATM   10  N5  UNL     1      31.089   8.987  49.813  1.00  0.00    -0.216 N 
HETATM   11  C8  UNL     1      30.209  10.045  49.397  1.00  0.00     0.124 C 
HETATM   12  C9  UNL     1      30.859  11.067  48.512  1.00  0.00     0.028 C 
HETATM   13  C10 UNL     1      30.143  12.376  48.767  1.00  0.00     0.002 C 
HETATM   14  C11 UNL     1      28.667  11.991  48.932  1.00  0.00     0.002 C 
HETATM   15  C12 UNL     1      28.337  10.807  48.049  1.00  0.00     0.029 C 
HETATM   16  C13 UNL     1      28.922   9.509  48.680  1.00  0.00     0.132 C 
HETATM   17  N6  UNL     1      28.078   9.254  49.704  1.00  0.00    -0.280 NA
HETATM   18  C14 UNL     1      26.814   9.324  49.574  1.00  0.00     0.080 C 
HETATM   19  C15 UNL     1      26.390   8.494  48.658  1.00  0.00     0.035 C 
HETATM   20  C16 UNL     1      27.384   7.696  47.895  1.00  0.00     0.019 C 
HETATM   21  C17 UNL     1      28.039   6.624  48.312  1.00  0.00     0.090 C 
HETATM   22  N7  UNL     1      28.952   5.535  48.215  1.00  0.00    -0.348 N 
HETATM   23  H7  UNL     1      31.587   8.864  50.723  1.00  0.00     0.178 HD
HETATM   24  H21 UNL     1      28.745   4.548  48.007  1.00  0.00     0.167 HD
ENDROOT
BRANCH   1  25
HETATM   25  C2  UNL     1      34.921   5.315  47.970  1.00  0.00     0.127 C 
HETATM   26  C1  UNL     1      35.455   5.355  49.374  1.00  0.00     0.027 C 
ENDBRANCH   1  25
TORSDOF 1
ENDMDL
MODEL 7
REMARK VINA RESULT:      -7.8      2.370      5.123
REMARK  1 active torsions:
REMARK  status: ('A' for Active; 'I' for Inactive)
REMARK    1  A    between atoms: C2_2  and  N1_3 
ROOT
HETATM    1  N1  UNL     1      25.269   5.447  49.157  1.00  0.00    -0.324 N 
HETATM    2  C3  UNL     1      26.552   5.199  48.755  1.00  0.00     0.212 A 
HETATM    3  N2  UNL     1      27.075   4.165  49.478  1.00  0.00    -0.236 NA
HETATM    4  C4  UNL     1      26.105   3.795  50.307  1.00  0.00     0.151 A 
HETATM    5  C5  UNL     1      26.008   2.824  51.276  1.00  0.00     0.179 A 
HETATM    6  N3  UNL     1      24.892   2.659  51.987  1.00  0.00    -0.043 NA
HETATM    7  C6  UNL     1      23.837   3.430  51.778  1.00  0.00     0.726 A 
HETATM    8  N4  UNL     1      23.824   4.396  50.868  1.00  0.00    -0.042 NA
HETATM    9  C7  UNL     1      24.962   4.586  50.124  1.00  0.00     0.182 A 
HETATM   10  N5  UNL     1      23.072   2.786  52.759  1.00  0.00    -0.216 N 
HETATM   11  C8  UNL     1      22.617   1.447  53.009  1.00  0.00     0.124 C 
HETATM   12  C9  UNL     1      21.427   1.044  52.190  1.00  0.00     0.028 C 
HETATM   13  C10 UNL     1      20.656   0.035  53.016  1.00  0.00     0.002 C 
HETATM   14  C11 UNL     1      21.734  -0.817  53.700  1.00  0.00     0.002 C 
HETATM   15  C12 UNL     1      22.941  -0.952  52.798  1.00  0.00     0.029 C 
HETATM   16  C13 UNL     1      23.747   0.380  52.807  1.00  0.00     0.132 C 
HETATM   17  N6  UNL     1      24.372   0.356  54.004  1.00  0.00    -0.280 NA
HETATM   18  C14 UNL     1      24.956  -0.686  54.444  1.00  0.00     0.080 C 
HETATM   19  C15 UNL     1      25.907  -1.068  53.633  1.00  0.00     0.035 C 
HETATM   20  C16 UNL     1      26.108  -0.329  52.360  1.00  0.00     0.019 C 
HETATM   21  C17 UNL     1      26.689   0.850  52.204  1.00  0.00     0.090 C 
HETATM   22  N7  UNL     1      27.166   1.982  51.483  1.00  0.00    -0.348 N 
HETATM   23  H7  UNL     1      22.905   3.655  53.316  1.00  0.00     0.178 HD
HETATM   24  H21 UNL     1      28.126   2.175  51.164  1.00  0.00     0.167 HD
ENDROOT
BRANCH   1  25
HETATM   25  C2  UNL     1      24.333   6.439  48.680  1.00  0.00     0.127 C 
HETATM   26  C1  UNL     1      23.325   5.907  47.700  1.00  0.00     0.027 C 
ENDBRANCH   1  25
TORSDOF 1
ENDMDL
MODEL 8
REMARK VINA RESULT:      -7.7      2.472      4.603
REMARK  1 active torsions:
REMARK  status: ('A' for Active; 'I' for Inactive)
REMARK    1  A    between atoms: C2_2  and  N1_3 
ROOT
HETATM    1  N1  UNL     1      25.621   4.261  49.853  1.00  0.00    -0.324 N 
HETATM    2  C3  UNL     1      26.803   3.612  50.082  1.00  0.00     0.212 A 
HETATM    3  N2  UNL     1      26.622   2.626  51.010  1.00  0.00    -0.236 NA
HETATM    4  C4  UNL     1      25.334   2.686  51.333  1.00  0.00     0.151 A 
HETATM    5  C5  UNL     1      24.542   1.969  52.201  1.00  0.00     0.179 A 
HETATM    6  N3  UNL     1      23.244   2.240  52.342  1.00  0.00    -0.043 NA
HETATM    7  C6  UNL     1      22.676   3.211  51.647  1.00  0.00     0.726 A 
HETATM    8  N4  UNL     1      23.348   3.963  50.783  1.00  0.00    -0.042 NA
HETATM    9  C7  UNL     1      24.686   3.704  50.620  1.00  0.00     0.182 A 
HETATM   10  N5  UNL     1      21.414   2.984  52.210  1.00  0.00    -0.216 N 
HETATM   11  C8  UNL     1      20.495   1.883  52.293  1.00  0.00     0.124 C 
HETATM   12  C9  UNL     1      19.688   1.667  51.047  1.00  0.00     0.028 C 
HETATM   13  C10 UNL     1      18.368   1.068  51.486  1.00  0.00     0.002 C 
HETATM   14  C11 UNL     1      18.734   0.102  52.620  1.00  0.00     0.002 C 
HETATM   15  C12 UNL     1      20.093  -0.512  52.362  1.00  0.00     0.029 C 
HETATM   16  C13 UNL     1      21.203   0.536  52.669  1.00  0.00     0.132 C 
HETATM   17  N6  UNL     1      21.236   0.567  54.019  1.00  0.00    -0.280 NA
HETATM   18  C14 UNL     1      21.221  -0.494  54.722  1.00  0.00     0.080 C 
HETATM   19  C15 UNL     1      22.244  -1.256  54.443  1.00  0.00     0.035 C 
HETATM   20  C16 UNL     1      23.176  -0.842  53.362  1.00  0.00     0.019 C 
HETATM   21  C17 UNL     1      24.112   0.091  53.427  1.00  0.00     0.090 C 
HETATM   22  N7  UNL     1      25.178   0.904  52.944  1.00  0.00    -0.348 N 
HETATM   23  H7  UNL     1      21.318   3.953  52.592  1.00  0.00     0.178 HD
HETATM   24  H21 UNL     1      26.190   0.773  53.081  1.00  0.00     0.167 HD
ENDROOT
BRANCH   1  25
HETATM   25  C2  UNL     1      25.335   5.360  48.962  1.00  0.00     0.127 C 
HETATM   26  C1  UNL     1      26.533   6.203  48.627  1.00  0.00     0.027 C 
ENDBRANCH   1  25
TORSDOF 1
ENDMDL
MODEL 9
REMARK VINA RESULT:      -7.5      3.849      6.183
REMARK  1 active torsions:
REMARK  status: ('A' for Active; 'I' for Inactive)
REMARK    1  A    between atoms: C2_2  and  N1_3 
ROOT
HETATM    1  N1  UNL     1      25.307   1.319  52.419  1.00  0.00    -0.324 N 
HETATM    2  C3  UNL     1      26.668   1.218  52.326  1.00  0.00     0.212 A 
HETATM    3  N2  UNL     1      27.142   2.130  51.427  1.00  0.00    -0.236 NA
HETATM    4  C4  UNL     1      26.066   2.775  50.986  1.00  0.00     0.151 A 
HETATM    5  C5  UNL     1      25.879   3.793  50.080  1.00  0.00     0.179 A 
HETATM    6  N3  UNL     1      24.663   4.269  49.810  1.00  0.00    -0.043 NA
HETATM    7  C6  UNL     1      23.594   3.772  50.410  1.00  0.00     0.726 A 
HETATM    8  N4  UNL     1      23.663   2.789  51.300  1.00  0.00    -0.042 NA
HETATM    9  C7  UNL     1      24.904   2.282  51.595  1.00  0.00     0.182 A 
HETATM   10  N5  UNL     1      22.719   4.639  49.745  1.00  0.00    -0.216 N 
HETATM   11  C8  UNL     1      22.556   6.062  49.625  1.00  0.00     0.124 C 
HETATM   12  C9  UNL     1      21.876   6.700  50.799  1.00  0.00     0.028 C 
HETATM   13  C10 UNL     1      21.142   7.912  50.268  1.00  0.00     0.002 C 
HETATM   14  C11 UNL     1      22.083   8.509  49.212  1.00  0.00     0.002 C 
HETATM   15  C12 UNL     1      23.525   8.290  49.618  1.00  0.00     0.029 C 
HETATM   16  C13 UNL     1      23.913   6.803  49.370  1.00  0.00     0.132 C 
HETATM   17  N6  UNL     1      24.058   6.739  48.029  1.00  0.00    -0.280 NA
HETATM   18  C14 UNL     1      24.689   7.627  47.371  1.00  0.00     0.080 C 
HETATM   19  C15 UNL     1      25.929   7.716  47.774  1.00  0.00     0.035 C 
HETATM   20  C16 UNL     1      26.376   6.879  48.917  1.00  0.00     0.019 C 
HETATM   21  C17 UNL     1      26.659   5.586  48.899  1.00  0.00     0.090 C 
HETATM   22  N7  UNL     1      27.060   4.332  49.443  1.00  0.00    -0.348 N 
HETATM   23  H7  UNL     1      22.152   3.872  49.317  1.00  0.00     0.178 HD
HETATM   24  H21 UNL     1      27.989   3.890  49.404  1.00  0.00     0.167 HD
ENDROOT
BRANCH   1  25
HETATM   25  C2  UNL     1      24.385   0.564  53.235  1.00  0.00     0.127 C 
HETATM   26  C1  UNL     1      25.037  -0.510  54.060  1.00  0.00     0.027 C 
ENDBRANCH   1  25
TORSDOF 1
ENDMDL
