MODEL 1
REMARK VINA RESULT:      -8.9      0.000      0.000
REMARK  5 active torsions:
REMARK  status: ('A' for Active; 'I' for Inactive)
REMARK    1  A    between atoms: N1_5  and  C5_6 
REMARK    2  A    between atoms: C5_6  and  C6_7 
REMARK    3  A    between atoms: C10_14  and  N5_15 
REMARK    4  A    between atoms: N5_15  and  C11_16 
REMARK    5  A    between atoms: C20_27  and  N8_28 
ROOT
HETATM    1  C6  UNL     1      23.742   3.231  49.871  1.00  0.00     0.004 A 
HETATM    2  C7  UNL     1      23.152   3.348  48.624  1.00  0.00     0.030 A 
HETATM    3  C8  UNL     1      22.113   2.430  48.485  1.00  0.00     0.119 A 
HETATM    4  N2  UNL     1      22.091   1.779  49.640  1.00  0.00    -0.240 N 
HETATM    5  N3  UNL     1      21.225   0.808  49.911  1.00  0.00    -0.161 NA
HETATM    6  C9  UNL     1      21.248   0.187  51.100  1.00  0.00     0.258 A 
HETATM    7  N4  UNL     1      22.177   0.606  51.960  1.00  0.00    -0.220 NA
HETATM    8  C10 UNL     1      23.057   1.584  51.697  1.00  0.00     0.159 A 
HETATM    9  C19 UNL     1      23.040   2.224  50.487  1.00  0.00     0.112 A 
ENDROOT
BRANCH   8  10
HETATM   10  N5  UNL     1      24.004   1.962  52.680  1.00  0.00    -0.339 N 
HETATM   11  H14 UNL     1      24.005   2.710  53.387  1.00  0.00     0.167 HD
BRANCH  10  12
HETATM   12  C11 UNL     1      25.262   1.326  52.899  1.00  0.00     0.034 A 
HETATM   13  C12 UNL     1      26.448   1.909  53.297  1.00  0.00     0.032 A 
HETATM   14  C13 UNL     1      27.651   1.275  53.489  1.00  0.00     0.034 A 
HETATM   15  C14 UNL     1      27.700  -0.068  53.269  1.00  0.00     0.064 A 
HETATM   16  C15 UNL     1      26.570  -0.721  52.873  1.00  0.00     0.013 A 
HETATM   17  N7  UNL     1      28.741  -0.927  53.382  1.00  0.00    -0.274 N 
HETATM   18  C16 UNL     1      27.009  -2.047  52.753  1.00  0.00     0.152 A 
HETATM   19  C18 UNL     1      25.386  -0.044  52.692  1.00  0.00     0.044 A 
HETATM   20  N6  UNL     1      28.321  -2.139  53.066  1.00  0.00    -0.184 NA
HETATM   21  C17 UNL     1      30.092  -0.656  53.767  1.00  0.00     0.180 C 
ENDBRANCH  10  12
ENDBRANCH   8  10
BRANCH   1  22
HETATM   22  C5  UNL     1      24.885   3.987  50.442  1.00  0.00     0.316 C 
BRANCH  22  23
HETATM   23  N1  UNL     1      25.525   4.701  49.373  1.00  0.00     0.115 N 
HETATM   24  C4  UNL     1      26.930   4.535  49.242  1.00  0.00     0.276 C 
HETATM   25  C3  UNL     1      27.394   5.744  48.440  1.00  0.00     0.038 C 
HETATM   26  C2  UNL     1      26.129   6.575  48.231  1.00  0.00     0.036 C 
HETATM   27  C1  UNL     1      26.400   8.058  48.222  1.00  0.00     0.014 C 
HETATM   28  C20 UNL     1      25.359   6.134  49.479  1.00  0.00     0.319 C 
BRANCH  28  29
HETATM   29  N8  UNL     1      26.071   6.649  50.589  1.00  0.00    -0.402 N 
HETATM   30  H23 UNL     1      26.282   6.047  51.377  1.00  0.00     0.152 HD
HETATM   31  H24 UNL     1      25.751   7.579  50.932  1.00  0.00     0.152 HD
ENDBRANCH  28  29
ENDBRANCH  22  23
ENDBRANCH   1  22
TORSDOF 5
ENDMDL
MODEL 2
REMARK VINA RESULT:      -8.6      1.487      6.568
REMARK  5 active torsions:
REMARK  status: ('A' for Active; 'I' for Inactive)
REMARK    1  A    between atoms: N1_5  and  C5_6 
REMARK    2  A    between atoms: C5_6  and  C6_7 
REMARK    3  A    between atoms: C10_14  and  N5_15 
REMARK    4  A    between atoms: N5_15  and  C11_16 
REMARK    5  A    between atoms: C20_27  and  N8_28 
ROOT
HETATM    1  C6  UNL     1      23.445   1.110  52.483  1.00  0.00     0.004 A 
HETATM    2  C7  UNL     1      22.406   0.212  52.658  1.00  0.00     0.030 A 
HETATM    3  C8  UNL     1      21.565   0.213  51.546  1.00  0.00     0.119 A 
HETATM    4  N2  UNL     1      22.105   1.104  50.725  1.00  0.00    -0.240 N 
HETATM    5  N3  UNL     1      21.593   1.399  49.535  1.00  0.00    -0.161 NA
HETATM    6  C9  UNL     1      22.187   2.307  48.745  1.00  0.00     0.258 A 
HETATM    7  N4  UNL     1      23.293   2.871  49.231  1.00  0.00    -0.220 NA
HETATM    8  C10 UNL     1      23.817   2.582  50.431  1.00  0.00     0.159 A 
HETATM    9  C19 UNL     1      23.219   1.656  51.244  1.00  0.00     0.112 A 
ENDROOT
BRANCH   8  10
HETATM   10  N5  UNL     1      25.001   3.232  50.858  1.00  0.00    -0.339 N 
HETATM   11  H14 UNL     1      25.533   3.191  51.738  1.00  0.00     0.167 HD
BRANCH  10  12
HETATM   12  C11 UNL     1      25.754   4.165  50.085  1.00  0.00     0.034 A 
HETATM   13  C12 UNL     1      26.886   3.923  49.333  1.00  0.00     0.032 A 
HETATM   14  C13 UNL     1      27.601   4.843  48.606  1.00  0.00     0.034 A 
HETATM   15  C14 UNL     1      27.166   6.133  48.615  1.00  0.00     0.064 A 
HETATM   16  C15 UNL     1      26.053   6.457  49.336  1.00  0.00     0.013 A 
HETATM   17  N7  UNL     1      27.674   7.224  47.996  1.00  0.00    -0.274 N 
HETATM   18  C16 UNL     1      25.928   7.833  49.104  1.00  0.00     0.152 A 
HETATM   19  C18 UNL     1      25.368   5.500  50.050  1.00  0.00     0.044 A 
HETATM   20  N6  UNL     1      26.920   8.267  48.293  1.00  0.00    -0.184 NA
HETATM   21  C17 UNL     1      28.825   7.322  47.151  1.00  0.00     0.180 C 
ENDBRANCH  10  12
ENDBRANCH   8  10
BRANCH   1  22
HETATM   22  C5  UNL     1      24.556   1.447  53.408  1.00  0.00     0.316 C 
BRANCH  22  23
HETATM   23  N1  UNL     1      25.722   0.722  52.986  1.00  0.00     0.115 N 
HETATM   24  C4  UNL     1      25.664  -0.694  53.075  1.00  0.00     0.276 C 
HETATM   25  C3  UNL     1      27.119  -1.146  53.088  1.00  0.00     0.038 C 
HETATM   26  C2  UNL     1      27.925   0.152  53.069  1.00  0.00     0.036 C 
HETATM   27  C1  UNL     1      29.210   0.053  53.849  1.00  0.00     0.014 C 
HETATM   28  C20 UNL     1      26.901   1.065  53.751  1.00  0.00     0.319 C 
BRANCH  28  29
HETATM   29  N8  UNL     1      26.791   0.610  55.087  1.00  0.00    -0.402 N 
HETATM   30  H23 UNL     1      26.516  -0.348  55.274  1.00  0.00     0.152 HD
HETATM   31  H24 UNL     1      26.291   1.253  55.737  1.00  0.00     0.152 HD
ENDBRANCH  28  29
ENDBRANCH  22  23
ENDBRANCH   1  22
TORSDOF 5
ENDMDL
MODEL 3
REMARK VINA RESULT:      -8.5      1.627      2.318
REMARK  5 active torsions:
REMARK  status: ('A' for Active; 'I' for Inactive)
REMARK    1  A    between atoms: N1_5  and  C5_6 
REMARK    2  A    between atoms: C5_6  and  C6_7 
REMARK    3  A    between atoms: C10_14  and  N5_15 
REMARK    4  A    between atoms: N5_15  and  C11_16 
REMARK    5  A    between atoms: C20_27  and  N8_28 
ROOT
HETATM    1  C6  UNL     1      22.597   2.052  50.178  1.00  0.00     0.004 A 
HETATM    2  C7  UNL     1      21.675   1.745  49.192  1.00  0.00     0.030 A 
HETATM    3  C8  UNL     1      20.646   0.961  49.710  1.00  0.00     0.119 A 
HETATM    4  N2  UNL     1      20.960   0.809  50.990  1.00  0.00    -0.240 N 
HETATM    5  N3  UNL     1      20.215   0.114  51.843  1.00  0.00    -0.161 NA
HETATM    6  C9  UNL     1      20.581  -0.003  53.128  1.00  0.00     0.258 A 
HETATM    7  N4  UNL     1      21.714   0.612  53.471  1.00  0.00    -0.220 NA
HETATM    8  C10 UNL     1      22.474   1.314  52.619  1.00  0.00     0.159 A 
HETATM    9  C19 UNL     1      22.108   1.439  51.305  1.00  0.00     0.112 A 
ENDROOT
BRANCH   8  10
HETATM   10  N5  UNL     1      23.660   1.936  53.080  1.00  0.00    -0.339 N 
HETATM   11  H14 UNL     1      23.853   2.887  53.422  1.00  0.00     0.167 HD
BRANCH  10  12
HETATM   12  C11 UNL     1      24.940   1.311  53.163  1.00  0.00     0.034 A 
HETATM   13  C12 UNL     1      25.242  -0.026  53.006  1.00  0.00     0.032 A 
HETATM   14  C13 UNL     1      26.484  -0.604  53.104  1.00  0.00     0.034 A 
HETATM   15  C14 UNL     1      27.539   0.208  53.385  1.00  0.00     0.064 A 
HETATM   16  C15 UNL     1      27.326   1.545  53.557  1.00  0.00     0.013 A 
HETATM   17  N7  UNL     1      28.851  -0.095  53.536  1.00  0.00    -0.274 N 
HETATM   18  C16 UNL     1      28.614   2.028  53.823  1.00  0.00     0.152 A 
HETATM   19  C18 UNL     1      26.063   2.081  53.449  1.00  0.00     0.044 A 
HETATM   20  N6  UNL     1      29.511   1.017  53.804  1.00  0.00    -0.184 NA
HETATM   21  C17 UNL     1      29.495  -1.369  53.439  1.00  0.00     0.180 C 
ENDBRANCH  10  12
ENDBRANCH   8  10
BRANCH   1  22
HETATM   22  C5  UNL     1      23.849   2.843  50.076  1.00  0.00     0.316 C 
BRANCH  22  23
HETATM   23  N1  UNL     1      23.493   4.221  49.895  1.00  0.00     0.115 N 
HETATM   24  C4  UNL     1      23.737   4.785  48.615  1.00  0.00     0.276 C 
HETATM   25  C3  UNL     1      23.778   6.290  48.850  1.00  0.00     0.038 C 
HETATM   26  C2  UNL     1      23.605   6.448  50.360  1.00  0.00     0.036 C 
HETATM   27  C1  UNL     1      24.373   7.619  50.916  1.00  0.00     0.014 C 
HETATM   28  C20 UNL     1      24.199   5.105  50.797  1.00  0.00     0.319 C 
BRANCH  28  29
HETATM   29  N8  UNL     1      25.578   5.158  50.482  1.00  0.00    -0.402 N 
HETATM   30  H23 UNL     1      26.051   4.328  50.142  1.00  0.00     0.152 HD
HETATM   31  H24 UNL     1      26.177   5.641  51.185  1.00  0.00     0.152 HD
ENDBRANCH  28  29
ENDBRANCH  22  23
ENDBRANCH   1  22
TORSDOF 5
ENDMDL
MODEL 4
REMARK VINA RESULT:      -8.4      1.903      6.566
REMARK  5 active torsions:
REMARK  status: ('A' for Active; 'I' for Inactive)
REMARK    1  A    between atoms: N1_5  and  C5_6 
REMARK    2  A    between atoms: C5_6  and  C6_7 
REMARK    3  A    between atoms: C10_14  and  N5_15 
REMARK    4  A    between atoms: N5_15  and  C11_16 
REMARK    5  A    between atoms: C20_27  and  N8_28 
ROOT
HETATM    1  C6  UNL     1      23.847  -0.227  53.465  1.00  0.00     0.004 A 
HETATM    2  C7  UNL     1      23.717  -0.931  54.649  1.00  0.00     0.030 A 
HETATM    3  C8  UNL     1      22.373  -1.173  54.930  1.00  0.00     0.119 A 
HETATM    4  N2  UNL     1      21.719  -0.616  53.919  1.00  0.00    -0.240 N 
HETATM    5  N3  UNL     1      20.394  -0.632  53.813  1.00  0.00    -0.161 NA
HETATM    6  C9  UNL     1      19.788  -0.056  52.765  1.00  0.00     0.258 A 
HETATM    7  N4  UNL     1      20.592   0.517  51.868  1.00  0.00    -0.220 NA
HETATM    8  C10 UNL     1      21.929   0.541  51.965  1.00  0.00     0.159 A 
HETATM    9  C19 UNL     1      22.557  -0.046  53.031  1.00  0.00     0.112 A 
ENDROOT
BRANCH   8  10
HETATM   10  N5  UNL     1      22.698   1.170  50.956  1.00  0.00    -0.339 N 
HETATM   11  H14 UNL     1      23.146   0.809  50.102  1.00  0.00     0.167 HD
BRANCH  10  12
HETATM   12  C11 UNL     1      23.041   2.554  50.924  1.00  0.00     0.034 A 
HETATM   13  C12 UNL     1      22.323   3.618  51.432  1.00  0.00     0.032 A 
HETATM   14  C13 UNL     1      22.670   4.945  51.377  1.00  0.00     0.034 A 
HETATM   15  C14 UNL     1      23.840   5.267  50.760  1.00  0.00     0.064 A 
HETATM   16  C15 UNL     1      24.610   4.274  50.229  1.00  0.00     0.013 A 
HETATM   17  N7  UNL     1      24.414   6.479  50.567  1.00  0.00    -0.274 N 
HETATM   18  C16 UNL     1      25.697   4.981  49.698  1.00  0.00     0.152 A 
HETATM   19  C18 UNL     1      24.221   2.956  50.308  1.00  0.00     0.044 A 
HETATM   20  N6  UNL     1      25.551   6.307  49.917  1.00  0.00    -0.184 NA
HETATM   21  C17 UNL     1      23.940   7.770  50.963  1.00  0.00     0.180 C 
ENDBRANCH  10  12
ENDBRANCH   8  10
BRANCH   1  22
HETATM   22  C5  UNL     1      25.080   0.256  52.793  1.00  0.00     0.316 C 
BRANCH  22  23
HETATM   23  N1  UNL     1      26.209  -0.211  53.546  1.00  0.00     0.115 N 
HETATM   24  C4  UNL     1      26.535   0.507  54.728  1.00  0.00     0.276 C 
HETATM   25  C3  UNL     1      27.992   0.164  55.007  1.00  0.00     0.038 C 
HETATM   26  C2  UNL     1      28.407  -0.730  53.839  1.00  0.00     0.036 C 
HETATM   27  C1  UNL     1      29.848  -0.541  53.443  1.00  0.00     0.014 C 
HETATM   28  C20 UNL     1      27.438  -0.188  52.783  1.00  0.00     0.319 C 
BRANCH  28  29
HETATM   29  N8  UNL     1      27.846   1.141  52.515  1.00  0.00    -0.402 N 
HETATM   30  H23 UNL     1      28.311   1.683  53.235  1.00  0.00     0.152 HD
HETATM   31  H24 UNL     1      27.141   1.734  52.029  1.00  0.00     0.152 HD
ENDBRANCH  28  29
ENDBRANCH  22  23
ENDBRANCH   1  22
TORSDOF 5
ENDMDL
MODEL 5
REMARK VINA RESULT:      -8.4      1.967      7.313
REMARK  5 active torsions:
REMARK  status: ('A' for Active; 'I' for Inactive)
REMARK    1  A    between atoms: N1_5  and  C5_6 
REMARK    2  A    between atoms: C5_6  and  C6_7 
REMARK    3  A    between atoms: C10_14  and  N5_15 
REMARK    4  A    between atoms: N5_15  and  C11_16 
REMARK    5  A    between atoms: C20_27  and  N8_28 
ROOT
HETATM    1  C6  UNL     1      25.321   0.254  53.397  1.00  0.00     0.004 A 
HETATM    2  C7  UNL     1      25.328  -0.263  54.681  1.00  0.00     0.030 A 
HETATM    3  C8  UNL     1      26.483   0.125  55.359  1.00  0.00     0.119 A 
HETATM    4  N2  UNL     1      27.149   0.862  54.481  1.00  0.00    -0.240 N 
HETATM    5  N3  UNL     1      28.321   1.428  54.749  1.00  0.00    -0.161 NA
HETATM    6  C9  UNL     1      28.947   2.168  53.822  1.00  0.00     0.258 A 
HETATM    7  N4  UNL     1      28.323   2.286  52.649  1.00  0.00    -0.220 NA
HETATM    8  C10 UNL     1      27.142   1.718  52.367  1.00  0.00     0.159 A 
HETATM    9  C19 UNL     1      26.494   0.962  53.308  1.00  0.00     0.112 A 
ENDROOT
BRANCH   8  10
HETATM   10  N5  UNL     1      26.556   1.906  51.091  1.00  0.00    -0.339 N 
HETATM   11  H14 UNL     1      26.328   1.249  50.332  1.00  0.00     0.167 HD
BRANCH  10  12
HETATM   12  C11 UNL     1      26.133   3.158  50.555  1.00  0.00     0.034 A 
HETATM   13  C12 UNL     1      26.708   3.877  49.527  1.00  0.00     0.032 A 
HETATM   14  C13 UNL     1      26.287   5.089  49.037  1.00  0.00     0.034 A 
HETATM   15  C14 UNL     1      25.192   5.658  49.611  1.00  0.00     0.064 A 
HETATM   16  C15 UNL     1      24.565   5.012  50.637  1.00  0.00     0.013 A 
HETATM   17  N7  UNL     1      24.574   6.829  49.329  1.00  0.00    -0.274 N 
HETATM   18  C16 UNL     1      23.516   5.886  50.952  1.00  0.00     0.152 A 
HETATM   19  C18 UNL     1      25.022   3.797  51.095  1.00  0.00     0.044 A 
HETATM   20  N6  UNL     1      23.547   6.972  50.147  1.00  0.00    -0.184 NA
HETATM   21  C17 UNL     1      24.907   7.803  48.334  1.00  0.00     0.180 C 
ENDBRANCH  10  12
ENDBRANCH   8  10
BRANCH   1  22
HETATM   22  C5  UNL     1      24.308   0.087  52.325  1.00  0.00     0.316 C 
BRANCH  22  23
HETATM   23  N1  UNL     1      23.018   0.384  52.882  1.00  0.00     0.115 N 
HETATM   24  C4  UNL     1      22.083  -0.683  52.940  1.00  0.00     0.276 C 
HETATM   25  C3  UNL     1      20.722  -0.007  53.051  1.00  0.00     0.038 C 
HETATM   26  C2  UNL     1      21.029   1.488  52.975  1.00  0.00     0.036 C 
HETATM   27  C1  UNL     1      19.946   2.271  52.278  1.00  0.00     0.014 C 
HETATM   28  C20 UNL     1      22.316   1.413  52.147  1.00  0.00     0.319 C 
BRANCH  28  29
HETATM   29  N8  UNL     1      21.936   0.954  50.863  1.00  0.00    -0.402 N 
HETATM   30  H23 UNL     1      21.592   1.612  50.172  1.00  0.00     0.152 HD
HETATM   31  H24 UNL     1      21.348   0.094  50.853  1.00  0.00     0.152 HD
ENDBRANCH  28  29
ENDBRANCH  22  23
ENDBRANCH   1  22
TORSDOF 5
ENDMDL
MODEL 6
REMARK VINA RESULT:      -8.3      2.468      4.094
REMARK  5 active torsions:
REMARK  status: ('A' for Active; 'I' for Inactive)
REMARK    1  A    between atoms: N1_5  and  C5_6 
REMARK    2  A    between atoms: C5_6  and  C6_7 
REMARK    3  A    between atoms: C10_14  and  N5_15 
REMARK    4  A    between atoms: N5_15  and  C11_16 
REMARK    5  A    between atoms: C20_27  and  N8_28 
ROOT
HETATM    1  C6  UNL     1      20.739   0.687  51.785  1.00  0.00     0.004 A 
HETATM    2  C7  UNL     1      19.412   0.333  51.958  1.00  0.00     0.030 A 
HETATM    3  C8  UNL     1      19.273  -0.535  53.040  1.00  0.00     0.119 A 
HETATM    4  N2  UNL     1      20.508  -0.689  53.499  1.00  0.00    -0.240 N 
HETATM    5  N3  UNL     1      20.804  -1.453  54.546  1.00  0.00    -0.161 NA
HETATM    6  C9  UNL     1      22.072  -1.568  54.968  1.00  0.00     0.258 A 
HETATM    7  N4  UNL     1      22.982  -0.879  54.278  1.00  0.00    -0.220 NA
HETATM    8  C10 UNL     1      22.695  -0.106  53.221  1.00  0.00     0.159 A 
HETATM    9  C19 UNL     1      21.404   0.018  52.783  1.00  0.00     0.112 A 
ENDROOT
BRANCH   8  10
HETATM   10  N5  UNL     1      23.733   0.591  52.556  1.00  0.00    -0.339 N 
HETATM   11  H14 UNL     1      23.720   1.309  51.818  1.00  0.00     0.167 HD
BRANCH  10  12
HETATM   12  C11 UNL     1      25.128   0.416  52.794  1.00  0.00     0.034 A 
HETATM   13  C12 UNL     1      25.853  -0.758  52.759  1.00  0.00     0.032 A 
HETATM   14  C13 UNL     1      27.197  -0.901  53.005  1.00  0.00     0.034 A 
HETATM   15  C14 UNL     1      27.905   0.218  53.318  1.00  0.00     0.064 A 
HETATM   16  C15 UNL     1      27.263   1.421  53.375  1.00  0.00     0.013 A 
HETATM   17  N7  UNL     1      29.222   0.360  53.603  1.00  0.00    -0.274 N 
HETATM   18  C16 UNL     1      28.296   2.303  53.717  1.00  0.00     0.152 A 
HETATM   19  C18 UNL     1      25.914   1.516  53.121  1.00  0.00     0.044 A 
HETATM   20  N6  UNL     1      29.464   1.635  53.848  1.00  0.00    -0.184 NA
HETATM   21  C17 UNL     1      30.242  -0.642  53.654  1.00  0.00     0.180 C 
ENDBRANCH  10  12
ENDBRANCH   8  10
BRANCH   1  22
HETATM   22  C5  UNL     1      21.347   1.569  50.757  1.00  0.00     0.316 C 
BRANCH  22  23
HETATM   23  N1  UNL     1      21.444   2.892  51.306  1.00  0.00     0.115 N 
HETATM   24  C4  UNL     1      20.528   3.860  50.815  1.00  0.00     0.276 C 
HETATM   25  C3  UNL     1      21.168   5.204  51.136  1.00  0.00     0.038 C 
HETATM   26  C2  UNL     1      22.514   4.848  51.767  1.00  0.00     0.036 C 
HETATM   27  C1  UNL     1      23.595   5.844  51.436  1.00  0.00     0.014 C 
HETATM   28  C20 UNL     1      22.737   3.499  51.078  1.00  0.00     0.319 C 
BRANCH  28  29
HETATM   29  N8  UNL     1      22.932   3.781  49.705  1.00  0.00    -0.402 N 
HETATM   30  H23 UNL     1      22.159   3.688  49.055  1.00  0.00     0.152 HD
HETATM   31  H24 UNL     1      23.796   3.376  49.284  1.00  0.00     0.152 HD
ENDBRANCH  28  29
ENDBRANCH  22  23
ENDBRANCH   1  22
TORSDOF 5
ENDMDL
MODEL 7
REMARK VINA RESULT:      -8.3      2.187      6.407
REMARK  5 active torsions:
REMARK  status: ('A' for Active; 'I' for Inactive)
REMARK    1  A    between atoms: N1_5  and  C5_6 
REMARK    2  A    between atoms: C5_6  and  C6_7 
REMARK    3  A    between atoms: C10_14  and  N5_15 
REMARK    4  A    between atoms: N5_15  and  C11_16 
REMARK    5  A    between atoms: C20_27  and  N8_28 
ROOT
HETATM    1  C6  UNL     1      25.715   2.745  51.434  1.00  0.00     0.004 A 
HETATM    2  C7  UNL     1      26.711   2.923  50.489  1.00  0.00     0.030 A 
HETATM    3  C8  UNL     1      26.235   3.667  49.411  1.00  0.00     0.119 A 
HETATM    4  N2  UNL     1      24.972   3.925  49.720  1.00  0.00    -0.240 N 
HETATM    5  N3  UNL     1      24.161   4.627  48.935  1.00  0.00    -0.161 NA
HETATM    6  C9  UNL     1      22.892   4.860  49.302  1.00  0.00     0.258 A 
HETATM    7  N4  UNL     1      22.520   4.349  50.476  1.00  0.00    -0.220 NA
HETATM    8  C10 UNL     1      23.329   3.638  51.276  1.00  0.00     0.159 A 
HETATM    9  C19 UNL     1      24.626   3.396  50.910  1.00  0.00     0.112 A 
ENDROOT
BRANCH   8  10
HETATM   10  N5  UNL     1      22.842   3.141  52.508  1.00  0.00    -0.339 N 
HETATM   11  H14 UNL     1      23.079   3.363  53.485  1.00  0.00     0.167 HD
BRANCH  10  12
HETATM   12  C11 UNL     1      21.838   2.138  52.654  1.00  0.00     0.034 A 
HETATM   13  C12 UNL     1      20.541   2.161  52.183  1.00  0.00     0.032 A 
HETATM   14  C13 UNL     1      19.589   1.185  52.349  1.00  0.00     0.034 A 
HETATM   15  C14 UNL     1      19.941   0.071  53.047  1.00  0.00     0.064 A 
HETATM   16  C15 UNL     1      21.206  -0.032  53.548  1.00  0.00     0.013 A 
HETATM   17  N7  UNL     1      19.210  -1.027  53.353  1.00  0.00    -0.274 N 
HETATM   18  C16 UNL     1      21.183  -1.281  54.183  1.00  0.00     0.152 A 
HETATM   19  C18 UNL     1      22.128   0.973  53.357  1.00  0.00     0.044 A 
HETATM   20  N6  UNL     1      19.967  -1.856  54.049  1.00  0.00    -0.184 NA
HETATM   21  C17 UNL     1      17.849  -1.321  53.023  1.00  0.00     0.180 C 
ENDBRANCH  10  12
ENDBRANCH   8  10
BRANCH   1  22
HETATM   22  C5  UNL     1      25.767   2.010  52.723  1.00  0.00     0.316 C 
BRANCH  22  23
HETATM   23  N1  UNL     1      26.629   0.874  52.553  1.00  0.00     0.115 N 
HETATM   24  C4  UNL     1      26.048  -0.407  52.750  1.00  0.00     0.276 C 
HETATM   25  C3  UNL     1      27.225  -1.332  53.032  1.00  0.00     0.038 C 
HETATM   26  C2  UNL     1      28.446  -0.413  53.032  1.00  0.00     0.036 C 
HETATM   27  C1  UNL     1      29.504  -0.848  54.011  1.00  0.00     0.014 C 
HETATM   28  C20 UNL     1      27.752   0.883  53.465  1.00  0.00     0.319 C 
BRANCH  28  29
HETATM   29  N8  UNL     1      27.327   0.680  54.799  1.00  0.00    -0.402 N 
HETATM   30  H23 UNL     1      26.871   1.431  55.305  1.00  0.00     0.152 HD
HETATM   31  H24 UNL     1      28.018   0.208  55.421  1.00  0.00     0.152 HD
ENDBRANCH  28  29
ENDBRANCH  22  23
ENDBRANCH   1  22
TORSDOF 5
ENDMDL
MODEL 8
REMARK VINA RESULT:      -8.0      2.266      6.735
REMARK  5 active torsions:
REMARK  status: ('A' for Active; 'I' for Inactive)
REMARK    1  A    between atoms: N1_5  and  C5_6 
REMARK    2  A    between atoms: C5_6  and  C6_7 
REMARK    3  A    between atoms: C10_14  and  N5_15 
REMARK    4  A    between atoms: N5_15  and  C11_16 
REMARK    5  A    between atoms: C20_27  and  N8_28 
ROOT
HETATM    1  C6  UNL     1      25.689   2.846  50.771  1.00  0.00     0.004 A 
HETATM    2  C7  UNL     1      26.597   3.138  49.768  1.00  0.00     0.030 A 
HETATM    3  C8  UNL     1      26.425   4.446  49.318  1.00  0.00     0.119 A 
HETATM    4  N2  UNL     1      25.425   4.918  50.050  1.00  0.00    -0.240 N 
HETATM    5  N3  UNL     1      24.952   6.154  49.923  1.00  0.00    -0.161 NA
HETATM    6  C9  UNL     1      23.940   6.578  50.695  1.00  0.00     0.258 A 
HETATM    7  N4  UNL     1      23.461   5.692  51.568  1.00  0.00    -0.220 NA
HETATM    8  C10 UNL     1      23.928   4.442  51.704  1.00  0.00     0.159 A 
HETATM    9  C19 UNL     1      24.962   4.001  50.921  1.00  0.00     0.112 A 
ENDROOT
BRANCH   8  10
HETATM   10  N5  UNL     1      23.355   3.575  52.666  1.00  0.00    -0.339 N 
HETATM   11  H14 UNL     1      23.633   3.329  53.626  1.00  0.00     0.167 HD
BRANCH  10  12
HETATM   12  C11 UNL     1      22.176   2.796  52.474  1.00  0.00     0.034 A 
HETATM   13  C12 UNL     1      22.037   1.428  52.583  1.00  0.00     0.032 A 
HETATM   14  C13 UNL     1      20.890   0.700  52.380  1.00  0.00     0.034 A 
HETATM   15  C14 UNL     1      19.763   1.379  52.035  1.00  0.00     0.064 A 
HETATM   16  C15 UNL     1      19.814   2.736  51.906  1.00  0.00     0.013 A 
HETATM   17  N7  UNL     1      18.515   0.917  51.781  1.00  0.00    -0.274 N 
HETATM   18  C16 UNL     1      18.497   3.060  51.552  1.00  0.00     0.152 A 
HETATM   19  C18 UNL     1      20.987   3.425  52.118  1.00  0.00     0.044 A 
HETATM   20  N6  UNL     1      17.738   1.943  51.484  1.00  0.00    -0.184 NA
HETATM   21  C17 UNL     1      18.035  -0.431  51.804  1.00  0.00     0.180 C 
ENDBRANCH  10  12
ENDBRANCH   8  10
BRANCH   1  22
HETATM   22  C5  UNL     1      25.499   1.580  51.523  1.00  0.00     0.316 C 
BRANCH  22  23
HETATM   23  N1  UNL     1      26.786   1.132  51.974  1.00  0.00     0.115 N 
HETATM   24  C4  UNL     1      26.864  -0.193  52.481  1.00  0.00     0.276 C 
HETATM   25  C3  UNL     1      28.125  -0.213  53.335  1.00  0.00     0.038 C 
HETATM   26  C2  UNL     1      28.648   1.222  53.282  1.00  0.00     0.036 C 
HETATM   27  C1  UNL     1      29.311   1.649  54.566  1.00  0.00     0.014 C 
HETATM   28  C20 UNL     1      27.315   1.941  53.051  1.00  0.00     0.319 C 
BRANCH  28  29
HETATM   29  N8  UNL     1      26.559   1.768  54.235  1.00  0.00    -0.402 N 
HETATM   30  H23 UNL     1      25.924   0.983  54.319  1.00  0.00     0.152 HD
HETATM   31  H24 UNL     1      26.103   2.631  54.602  1.00  0.00     0.152 HD
ENDBRANCH  28  29
ENDBRANCH  22  23
ENDBRANCH   1  22
TORSDOF 5
ENDMDL
MODEL 9
REMARK VINA RESULT:      -7.9      2.267      6.487
REMARK  5 active torsions:
REMARK  status: ('A' for Active; 'I' for Inactive)
REMARK    1  A    between atoms: N1_5  and  C5_6 
REMARK    2  A    between atoms: C5_6  and  C6_7 
REMARK    3  A    between atoms: C10_14  and  N5_15 
REMARK    4  A    between atoms: N5_15  and  C11_16 
REMARK    5  A    between atoms: C20_27  and  N8_28 
ROOT
HETATM    1  C6  UNL     1      23.590   1.534  51.564  1.00  0.00     0.004 A 
HETATM    2  C7  UNL     1      23.276   0.719  52.638  1.00  0.00     0.030 A 
HETATM    3  C8  UNL     1      24.401   0.495  53.429  1.00  0.00     0.119 A 
HETATM    4  N2  UNL     1      25.368   1.172  52.825  1.00  0.00    -0.240 N 
HETATM    5  N3  UNL     1      26.618   1.215  53.278  1.00  0.00    -0.161 NA
HETATM    6  C9  UNL     1      27.554   1.921  52.627  1.00  0.00     0.258 A 
HETATM    7  N4  UNL     1      27.148   2.555  51.527  1.00  0.00    -0.220 NA
HETATM    8  C10 UNL     1      25.891   2.519  51.060  1.00  0.00     0.159 A 
HETATM    9  C19 UNL     1      24.928   1.801  51.718  1.00  0.00     0.112 A 
ENDROOT
BRANCH   8  10
HETATM   10  N5  UNL     1      25.556   3.231  49.883  1.00  0.00    -0.339 N 
HETATM   11  H14 UNL     1      24.872   3.048  49.136  1.00  0.00     0.167 HD
BRANCH  10  12
HETATM   12  C11 UNL     1      26.159   4.452  49.458  1.00  0.00     0.034 A 
HETATM   13  C12 UNL     1      25.621   5.722  49.500  1.00  0.00     0.032 A 
HETATM   14  C13 UNL     1      26.220   6.882  49.071  1.00  0.00     0.034 A 
HETATM   15  C14 UNL     1      27.473   6.791  48.548  1.00  0.00     0.064 A 
HETATM   16  C15 UNL     1      28.076   5.569  48.469  1.00  0.00     0.013 A 
HETATM   17  N7  UNL     1      28.281   7.761  48.057  1.00  0.00    -0.274 N 
HETATM   18  C16 UNL     1      29.316   5.877  47.892  1.00  0.00     0.152 A 
HETATM   19  C18 UNL     1      27.437   4.433  48.911  1.00  0.00     0.044 A 
HETATM   20  N6  UNL     1      29.409   7.205  47.655  1.00  0.00    -0.184 NA
HETATM   21  C17 UNL     1      28.035   9.166  47.954  1.00  0.00     0.180 C 
ENDBRANCH  10  12
ENDBRANCH   8  10
BRANCH   1  22
HETATM   22  C5  UNL     1      22.715   2.016  50.466  1.00  0.00     0.316 C 
BRANCH  22  23
HETATM   23  N1  UNL     1      21.925   3.104  50.970  1.00  0.00     0.115 N 
HETATM   24  C4  UNL     1      20.549   3.115  50.618  1.00  0.00     0.276 C 
HETATM   25  C3  UNL     1      20.107   4.560  50.809  1.00  0.00     0.038 C 
HETATM   26  C2  UNL     1      21.380   5.300  51.219  1.00  0.00     0.036 C 
HETATM   27  C1  UNL     1      21.424   6.714  50.701  1.00  0.00     0.014 C 
HETATM   28  C20 UNL     1      22.402   4.395  50.525  1.00  0.00     0.319 C 
BRANCH  28  29
HETATM   29  N8  UNL     1      22.199   4.560  49.134  1.00  0.00    -0.402 N 
HETATM   30  H23 UNL     1      22.045   5.487  48.752  1.00  0.00     0.152 HD
HETATM   31  H24 UNL     1      21.537   3.885  48.696  1.00  0.00     0.152 HD
ENDBRANCH  28  29
ENDBRANCH  22  23
ENDBRANCH   1  22
TORSDOF 5
ENDMDL
