MODEL 1
REMARK VINA RESULT:      -9.8      0.000      0.000
REMARK  1 active torsions:
REMARK  status: ('A' for Active; 'I' for Inactive)
REMARK    1  A    between atoms: C5_5  and  N1_6 
ROOT
HETATM    1  N1  UNL     1      24.589  -0.268  54.094  1.00  0.00    -0.257 N 
HETATM    2  N2  UNL     1      24.041  -1.011  55.173  1.00  0.00    -0.287 N 
HETATM    3  C6  UNL     1      22.738  -1.631  55.227  1.00  0.00     0.224 C 
HETATM    4  N3  UNL     1      21.808  -1.542  54.315  1.00  0.00    -0.247 NA
HETATM    5  C7  UNL     1      21.491  -0.400  53.514  1.00  0.00     0.040 C 
HETATM    6  C8  UNL     1      20.191  -0.218  53.170  1.00  0.00     0.026 C 
HETATM    7  C9  UNL     1      19.623   0.934  52.324  1.00  0.00     0.197 C 
HETATM    8  O1  UNL     1      20.530   1.775  51.952  1.00  0.00    -0.385 OA
HETATM    9  C10 UNL     1      20.643   2.841  51.210  1.00  0.00     0.194 C 
HETATM   10  C11 UNL     1      22.118   3.407  51.304  1.00  0.00     0.202 C 
HETATM   11  O2  UNL     1      23.002   2.420  50.887  1.00  0.00    -0.344 OA
HETATM   12  C12 UNL     1      24.260   2.120  51.326  1.00  0.00     0.126 C 
HETATM   13  C13 UNL     1      25.198   2.757  50.660  1.00  0.00     0.177 C 
HETATM   14  O3  UNL     1      26.566   2.662  50.870  1.00  0.00    -0.335 OA
HETATM   15  C14 UNL     1      27.002   1.652  51.759  1.00  0.00     0.351 C 
HETATM   16  O4  UNL     1      25.986   1.156  52.557  1.00  0.00    -0.321 OA
HETATM   17  C15 UNL     1      24.642   1.197  52.417  1.00  0.00     0.131 C 
HETATM   18  C16 UNL     1      23.845   0.475  53.192  1.00  0.00     0.076 C 
HETATM   19  C17 UNL     1      22.399   0.589  52.989  1.00  0.00     0.121 C 
HETATM   20  H4  UNL     1      24.625  -1.137  56.036  1.00  0.00     0.188 HD
ENDROOT
BRANCH   1  21
HETATM   21  C5  UNL     1      26.027  -0.382  54.038  1.00  0.00     0.053 A 
HETATM   22  C4  UNL     1      26.766   0.512  54.833  1.00  0.00     0.017 A 
HETATM   23  C3  UNL     1      28.426   0.661  55.011  1.00  0.00     0.123 A 
HETATM   24  C2  UNL     1      28.667  -0.369  54.169  1.00  0.00    -0.102 A 
HETATM   25  C1  UNL     1      28.817  -1.101  53.569  1.00  0.00    -0.103 A 
HETATM   26  C20 UNL     1      29.002  -2.156  52.704  1.00  0.00     0.121 A 
HETATM   27  C19 UNL     1      27.333  -2.317  52.497  1.00  0.00    -0.012 A 
HETATM   28  C18 UNL     1      26.318  -1.547  53.088  1.00  0.00     0.028 A 
ENDBRANCH   1  21
TORSDOF 1
ENDMDL
MODEL 2
REMARK VINA RESULT:      -8.5      2.359      6.061
REMARK  1 active torsions:
REMARK  status: ('A' for Active; 'I' for Inactive)
REMARK    1  A    between atoms: C5_5  and  N1_6 
ROOT
HETATM    1  N1  UNL     1      21.643   1.381  50.803  1.00  0.00    -0.257 N 
HETATM    2  N2  UNL     1      20.371   0.752  50.777  1.00  0.00    -0.287 N 
HETATM    3  C6  UNL     1      19.648   0.206  51.901  1.00  0.00     0.224 C 
HETATM    4  N3  UNL     1      20.086   0.127  53.129  1.00  0.00    -0.247 NA
HETATM    5  C7  UNL     1      21.423  -0.152  53.551  1.00  0.00     0.040 C 
HETATM    6  C8  UNL     1      21.582  -0.852  54.704  1.00  0.00     0.026 C 
HETATM    7  C9  UNL     1      22.919  -1.266  55.343  1.00  0.00     0.197 C 
HETATM    8  O1  UNL     1      23.942  -0.886  54.653  1.00  0.00    -0.385 OA
HETATM    9  C10 UNL     1      25.244  -0.893  54.731  1.00  0.00     0.194 C 
HETATM   10  C11 UNL     1      25.865  -0.301  53.402  1.00  0.00     0.202 C 
HETATM   11  O2  UNL     1      25.389   0.992  53.223  1.00  0.00    -0.344 OA
HETATM   12  C12 UNL     1      25.074   1.666  52.078  1.00  0.00     0.126 C 
HETATM   13  C13 UNL     1      26.090   2.343  51.589  1.00  0.00     0.177 C 
HETATM   14  O3  UNL     1      26.085   3.122  50.442  1.00  0.00    -0.335 OA
HETATM   15  C14 UNL     1      24.826   3.358  49.842  1.00  0.00     0.351 C 
HETATM   16  O4  UNL     1      23.846   2.484  50.276  1.00  0.00    -0.321 OA
HETATM   17  C15 UNL     1      23.771   1.703  51.377  1.00  0.00     0.131 C 
HETATM   18  C16 UNL     1      22.646   1.091  51.716  1.00  0.00     0.076 C 
HETATM   19  C17 UNL     1      22.653   0.248  52.913  1.00  0.00     0.121 C 
HETATM   20  H4  UNL     1      19.882   0.662  49.853  1.00  0.00     0.188 HD
ENDROOT
BRANCH   1  21
HETATM   21  C5  UNL     1      21.775   2.374  49.765  1.00  0.00     0.053 A 
HETATM   22  C4  UNL     1      22.081   1.907  48.474  1.00  0.00     0.017 A 
HETATM   23  C3  UNL     1      22.304   2.766  47.052  1.00  0.00     0.123 A 
HETATM   24  C2  UNL     1      22.047   3.947  47.658  1.00  0.00    -0.102 A 
HETATM   25  C1  UNL     1      21.862   4.774  48.105  1.00  0.00    -0.103 A 
HETATM   26  C20 UNL     1      21.593   5.947  48.774  1.00  0.00     0.121 A 
HETATM   27  C19 UNL     1      21.378   5.105  50.223  1.00  0.00    -0.012 A 
HETATM   28  C18 UNL     1      21.486   3.721  50.434  1.00  0.00     0.028 A 
ENDBRANCH   1  21
TORSDOF 1
ENDMDL
MODEL 3
REMARK VINA RESULT:      -8.4      2.330      4.403
REMARK  1 active torsions:
REMARK  status: ('A' for Active; 'I' for Inactive)
REMARK    1  A    between atoms: C5_5  and  N1_6 
ROOT
HETATM    1  N1  UNL     1      25.780   2.011  51.256  1.00  0.00    -0.257 N 
HETATM    2  N2  UNL     1      26.574   2.630  50.255  1.00  0.00    -0.287 N 
HETATM    3  C6  UNL     1      26.403   3.955  49.707  1.00  0.00     0.224 C 
HETATM    4  N3  UNL     1      25.429   4.780  49.985  1.00  0.00    -0.247 NA
HETATM    5  C7  UNL     1      24.060   4.448  50.230  1.00  0.00     0.040 C 
HETATM    6  C8  UNL     1      23.118   5.339  49.828  1.00  0.00     0.026 C 
HETATM    7  C9  UNL     1      21.595   5.191  49.983  1.00  0.00     0.197 C 
HETATM    8  O1  UNL     1      21.257   4.081  50.549  1.00  0.00    -0.385 OA
HETATM    9  C10 UNL     1      20.183   3.478  50.976  1.00  0.00     0.194 C 
HETATM   10  C11 UNL     1      20.551   2.031  51.500  1.00  0.00     0.202 C 
HETATM   11  O2  UNL     1      21.488   2.150  52.519  1.00  0.00    -0.344 OA
HETATM   12  C12 UNL     1      22.539   1.343  52.848  1.00  0.00     0.126 C 
HETATM   13  C13 UNL     1      22.217   0.416  53.722  1.00  0.00     0.177 C 
HETATM   14  O3  UNL     1      23.063  -0.549  54.250  1.00  0.00    -0.335 OA
HETATM   15  C14 UNL     1      24.441  -0.411  53.959  1.00  0.00     0.351 C 
HETATM   16  O4  UNL     1      24.689   0.448  52.904  1.00  0.00    -0.321 OA
HETATM   17  C15 UNL     1      23.928   1.414  52.342  1.00  0.00     0.131 C 
HETATM   18  C16 UNL     1      24.434   2.271  51.466  1.00  0.00     0.076 C 
HETATM   19  C17 UNL     1      23.540   3.276  50.890  1.00  0.00     0.121 C 
HETATM   20  H4  UNL     1      27.378   2.088  49.855  1.00  0.00     0.188 HD
ENDROOT
BRANCH   1  21
HETATM   21  C5  UNL     1      26.542   1.074  52.045  1.00  0.00     0.053 A 
HETATM   22  C4  UNL     1      26.532  -0.268  51.623  1.00  0.00     0.017 A 
HETATM   23  C3  UNL     1      27.294  -1.604  52.290  1.00  0.00     0.123 A 
HETATM   24  C2  UNL     1      27.866  -0.862  53.266  1.00  0.00    -0.102 A 
HETATM   25  C1  UNL     1      28.262  -0.320  53.949  1.00  0.00    -0.103 A 
HETATM   26  C20 UNL     1      28.816   0.485  54.919  1.00  0.00     0.121 A 
HETATM   27  C19 UNL     1      28.047   1.843  54.274  1.00  0.00    -0.012 A 
HETATM   28  C18 UNL     1      27.199   1.898  53.156  1.00  0.00     0.028 A 
ENDBRANCH   1  21
TORSDOF 1
ENDMDL
MODEL 4
REMARK VINA RESULT:      -8.2      2.607      6.601
REMARK  1 active torsions:
REMARK  status: ('A' for Active; 'I' for Inactive)
REMARK    1  A    between atoms: C5_5  and  N1_6 
ROOT
HETATM    1  N1  UNL     1      23.814   2.746  51.002  1.00  0.00    -0.257 N 
HETATM    2  N2  UNL     1      25.164   3.183  51.060  1.00  0.00    -0.287 N 
HETATM    3  C6  UNL     1      26.314   2.398  51.442  1.00  0.00     0.224 C 
HETATM    4  N3  UNL     1      26.293   1.168  51.880  1.00  0.00    -0.247 NA
HETATM    5  C7  UNL     1      25.309   0.572  52.730  1.00  0.00     0.040 C 
HETATM    6  C8  UNL     1      25.731  -0.375  53.606  1.00  0.00     0.026 C 
HETATM    7  C9  UNL     1      24.856  -1.143  54.613  1.00  0.00     0.197 C 
HETATM    8  O1  UNL     1      23.615  -0.788  54.568  1.00  0.00    -0.385 OA
HETATM    9  C10 UNL     1      22.473  -1.119  55.104  1.00  0.00     0.194 C 
HETATM   10  C11 UNL     1      21.341  -0.132  54.608  1.00  0.00     0.202 C 
HETATM   11  O2  UNL     1      21.270  -0.193  53.222  1.00  0.00    -0.344 OA
HETATM   12  C12 UNL     1      20.998   0.786  52.309  1.00  0.00     0.126 C 
HETATM   13  C13 UNL     1      19.718   0.876  52.024  1.00  0.00     0.177 C 
HETATM   14  O3  UNL     1      19.132   1.768  51.138  1.00  0.00    -0.335 OA
HETATM   15  C14 UNL     1      20.011   2.528  50.330  1.00  0.00     0.351 C 
HETATM   16  O4  UNL     1      21.312   2.531  50.798  1.00  0.00    -0.321 OA
HETATM   17  C15 UNL     1      21.957   1.699  51.647  1.00  0.00     0.131 C 
HETATM   18  C16 UNL     1      23.271   1.756  51.806  1.00  0.00     0.076 C 
HETATM   19  C17 UNL     1      23.891   0.832  52.757  1.00  0.00     0.121 C 
HETATM   20  H4  UNL     1      25.374   4.177  50.803  1.00  0.00     0.188 HD
ENDROOT
BRANCH   1  21
HETATM   21  C5  UNL     1      23.062   3.454  49.994  1.00  0.00     0.053 A 
HETATM   22  C4  UNL     1      22.611   4.744  50.327  1.00  0.00     0.017 A 
HETATM   23  C3  UNL     1      21.724   5.835  49.413  1.00  0.00     0.123 A 
HETATM   24  C2  UNL     1      21.692   5.003  48.348  1.00  0.00    -0.102 A 
HETATM   25  C1  UNL     1      21.679   4.400  47.603  1.00  0.00    -0.103 A 
HETATM   26  C20 UNL     1      21.678   3.513  46.551  1.00  0.00     0.121 A 
HETATM   27  C19 UNL     1      22.558   2.392  47.456  1.00  0.00    -0.012 A 
HETATM   28  C18 UNL     1      23.016   2.526  48.777  1.00  0.00     0.028 A 
ENDBRANCH   1  21
TORSDOF 1
ENDMDL
MODEL 5
REMARK VINA RESULT:      -8.1      3.656      5.853
REMARK  1 active torsions:
REMARK  status: ('A' for Active; 'I' for Inactive)
REMARK    1  A    between atoms: C5_5  and  N1_6 
ROOT
HETATM    1  N1  UNL     1      24.105   4.208  51.176  1.00  0.00    -0.257 N 
HETATM    2  N2  UNL     1      24.566   3.945  52.494  1.00  0.00    -0.287 N 
HETATM    3  C6  UNL     1      24.485   2.693  53.208  1.00  0.00     0.224 C 
HETATM    4  N3  UNL     1      23.895   1.606  52.787  1.00  0.00    -0.247 NA
HETATM    5  C7  UNL     1      22.689   1.520  52.023  1.00  0.00     0.040 C 
HETATM    6  C8  UNL     1      21.880   0.454  52.250  1.00  0.00     0.026 C 
HETATM    7  C9  UNL     1      20.540   0.159  51.553  1.00  0.00     0.197 C 
HETATM    8  O1  UNL     1      20.217   1.064  50.691  1.00  0.00    -0.385 OA
HETATM    9  C10 UNL     1      19.288   1.298  49.806  1.00  0.00     0.194 C 
HETATM   10  C11 UNL     1      19.510   2.723  49.157  1.00  0.00     0.202 C 
HETATM   11  O2  UNL     1      20.769   2.756  48.571  1.00  0.00    -0.344 OA
HETATM   12  C12 UNL     1      21.667   3.780  48.466  1.00  0.00     0.126 C 
HETATM   13  C13 UNL     1      21.515   4.481  47.365  1.00  0.00     0.177 C 
HETATM   14  O3  UNL     1      22.271   5.577  46.975  1.00  0.00    -0.335 OA
HETATM   15  C14 UNL     1      23.425   5.856  47.743  1.00  0.00     0.351 C 
HETATM   16  O4  UNL     1      23.426   5.220  48.972  1.00  0.00    -0.321 OA
HETATM   17  C15 UNL     1      22.734   4.150  49.422  1.00  0.00     0.131 C 
HETATM   18  C16 UNL     1      23.034   3.566  50.574  1.00  0.00     0.076 C 
HETATM   19  C17 UNL     1      22.225   2.424  51.000  1.00  0.00     0.121 C 
HETATM   20  H4  UNL     1      25.017   4.728  53.026  1.00  0.00     0.188 HD
ENDROOT
BRANCH   1  21
HETATM   21  C5  UNL     1      24.893   5.226  50.524  1.00  0.00     0.053 A 
HETATM   22  C4  UNL     1      24.544   6.563  50.785  1.00  0.00     0.017 A 
HETATM   23  C3  UNL     1      25.231   7.980  50.208  1.00  0.00     0.123 A 
HETATM   24  C2  UNL     1      26.167   7.305  49.503  1.00  0.00    -0.102 A 
HETATM   25  C1  UNL     1      26.822   6.810  49.010  1.00  0.00    -0.103 A 
HETATM   26  C20 UNL     1      27.751   6.071  48.312  1.00  0.00     0.121 A 
HETATM   27  C19 UNL     1      27.067   4.631  48.868  1.00  0.00    -0.012 A 
HETATM   28  C18 UNL     1      25.961   4.480  49.721  1.00  0.00     0.028 A 
ENDBRANCH   1  21
TORSDOF 1
ENDMDL
MODEL 6
REMARK VINA RESULT:      -8.0      2.689      5.256
REMARK  1 active torsions:
REMARK  status: ('A' for Active; 'I' for Inactive)
REMARK    1  A    between atoms: C5_5  and  N1_6 
ROOT
HETATM    1  N1  UNL     1      24.233   3.115  52.385  1.00  0.00    -0.257 N 
HETATM    2  N2  UNL     1      25.177   2.911  53.426  1.00  0.00    -0.287 N 
HETATM    3  C6  UNL     1      25.518   1.656  54.055  1.00  0.00     0.224 C 
HETATM    4  N3  UNL     1      24.950   0.503  53.824  1.00  0.00    -0.247 NA
HETATM    5  C7  UNL     1      23.566   0.262  53.553  1.00  0.00     0.040 C 
HETATM    6  C8  UNL     1      23.034  -0.902  54.005  1.00  0.00     0.026 C 
HETATM    7  C9  UNL     1      21.577  -1.367  53.834  1.00  0.00     0.197 C 
HETATM    8  O1  UNL     1      20.851  -0.510  53.199  1.00  0.00    -0.385 OA
HETATM    9  C10 UNL     1      19.639  -0.397  52.729  1.00  0.00     0.194 C 
HETATM   10  C11 UNL     1      19.432   1.047  52.118  1.00  0.00     0.202 C 
HETATM   11  O2  UNL     1      20.370   1.247  51.113  1.00  0.00    -0.344 OA
HETATM   12  C12 UNL     1      21.035   2.380  50.740  1.00  0.00     0.126 C 
HETATM   13  C13 UNL     1      20.403   3.058  49.808  1.00  0.00     0.177 C 
HETATM   14  O3  UNL     1      20.822   4.245  49.226  1.00  0.00    -0.335 OA
HETATM   15  C14 UNL     1      22.137   4.670  49.530  1.00  0.00     0.351 C 
HETATM   16  O4  UNL     1      22.669   4.036  50.638  1.00  0.00    -0.321 OA
HETATM   17  C15 UNL     1      22.327   2.883  51.256  1.00  0.00     0.131 C 
HETATM   18  C16 UNL     1      23.101   2.341  52.185  1.00  0.00     0.076 C 
HETATM   19  C17 UNL     1      22.651   1.100  52.819  1.00  0.00     0.121 C 
HETATM   20  H4  UNL     1      25.695   3.744  53.796  1.00  0.00     0.188 HD
ENDROOT
BRANCH   1  21
HETATM   21  C5  UNL     1      24.594   4.230  51.543  1.00  0.00     0.053 A 
HETATM   22  C4  UNL     1      24.082   5.489  51.902  1.00  0.00     0.017 A 
HETATM   23  C3  UNL     1      24.293   6.979  51.163  1.00  0.00     0.123 A 
HETATM   24  C2  UNL     1      25.105   6.458  50.216  1.00  0.00    -0.102 A 
HETATM   25  C1  UNL     1      25.677   6.071  49.553  1.00  0.00    -0.103 A 
HETATM   26  C20 UNL     1      26.496   5.486  48.614  1.00  0.00     0.121 A 
HETATM   27  C19 UNL     1      26.287   3.972  49.331  1.00  0.00    -0.012 A 
HETATM   28  C18 UNL     1      25.516   3.658  50.463  1.00  0.00     0.028 A 
ENDBRANCH   1  21
TORSDOF 1
ENDMDL
MODEL 7
REMARK VINA RESULT:      -7.9      4.568      6.847
REMARK  1 active torsions:
REMARK  status: ('A' for Active; 'I' for Inactive)
REMARK    1  A    between atoms: C5_5  and  N1_6 
ROOT
HETATM    1  N1  UNL     1      24.616   4.959  50.132  1.00  0.00    -0.257 N 
HETATM    2  N2  UNL     1      24.905   4.354  51.384  1.00  0.00    -0.287 N 
HETATM    3  C6  UNL     1      24.658   2.983  51.763  1.00  0.00     0.224 C 
HETATM    4  N3  UNL     1      24.047   2.085  51.039  1.00  0.00    -0.247 NA
HETATM    5  C7  UNL     1      22.932   2.292  50.167  1.00  0.00     0.040 C 
HETATM    6  C8  UNL     1      22.032   1.283  50.053  1.00  0.00     0.026 C 
HETATM    7  C9  UNL     1      20.763   1.286  49.182  1.00  0.00     0.197 C 
HETATM    8  O1  UNL     1      20.602   2.394  48.539  1.00  0.00    -0.385 OA
HETATM    9  C10 UNL     1      19.797   2.913  47.653  1.00  0.00     0.194 C 
HETATM   10  C11 UNL     1      20.188   4.423  47.392  1.00  0.00     0.202 C 
HETATM   11  O2  UNL     1      21.505   4.474  46.951  1.00  0.00    -0.344 OA
HETATM   12  C12 UNL     1      22.477   5.405  47.182  1.00  0.00     0.126 C 
HETATM   13  C13 UNL     1      22.500   6.355  46.274  1.00  0.00     0.177 C 
HETATM   14  O3  UNL     1      23.368   7.436  46.233  1.00  0.00    -0.335 OA
HETATM   15  C14 UNL     1      24.444   7.419  47.151  1.00  0.00     0.351 C 
HETATM   16  O4  UNL     1      24.262   6.516  48.184  1.00  0.00    -0.321 OA
HETATM   17  C15 UNL     1      23.452   5.440  48.295  1.00  0.00     0.131 C 
HETATM   18  C16 UNL     1      23.579   4.579  49.295  1.00  0.00     0.076 C 
HETATM   19  C17 UNL     1      22.650   3.449  49.354  1.00  0.00     0.121 C 
HETATM   20  H4  UNL     1      25.346   4.946  52.130  1.00  0.00     0.188 HD
ENDROOT
BRANCH   1  21
HETATM   21  C5  UNL     1      25.541   6.023  49.822  1.00  0.00     0.053 A 
HETATM   22  C4  UNL     1      25.256   7.289  50.365  1.00  0.00     0.017 A 
HETATM   23  C3  UNL     1      26.100   8.731  50.214  1.00  0.00     0.123 A 
HETATM   24  C2  UNL     1      27.061   8.155  49.458  1.00  0.00    -0.102 A 
HETATM   25  C1  UNL     1      27.733   7.729  48.923  1.00  0.00    -0.103 A 
HETATM   26  C20 UNL     1      28.682   7.090  48.158  1.00  0.00     0.121 A 
HETATM   27  C19 UNL     1      27.843   5.630  48.283  1.00  0.00    -0.012 A 
HETATM   28  C18 UNL     1      26.639   5.388  48.966  1.00  0.00     0.028 A 
ENDBRANCH   1  21
TORSDOF 1
ENDMDL
MODEL 8
REMARK VINA RESULT:      -7.9      2.674      6.966
REMARK  1 active torsions:
REMARK  status: ('A' for Active; 'I' for Inactive)
REMARK    1  A    between atoms: C5_5  and  N1_6 
ROOT
HETATM    1  N1  UNL     1      23.795   2.735  50.570  1.00  0.00    -0.257 N 
HETATM    2  N2  UNL     1      25.079   3.338  50.637  1.00  0.00    -0.287 N 
HETATM    3  C6  UNL     1      26.308   2.720  51.076  1.00  0.00     0.224 C 
HETATM    4  N3  UNL     1      26.428   1.515  51.566  1.00  0.00    -0.247 NA
HETATM    5  C7  UNL     1      25.504   0.836  52.421  1.00  0.00     0.040 C 
HETATM    6  C8  UNL     1      26.017  -0.015  53.346  1.00  0.00     0.026 C 
HETATM    7  C9  UNL     1      25.218  -0.844  54.367  1.00  0.00     0.197 C 
HETATM    8  O1  UNL     1      23.945  -0.648  54.281  1.00  0.00    -0.385 OA
HETATM    9  C10 UNL     1      22.839  -1.097  54.808  1.00  0.00     0.194 C 
HETATM   10  C11 UNL     1      21.606  -0.280  54.247  1.00  0.00     0.202 C 
HETATM   11  O2  UNL     1      21.579  -0.406  52.863  1.00  0.00    -0.344 OA
HETATM   12  C12 UNL     1      21.212   0.493  51.903  1.00  0.00     0.126 C 
HETATM   13  C13 UNL     1      19.938   0.412  51.589  1.00  0.00     0.177 C 
HETATM   14  O3  UNL     1      19.269   1.187  50.653  1.00  0.00    -0.335 OA
HETATM   15  C14 UNL     1      20.067   2.017  49.831  1.00  0.00     0.351 C 
HETATM   16  O4  UNL     1      21.346   2.201  50.325  1.00  0.00    -0.321 OA
HETATM   17  C15 UNL     1      22.066   1.491  51.222  1.00  0.00     0.131 C 
HETATM   18  C16 UNL     1      23.359   1.718  51.405  1.00  0.00     0.076 C 
HETATM   19  C17 UNL     1      24.064   0.918  52.408  1.00  0.00     0.121 C 
HETATM   20  H4  UNL     1      25.172   4.340  50.341  1.00  0.00     0.188 HD
ENDROOT
BRANCH   1  21
HETATM   21  C5  UNL     1      22.988   3.302  49.517  1.00  0.00     0.053 A 
HETATM   22  C4  UNL     1      22.923   2.584  48.310  1.00  0.00     0.017 A 
HETATM   23  C3  UNL     1      22.094   2.942  46.897  1.00  0.00     0.123 A 
HETATM   24  C2  UNL     1      21.570   4.072  47.423  1.00  0.00    -0.102 A 
HETATM   25  C1  UNL     1      21.209   4.869  47.813  1.00  0.00    -0.103 A 
HETATM   26  C20 UNL     1      20.706   6.008  48.400  1.00  0.00     0.121 A 
HETATM   27  C19 UNL     1      21.543   5.676  49.829  1.00  0.00    -0.012 A 
HETATM   28  C18 UNL     1      22.385   4.585  50.096  1.00  0.00     0.028 A 
ENDBRANCH   1  21
TORSDOF 1
ENDMDL
MODEL 9
REMARK VINA RESULT:      -7.6      9.884     12.512
REMARK  1 active torsions:
REMARK  status: ('A' for Active; 'I' for Inactive)
REMARK    1  A    between atoms: C5_5  and  N1_6 
ROOT
HETATM    1  N1  UNL     1      32.818   7.989  46.354  1.00  0.00    -0.257 N 
HETATM    2  N2  UNL     1      33.672   8.923  45.710  1.00  0.00    -0.287 N 
HETATM    3  C6  UNL     1      33.960  10.273  46.133  1.00  0.00     0.224 C 
HETATM    4  N3  UNL     1      33.412  10.893  47.144  1.00  0.00    -0.247 NA
HETATM    5  C7  UNL     1      32.056  10.792  47.586  1.00  0.00     0.040 C 
HETATM    6  C8  UNL     1      31.487  11.902  48.120  1.00  0.00     0.026 C 
HETATM    7  C9  UNL     1      30.049  12.026  48.654  1.00  0.00     0.197 C 
HETATM    8  O1  UNL     1      29.378  10.929  48.537  1.00  0.00    -0.385 OA
HETATM    9  C10 UNL     1      28.209  10.448  48.859  1.00  0.00     0.194 C 
HETATM   10  C11 UNL     1      28.053   8.983  48.281  1.00  0.00     0.202 C 
HETATM   11  O2  UNL     1      29.071   8.189  48.794  1.00  0.00    -0.344 OA
HETATM   12  C12 UNL     1      29.765   7.164  48.218  1.00  0.00     0.126 C 
HETATM   13  C13 UNL     1      29.212   5.990  48.432  1.00  0.00     0.177 C 
HETATM   14  O3  UNL     1      29.679   4.765  47.980  1.00  0.00    -0.335 OA
HETATM   15  C14 UNL     1      30.964   4.756  47.389  1.00  0.00     0.351 C 
HETATM   16  O4  UNL     1      31.403   6.016  47.025  1.00  0.00    -0.321 OA
HETATM   17  C15 UNL     1      31.011   7.247  47.424  1.00  0.00     0.131 C 
HETATM   18  C16 UNL     1      31.705   8.330  47.108  1.00  0.00     0.076 C 
HETATM   19  C17 UNL     1      31.204   9.628  47.564  1.00  0.00     0.121 C 
HETATM   20  H4  UNL     1      34.159   8.624  44.830  1.00  0.00     0.188 HD
ENDROOT
BRANCH   1  21
HETATM   21  C5  UNL     1      33.248   6.629  46.139  1.00  0.00     0.053 A 
HETATM   22  C4  UNL     1      32.926   6.050  44.898  1.00  0.00     0.017 A 
HETATM   23  C3  UNL     1      33.263   4.514  44.317  1.00  0.00     0.123 A 
HETATM   24  C2  UNL     1      33.926   4.170  45.444  1.00  0.00    -0.102 A 
HETATM   25  C1  UNL     1      34.392   3.945  46.250  1.00  0.00    -0.103 A 
HETATM   26  C20 UNL     1      35.055   3.650  47.420  1.00  0.00     0.121 A 
HETATM   27  C19 UNL     1      34.716   5.187  48.034  1.00  0.00    -0.012 A 
HETATM   28  C18 UNL     1      34.003   6.222  47.407  1.00  0.00     0.028 A 
ENDBRANCH   1  21
TORSDOF 1
ENDMDL
