MODEL 1
REMARK VINA RESULT:      -6.5      0.000      0.000
REMARK  6 active torsions:
REMARK  status: ('A' for Active; 'I' for Inactive)
REMARK    1  A    between atoms: O1_2  and  C2_3 
REMARK    2  A    between atoms: C4_5  and  C5_6 
REMARK    3  A    between atoms: C5_6  and  N1_7 
REMARK    4  A    between atoms: N1_7  and  C6_8 
REMARK    5  A    between atoms: C9_13  and  C10_14 
REMARK    6  A    between atoms: C13_19  and  O3_20 
ROOT
HETATM    1  C2  UNL     1      22.527   0.321  52.682  1.00  0.00     0.102 A 
HETATM    2  C3  UNL     1      23.494   1.009  53.214  1.00  0.00     0.053 A 
HETATM    3  C4  UNL     1      23.963   2.310  52.807  1.00  0.00    -0.009 A 
HETATM    4  P1  UNL     1      23.148   3.144  51.374  1.00  0.00    -0.060 P 
HETATM    5  C11 UNL     1      24.379   3.195  49.954  1.00  0.00     0.053 C 
HETATM    6  C12 UNL     1      21.878   1.901  50.915  1.00  0.00     0.050 A 
HETATM    7  C13 UNL     1      21.761   0.779  51.570  1.00  0.00     0.102 A 
ENDROOT
BRANCH   3   8
HETATM    8  C5  UNL     1      24.935   2.815  53.476  1.00  0.00     0.102 C 
BRANCH   8   9
HETATM    9  N1  UNL     1      26.190   2.552  52.879  1.00  0.00    -0.348 N 
HETATM   10  H6  UNL     1      26.163   2.991  51.928  1.00  0.00     0.167 HD
BRANCH   9  11
HETATM   11  C6  UNL     1      27.354   1.865  53.306  1.00  0.00     0.159 A 
HETATM   12  N2  UNL     1      28.276   2.533  54.029  1.00  0.00    -0.224 NA
HETATM   13  C7  UNL     1      29.256   1.642  54.281  1.00  0.00     0.212 A 
HETATM   14  N3  UNL     1      28.923   0.473  53.718  1.00  0.00    -0.340 N 
HETATM   15  C8  UNL     1      29.695  -0.754  53.733  1.00  0.00     0.157 C 
HETATM   16  C9  UNL     1      27.741   0.567  53.099  1.00  0.00     0.119 A 
BRANCH  16  17
HETATM   17  C10 UNL     1      26.914  -0.353  52.345  1.00  0.00     0.292 C 
HETATM   18  O2  UNL     1      26.123  -1.213  52.751  1.00  0.00    -0.300 OA
ENDBRANCH  16  17
ENDBRANCH   9  11
ENDBRANCH   8   9
ENDBRANCH   3   8
BRANCH   1  19
HETATM   19  O1  UNL     1      22.066  -0.955  53.077  1.00  0.00    -0.353 OA
HETATM   20  C1  UNL     1      21.961  -1.089  54.512  1.00  0.00     0.210 C 
ENDBRANCH   1  19
BRANCH   7  21
HETATM   21  O3  UNL     1      20.692   0.128  50.913  1.00  0.00    -0.353 OA
HETATM   22  C14 UNL     1      19.410   0.627  51.344  1.00  0.00     0.210 C 
ENDBRANCH   7  21
TORSDOF 6
ENDMDL
MODEL 2
REMARK VINA RESULT:      -6.3      2.102      2.453
REMARK  6 active torsions:
REMARK  status: ('A' for Active; 'I' for Inactive)
REMARK    1  A    between atoms: O1_2  and  C2_3 
REMARK    2  A    between atoms: C4_5  and  C5_6 
REMARK    3  A    between atoms: C5_6  and  N1_7 
REMARK    4  A    between atoms: N1_7  and  C6_8 
REMARK    5  A    between atoms: C9_13  and  C10_14 
REMARK    6  A    between atoms: C13_19  and  O3_20 
ROOT
HETATM    1  C2  UNL     1      21.732   1.749  52.584  1.00  0.00     0.102 A 
HETATM    2  C3  UNL     1      23.017   1.669  52.401  1.00  0.00     0.053 A 
HETATM    3  C4  UNL     1      23.909   2.730  52.007  1.00  0.00    -0.009 A 
HETATM    4  P1  UNL     1      23.212   4.414  51.703  1.00  0.00    -0.060 P 
HETATM    5  C11 UNL     1      23.339   4.773  49.862  1.00  0.00     0.053 C 
HETATM    6  C12 UNL     1      21.432   4.130  52.054  1.00  0.00     0.050 A 
HETATM    7  C13 UNL     1      20.991   2.955  52.409  1.00  0.00     0.102 A 
ENDROOT
BRANCH   3   8
HETATM    8  C5  UNL     1      25.152   2.434  51.887  1.00  0.00     0.102 C 
BRANCH   8   9
HETATM    9  N1  UNL     1      25.604   1.589  52.927  1.00  0.00    -0.348 N 
HETATM   10  H6  UNL     1      25.123   1.912  53.800  1.00  0.00     0.167 HD
BRANCH   9  11
HETATM   11  C6  UNL     1      26.504   0.495  52.980  1.00  0.00     0.159 A 
HETATM   12  N2  UNL     1      26.035  -0.747  52.741  1.00  0.00    -0.224 NA
HETATM   13  C7  UNL     1      27.098  -1.567  52.866  1.00  0.00     0.212 A 
HETATM   14  N3  UNL     1      28.172  -0.828  53.174  1.00  0.00    -0.340 N 
HETATM   15  C8  UNL     1      29.520  -1.304  53.410  1.00  0.00     0.157 C 
HETATM   16  C9  UNL     1      27.846   0.467  53.255  1.00  0.00     0.119 A 
BRANCH  16  17
HETATM   17  C10 UNL     1      28.579   1.682  53.547  1.00  0.00     0.292 C 
HETATM   18  O2  UNL     1      28.229   2.677  54.191  1.00  0.00    -0.300 OA
ENDBRANCH  16  17
ENDBRANCH   9  11
ENDBRANCH   8   9
ENDBRANCH   3   8
BRANCH   1  19
HETATM   19  O1  UNL     1      20.855   0.710  52.969  1.00  0.00    -0.353 OA
HETATM   20  C1  UNL     1      21.103   0.242  54.313  1.00  0.00     0.210 C 
ENDBRANCH   1  19
BRANCH   7  21
HETATM   21  O3  UNL     1      19.604   3.165  52.580  1.00  0.00    -0.353 OA
HETATM   22  C14 UNL     1      18.990   3.709  51.396  1.00  0.00     0.210 C 
ENDBRANCH   7  21
TORSDOF 6
ENDMDL
MODEL 3
REMARK VINA RESULT:      -6.2      3.282      6.724
REMARK  6 active torsions:
REMARK  status: ('A' for Active; 'I' for Inactive)
REMARK    1  A    between atoms: O1_2  and  C2_3 
REMARK    2  A    between atoms: C4_5  and  C5_6 
REMARK    3  A    between atoms: C5_6  and  N1_7 
REMARK    4  A    between atoms: N1_7  and  C6_8 
REMARK    5  A    between atoms: C9_13  and  C10_14 
REMARK    6  A    between atoms: C13_19  and  O3_20 
ROOT
HETATM    1  C2  UNL     1      25.211  -0.032  53.941  1.00  0.00     0.102 A 
HETATM    2  C3  UNL     1      24.129   0.001  53.221  1.00  0.00     0.053 A 
HETATM    3  C4  UNL     1      23.703   1.058  52.338  1.00  0.00    -0.009 A 
HETATM    4  P1  UNL     1      24.762   2.563  52.172  1.00  0.00    -0.060 P 
HETATM    5  C11 UNL     1      23.849   4.006  52.959  1.00  0.00     0.053 C 
HETATM    6  C12 UNL     1      26.148   2.148  53.303  1.00  0.00     0.050 A 
HETATM    7  C13 UNL     1      26.171   1.021  53.960  1.00  0.00     0.102 A 
ENDROOT
BRANCH   3   8
HETATM    8  C5  UNL     1      22.595   0.886  51.714  1.00  0.00     0.102 C 
BRANCH   8   9
HETATM    9  N1  UNL     1      21.478   0.941  52.580  1.00  0.00    -0.348 N 
HETATM   10  H6  UNL     1      21.703   1.662  53.307  1.00  0.00     0.167 HD
BRANCH   9  11
HETATM   11  C6  UNL     1      20.237   0.257  52.624  1.00  0.00     0.159 A 
HETATM   12  N2  UNL     1      19.215   0.711  51.870  1.00  0.00    -0.224 NA
HETATM   13  C7  UNL     1      18.183  -0.119  52.120  1.00  0.00     0.212 A 
HETATM   14  N3  UNL     1      18.583  -1.042  53.003  1.00  0.00    -0.340 N 
HETATM   15  C8  UNL     1      17.790  -2.121  53.557  1.00  0.00     0.157 C 
HETATM   16  C9  UNL     1      19.861  -0.846  53.346  1.00  0.00     0.119 A 
BRANCH  16  17
HETATM   17  C10 UNL     1      20.789  -1.515  54.234  1.00  0.00     0.292 C 
HETATM   18  O2  UNL     1      21.494  -1.046  55.135  1.00  0.00    -0.300 OA
ENDBRANCH  16  17
ENDBRANCH   9  11
ENDBRANCH   8   9
ENDBRANCH   3   8
BRANCH   1  19
HETATM   19  O1  UNL     1      25.631  -1.067  54.809  1.00  0.00    -0.353 OA
HETATM   20  C1  UNL     1      24.872  -1.106  56.036  1.00  0.00     0.210 C 
ENDBRANCH   1  19
BRANCH   7  21
HETATM   21  O3  UNL     1      27.378   1.097  54.693  1.00  0.00    -0.353 OA
HETATM   22  C14 UNL     1      28.534   0.941  53.847  1.00  0.00     0.210 C 
ENDBRANCH   7  21
TORSDOF 6
ENDMDL
MODEL 4
REMARK VINA RESULT:      -6.0      3.114      5.451
REMARK  6 active torsions:
REMARK  status: ('A' for Active; 'I' for Inactive)
REMARK    1  A    between atoms: O1_2  and  C2_3 
REMARK    2  A    between atoms: C4_5  and  C5_6 
REMARK    3  A    between atoms: C5_6  and  N1_7 
REMARK    4  A    between atoms: N1_7  and  C6_8 
REMARK    5  A    between atoms: C9_13  and  C10_14 
REMARK    6  A    between atoms: C13_19  and  O3_20 
ROOT
HETATM    1  C2  UNL     1      25.911   1.835  53.753  1.00  0.00     0.102 A 
HETATM    2  C3  UNL     1      25.312   2.950  53.450  1.00  0.00     0.053 A 
HETATM    3  C4  UNL     1      23.993   3.104  52.891  1.00  0.00    -0.009 A 
HETATM    4  P1  UNL     1      22.992   1.593  52.534  1.00  0.00    -0.060 P 
HETATM    5  C11 UNL     1      22.838   1.427  50.667  1.00  0.00     0.053 C 
HETATM    6  C12 UNL     1      24.141   0.269  53.079  1.00  0.00     0.050 A 
HETATM    7  C13 UNL     1      25.319   0.553  53.563  1.00  0.00     0.102 A 
ENDROOT
BRANCH   3   8
HETATM    8  C5  UNL     1      23.590   4.304  52.671  1.00  0.00     0.102 C 
BRANCH   8   9
HETATM    9  N1  UNL     1      23.742   4.679  51.317  1.00  0.00    -0.348 N 
HETATM   10  H6  UNL     1      22.970   4.205  50.789  1.00  0.00     0.167 HD
BRANCH   9  11
HETATM   11  C6  UNL     1      24.667   5.503  50.626  1.00  0.00     0.159 A 
HETATM   12  N2  UNL     1      24.529   6.842  50.700  1.00  0.00    -0.224 NA
HETATM   13  C7  UNL     1      25.528   7.352  49.952  1.00  0.00     0.212 A 
HETATM   14  N3  UNL     1      26.240   6.338  49.444  1.00  0.00    -0.340 N 
HETATM   15  C8  UNL     1      27.395   6.433  48.574  1.00  0.00     0.157 C 
HETATM   16  C9  UNL     1      25.737   5.163  49.840  1.00  0.00     0.119 A 
BRANCH  16  17
HETATM   17  C10 UNL     1      26.089   3.778  49.607  1.00  0.00     0.292 C 
HETATM   18  O2  UNL     1      26.832   3.034  50.257  1.00  0.00    -0.300 OA
ENDBRANCH  16  17
ENDBRANCH   9  11
ENDBRANCH   8   9
ENDBRANCH   3   8
BRANCH   1  19
HETATM   19  O1  UNL     1      27.206   1.680  54.300  1.00  0.00    -0.353 OA
HETATM   20  C1  UNL     1      28.238   2.221  53.447  1.00  0.00     0.210 C 
ENDBRANCH   1  19
BRANCH   7  21
HETATM   21  O3  UNL     1      25.865  -0.718  53.855  1.00  0.00    -0.353 OA
HETATM   22  C14 UNL     1      26.548  -1.287  52.719  1.00  0.00     0.210 C 
ENDBRANCH   7  21
TORSDOF 6
ENDMDL
MODEL 5
REMARK VINA RESULT:      -5.9      2.141      3.261
REMARK  6 active torsions:
REMARK  status: ('A' for Active; 'I' for Inactive)
REMARK    1  A    between atoms: O1_2  and  C2_3 
REMARK    2  A    between atoms: C4_5  and  C5_6 
REMARK    3  A    between atoms: C5_6  and  N1_7 
REMARK    4  A    between atoms: N1_7  and  C6_8 
REMARK    5  A    between atoms: C9_13  and  C10_14 
REMARK    6  A    between atoms: C13_19  and  O3_20 
ROOT
HETATM    1  C2  UNL     1      22.695   4.635  51.598  1.00  0.00     0.102 A 
HETATM    2  C3  UNL     1      23.592   4.241  52.454  1.00  0.00     0.053 A 
HETATM    3  C4  UNL     1      23.961   2.883  52.765  1.00  0.00    -0.009 A 
HETATM    4  P1  UNL     1      23.097   1.502  51.894  1.00  0.00    -0.060 P 
HETATM    5  C11 UNL     1      22.028   0.601  53.151  1.00  0.00     0.053 C 
HETATM    6  C12 UNL     1      21.947   2.432  50.806  1.00  0.00     0.050 A 
HETATM    7  C13 UNL     1      21.915   3.736  50.814  1.00  0.00     0.102 A 
ENDROOT
BRANCH   3   8
HETATM    8  C5  UNL     1      24.881   2.716  53.645  1.00  0.00     0.102 C 
BRANCH   8   9
HETATM    9  N1  UNL     1      26.167   2.625  53.065  1.00  0.00    -0.348 N 
HETATM   10  H6  UNL     1      26.153   3.239  52.216  1.00  0.00     0.167 HD
BRANCH   9  11
HETATM   11  C6  UNL     1      27.347   1.915  53.403  1.00  0.00     0.159 A 
HETATM   12  N2  UNL     1      28.297   2.539  54.130  1.00  0.00    -0.224 NA
HETATM   13  C7  UNL     1      29.286   1.636  54.287  1.00  0.00     0.212 A 
HETATM   14  N3  UNL     1      28.931   0.504  53.667  1.00  0.00    -0.340 N 
HETATM   15  C8  UNL     1      29.702  -0.720  53.575  1.00  0.00     0.157 C 
HETATM   16  C9  UNL     1      27.725   0.633  53.101  1.00  0.00     0.119 A 
BRANCH  16  17
HETATM   17  C10 UNL     1      26.869  -0.239  52.325  1.00  0.00     0.292 C 
HETATM   18  O2  UNL     1      26.553  -1.417  52.529  1.00  0.00    -0.300 OA
ENDBRANCH  16  17
ENDBRANCH   9  11
ENDBRANCH   8   9
ENDBRANCH   3   8
BRANCH   1  19
HETATM   19  O1  UNL     1      22.330   5.966  51.291  1.00  0.00    -0.353 OA
HETATM   20  C1  UNL     1      23.415   6.720  50.707  1.00  0.00     0.210 C 
ENDBRANCH   1  19
BRANCH   7  21
HETATM   21  O3  UNL     1      20.921   4.042  49.856  1.00  0.00    -0.353 OA
HETATM   22  C14 UNL     1      19.591   3.863  50.381  1.00  0.00     0.210 C 
ENDBRANCH   7  21
TORSDOF 6
ENDMDL
MODEL 6
REMARK VINA RESULT:      -5.9      4.344      6.269
REMARK  6 active torsions:
REMARK  status: ('A' for Active; 'I' for Inactive)
REMARK    1  A    between atoms: O1_2  and  C2_3 
REMARK    2  A    between atoms: C4_5  and  C5_6 
REMARK    3  A    between atoms: C5_6  and  N1_7 
REMARK    4  A    between atoms: N1_7  and  C6_8 
REMARK    5  A    between atoms: C9_13  and  C10_14 
REMARK    6  A    between atoms: C13_19  and  O3_20 
ROOT
HETATM    1  C2  UNL     1      27.291   6.100  48.319  1.00  0.00     0.102 A 
HETATM    2  C3  UNL     1      27.323   4.939  48.905  1.00  0.00     0.053 A 
HETATM    3  C4  UNL     1      26.208   4.214  49.461  1.00  0.00    -0.009 A 
HETATM    4  P1  UNL     1      24.522   4.964  49.371  1.00  0.00    -0.060 P 
HETATM    5  C11 UNL     1      23.997   5.425  51.116  1.00  0.00     0.053 C 
HETATM    6  C12 UNL     1      24.880   6.541  48.503  1.00  0.00     0.050 A 
HETATM    7  C13 UNL     1      26.093   6.852  48.138  1.00  0.00     0.102 A 
ENDROOT
BRANCH   3   8
HETATM    8  C5  UNL     1      26.462   3.075  49.995  1.00  0.00     0.102 C 
BRANCH   8   9
HETATM    9  N1  UNL     1      26.861   3.193  51.346  1.00  0.00    -0.348 N 
HETATM   10  H6  UNL     1      27.042   4.212  51.513  1.00  0.00     0.167 HD
BRANCH   9  11
HETATM   11  C6  UNL     1      27.041   2.263  52.401  1.00  0.00     0.159 A 
HETATM   12  N2  UNL     1      28.292   1.876  52.723  1.00  0.00    -0.224 NA
HETATM   13  C7  UNL     1      28.152   0.999  53.737  1.00  0.00     0.212 A 
HETATM   14  N3  UNL     1      26.847   0.868  54.009  1.00  0.00    -0.340 N 
HETATM   15  C8  UNL     1      26.247   0.019  55.019  1.00  0.00     0.157 C 
HETATM   16  C9  UNL     1      26.116   1.641  53.198  1.00  0.00     0.119 A 
BRANCH  16  17
HETATM   17  C10 UNL     1      24.698   1.895  53.044  1.00  0.00     0.292 C 
HETATM   18  O2  UNL     1      24.005   1.894  52.020  1.00  0.00    -0.300 OA
ENDBRANCH  16  17
ENDBRANCH   9  11
ENDBRANCH   8   9
ENDBRANCH   3   8
BRANCH   1  19
HETATM   19  O1  UNL     1      28.382   6.815  47.774  1.00  0.00    -0.353 OA
HETATM   20  C1  UNL     1      29.646   6.150  47.990  1.00  0.00     0.210 C 
ENDBRANCH   1  19
BRANCH   7  21
HETATM   21  O3  UNL     1      25.934   8.112  47.517  1.00  0.00    -0.353 OA
HETATM   22  C14 UNL     1      24.726   8.180  46.733  1.00  0.00     0.210 C 
ENDBRANCH   7  21
TORSDOF 6
ENDMDL
MODEL 7
REMARK VINA RESULT:      -5.8      2.977      6.240
REMARK  6 active torsions:
REMARK  status: ('A' for Active; 'I' for Inactive)
REMARK    1  A    between atoms: O1_2  and  C2_3 
REMARK    2  A    between atoms: C4_5  and  C5_6 
REMARK    3  A    between atoms: C5_6  and  N1_7 
REMARK    4  A    between atoms: N1_7  and  C6_8 
REMARK    5  A    between atoms: C9_13  and  C10_14 
REMARK    6  A    between atoms: C13_19  and  O3_20 
ROOT
HETATM    1  C2  UNL     1      25.632  -0.246  54.418  1.00  0.00     0.102 A 
HETATM    2  C3  UNL     1      24.639   0.220  53.720  1.00  0.00     0.053 A 
HETATM    3  C4  UNL     1      24.697   0.796  52.400  1.00  0.00    -0.009 A 
HETATM    4  P1  UNL     1      26.334   0.922  51.553  1.00  0.00    -0.060 P 
HETATM    5  C11 UNL     1      26.792   2.742  51.442  1.00  0.00     0.053 C 
HETATM    6  C12 UNL     1      27.445   0.184  52.815  1.00  0.00     0.050 A 
HETATM    7  C13 UNL     1      26.980  -0.251  53.953  1.00  0.00     0.102 A 
ENDROOT
BRANCH   3   8
HETATM    8  C5  UNL     1      23.589   1.193  51.888  1.00  0.00     0.102 C 
BRANCH   8   9
HETATM    9  N1  UNL     1      23.158   2.425  52.433  1.00  0.00    -0.348 N 
HETATM   10  H6  UNL     1      22.978   2.251  53.450  1.00  0.00     0.167 HD
BRANCH   9  11
HETATM   11  C6  UNL     1      22.951   3.718  51.890  1.00  0.00     0.159 A 
HETATM   12  N2  UNL     1      24.022   4.451  51.524  1.00  0.00    -0.224 NA
HETATM   13  C7  UNL     1      23.525   5.615  51.059  1.00  0.00     0.212 A 
HETATM   14  N3  UNL     1      22.189   5.573  51.149  1.00  0.00    -0.340 N 
HETATM   15  C8  UNL     1      21.256   6.616  50.772  1.00  0.00     0.157 C 
HETATM   16  C9  UNL     1      21.787   4.405  51.663  1.00  0.00     0.119 A 
BRANCH  16  17
HETATM   17  C10 UNL     1      20.498   3.825  51.978  1.00  0.00     0.292 C 
HETATM   18  O2  UNL     1      20.215   2.917  52.769  1.00  0.00    -0.300 OA
ENDBRANCH  16  17
ENDBRANCH   9  11
ENDBRANCH   8   9
ENDBRANCH   3   8
BRANCH   1  19
HETATM   19  O1  UNL     1      25.579  -0.810  55.713  1.00  0.00    -0.353 OA
HETATM   20  C1  UNL     1      24.290  -1.388  56.016  1.00  0.00     0.210 C 
ENDBRANCH   1  19
BRANCH   7  21
HETATM   21  O3  UNL     1      28.134  -0.731  54.614  1.00  0.00    -0.353 OA
HETATM   22  C14 UNL     1      29.218  -0.978  53.697  1.00  0.00     0.210 C 
ENDBRANCH   7  21
TORSDOF 6
ENDMDL
MODEL 8
REMARK VINA RESULT:      -5.8      3.061      5.133
REMARK  6 active torsions:
REMARK  status: ('A' for Active; 'I' for Inactive)
REMARK    1  A    between atoms: O1_2  and  C2_3 
REMARK    2  A    between atoms: C4_5  and  C5_6 
REMARK    3  A    between atoms: C5_6  and  N1_7 
REMARK    4  A    between atoms: N1_7  and  C6_8 
REMARK    5  A    between atoms: C9_13  and  C10_14 
REMARK    6  A    between atoms: C13_19  and  O3_20 
ROOT
HETATM    1  C2  UNL     1      22.890   1.585  52.653  1.00  0.00     0.102 A 
HETATM    2  C3  UNL     1      23.965   2.019  52.063  1.00  0.00     0.053 A 
HETATM    3  C4  UNL     1      25.286   1.446  52.129  1.00  0.00    -0.009 A 
HETATM    4  P1  UNL     1      25.551  -0.069  53.153  1.00  0.00    -0.060 P 
HETATM    5  C11 UNL     1      26.608   0.407  54.633  1.00  0.00     0.053 C 
HETATM    6  C12 UNL     1      23.857  -0.362  53.798  1.00  0.00     0.050 A 
HETATM    7  C13 UNL     1      22.868   0.429  53.486  1.00  0.00     0.102 A 
ENDROOT
BRANCH   3   8
HETATM    8  C5  UNL     1      26.211   2.035  51.463  1.00  0.00     0.102 C 
BRANCH   8   9
HETATM    9  N1  UNL     1      25.692   2.948  50.516  1.00  0.00    -0.348 N 
HETATM   10  H6  UNL     1      24.692   2.675  50.359  1.00  0.00     0.167 HD
BRANCH   9  11
HETATM   11  C6  UNL     1      26.239   4.053  49.817  1.00  0.00     0.159 A 
HETATM   12  N2  UNL     1      27.417   3.902  49.178  1.00  0.00    -0.224 NA
HETATM   13  C7  UNL     1      27.684   5.099  48.619  1.00  0.00     0.212 A 
HETATM   14  N3  UNL     1      26.688   5.942  48.921  1.00  0.00    -0.340 N 
HETATM   15  C8  UNL     1      26.575   7.334  48.535  1.00  0.00     0.157 C 
HETATM   16  C9  UNL     1      25.762   5.330  49.669  1.00  0.00     0.119 A 
BRANCH  16  17
HETATM   17  C10 UNL     1      24.508   5.738  50.267  1.00  0.00     0.292 C 
HETATM   18  O2  UNL     1      24.116   5.615  51.433  1.00  0.00    -0.300 OA
ENDBRANCH  16  17
ENDBRANCH   9  11
ENDBRANCH   8   9
ENDBRANCH   3   8
BRANCH   1  19
HETATM   19  O1  UNL     1      21.593   2.145  52.591  1.00  0.00    -0.353 OA
HETATM   20  C1  UNL     1      21.337   2.819  51.340  1.00  0.00     0.210 C 
ENDBRANCH   1  19
BRANCH   7  21
HETATM   21  O3  UNL     1      21.769  -0.138  54.172  1.00  0.00    -0.353 OA
HETATM   22  C14 UNL     1      21.977  -1.534  54.464  1.00  0.00     0.210 C 
ENDBRANCH   7  21
TORSDOF 6
ENDMDL
MODEL 9
REMARK VINA RESULT:      -5.8      3.507      5.997
REMARK  6 active torsions:
REMARK  status: ('A' for Active; 'I' for Inactive)
REMARK    1  A    between atoms: O1_2  and  C2_3 
REMARK    2  A    between atoms: C4_5  and  C5_6 
REMARK    3  A    between atoms: C5_6  and  N1_7 
REMARK    4  A    between atoms: N1_7  and  C6_8 
REMARK    5  A    between atoms: C9_13  and  C10_14 
REMARK    6  A    between atoms: C13_19  and  O3_20 
ROOT
HETATM    1  C2  UNL     1      26.384   0.357  52.380  1.00  0.00     0.102 A 
HETATM    2  C3  UNL     1      26.731   1.310  51.566  1.00  0.00     0.053 A 
HETATM    3  C4  UNL     1      25.918   2.414  51.120  1.00  0.00    -0.009 A 
HETATM    4  P1  UNL     1      24.180   2.544  51.730  1.00  0.00    -0.060 P 
HETATM    5  C11 UNL     1      23.029   2.217  50.280  1.00  0.00     0.053 C 
HETATM    6  C12 UNL     1      24.073   1.069  52.819  1.00  0.00     0.050 A 
HETATM    7  C13 UNL     1      25.091   0.267  52.972  1.00  0.00     0.102 A 
ENDROOT
BRANCH   3   8
HETATM    8  C5  UNL     1      26.462   3.250  50.312  1.00  0.00     0.102 C 
BRANCH   8   9
HETATM    9  N1  UNL     1      25.952   4.558  50.471  1.00  0.00    -0.348 N 
HETATM   10  H6  UNL     1      25.437   4.566  51.384  1.00  0.00     0.167 HD
BRANCH   9  11
HETATM   11  C6  UNL     1      26.012   5.737  49.685  1.00  0.00     0.159 A 
HETATM   12  N2  UNL     1      26.853   5.775  48.631  1.00  0.00    -0.224 NA
HETATM   13  C7  UNL     1      26.701   7.000  48.089  1.00  0.00     0.212 A 
HETATM   14  N3  UNL     1      25.791   7.673  48.806  1.00  0.00    -0.340 N 
HETATM   15  C8  UNL     1      25.332   9.029  48.581  1.00  0.00     0.157 C 
HETATM   16  C9  UNL     1      25.333   6.921  49.813  1.00  0.00     0.119 A 
BRANCH  16  17
HETATM   17  C10 UNL     1      24.370   7.123  50.875  1.00  0.00     0.292 C 
HETATM   18  O2  UNL     1      23.730   6.290  51.528  1.00  0.00    -0.300 OA
ENDBRANCH  16  17
ENDBRANCH   9  11
ENDBRANCH   8   9
ENDBRANCH   3   8
BRANCH   1  19
HETATM   19  O1  UNL     1      27.178  -0.727  52.818  1.00  0.00    -0.353 OA
HETATM   20  C1  UNL     1      28.200  -0.326  53.757  1.00  0.00     0.210 C 
ENDBRANCH   1  19
BRANCH   7  21
HETATM   21  O3  UNL     1      24.602  -0.711  53.869  1.00  0.00    -0.353 OA
HETATM   22  C14 UNL     1      23.162  -0.705  53.942  1.00  0.00     0.210 C 
ENDBRANCH   7  21
TORSDOF 6
ENDMDL
