MODEL 1
REMARK VINA RESULT:     -10.3      0.000      0.000
REMARK  3 active torsions:
REMARK  status: ('A' for Active; 'I' for Inactive)
REMARK    1  A    between atoms: C5_5  and  O1_6 
REMARK    2  A    between atoms: C7_8  and  N1_9 
REMARK    3  A    between atoms: C15_20  and  N4_21 
ROOT
HETATM    1  N1  UNL     1      25.641   0.311  53.180  1.00  0.00    -0.261 N 
HETATM    2  C8  UNL     1      24.813  -0.395  53.971  1.00  0.00     0.261 A 
HETATM    3  O2  UNL     1      25.251  -1.158  54.869  1.00  0.00    -0.267 OA
HETATM    4  C9  UNL     1      23.455  -0.273  53.785  1.00  0.00     0.020 A 
HETATM    5  C10 UNL     1      22.840   0.526  52.840  1.00  0.00     0.002 A 
HETATM    6  C11 UNL     1      23.743   1.223  52.063  1.00  0.00     0.037 A 
HETATM    7  C12 UNL     1      23.404   2.093  51.049  1.00  0.00     0.134 A 
HETATM    8  N2  UNL     1      24.314   2.755  50.315  1.00  0.00    -0.253 NA
HETATM    9  C13 UNL     1      25.632   2.600  50.535  1.00  0.00     0.234 A 
HETATM   10  N3  UNL     1      26.038   1.766  51.510  1.00  0.00    -0.223 NA
HETATM   11  C14 UNL     1      25.110   1.109  52.238  1.00  0.00     0.151 A 
HETATM   12  C15 UNL     1      21.421   0.725  52.557  1.00  0.00     0.252 C 
HETATM   13  C16 UNL     1      20.609  -0.186  53.446  1.00  0.00     0.041 C 
HETATM   14  C17 UNL     1      21.199  -0.410  54.797  1.00  0.00     0.007 C 
HETATM   15  C18 UNL     1      22.564  -1.063  54.687  1.00  0.00     0.045 C 
ENDROOT
BRANCH   1  16
HETATM   16  C7  UNL     1      27.030   0.142  53.419  1.00  0.00     0.053 A 
HETATM   17  C2  UNL     1      27.770  -0.957  53.031  1.00  0.00    -0.034 A 
HETATM   18  C1  UNL     1      27.082  -2.045  52.315  1.00  0.00     0.050 C 
HETATM   19  C3  UNL     1      29.120  -1.040  53.305  1.00  0.00     0.012 A 
HETATM   20  C4  UNL     1      29.711   0.008  53.978  1.00  0.00     0.037 A 
HETATM   21  C5  UNL     1      28.981   1.128  54.379  1.00  0.00     0.067 A 
HETATM   22  C6  UNL     1      27.624   1.198  54.097  1.00  0.00     0.067 A 
BRANCH  21  23
HETATM   23  O1  UNL     1      29.573   2.192  55.061  1.00  0.00    -0.361 OA
HETATM   24  H6  UNL     1      30.504   2.001  55.460  1.00  0.00     0.217 HD
ENDBRANCH  21  23
ENDBRANCH   1  16
BRANCH  12  25
HETATM   25  N4  UNL     1      21.056   0.345  51.199  1.00  0.00     0.087 N 
HETATM   26  H11 UNL     1      20.062   0.550  51.021  1.00  0.00     0.313 HD
HETATM   27  H12 UNL     1      21.724   0.871  50.574  1.00  0.00     0.313 HD
ENDBRANCH  12  25
TORSDOF 3
ENDMDL
MODEL 2
REMARK VINA RESULT:     -10.3      1.575      3.205
REMARK  3 active torsions:
REMARK  status: ('A' for Active; 'I' for Inactive)
REMARK    1  A    between atoms: C5_5  and  O1_6 
REMARK    2  A    between atoms: C7_8  and  N1_9 
REMARK    3  A    between atoms: C15_20  and  N4_21 
ROOT
HETATM    1  N1  UNL     1      25.564   0.246  53.145  1.00  0.00    -0.261 N 
HETATM    2  C8  UNL     1      25.183   0.961  52.072  1.00  0.00     0.261 A 
HETATM    3  O2  UNL     1      26.024   1.493  51.303  1.00  0.00    -0.267 OA
HETATM    4  C9  UNL     1      23.839   1.111  51.817  1.00  0.00     0.020 A 
HETATM    5  C10 UNL     1      22.812   0.583  52.577  1.00  0.00     0.002 A 
HETATM    6  C11 UNL     1      23.269  -0.139  53.661  1.00  0.00     0.037 A 
HETATM    7  C12 UNL     1      22.462  -0.774  54.580  1.00  0.00     0.134 A 
HETATM    8  N2  UNL     1      22.945  -1.470  55.624  1.00  0.00    -0.253 NA
HETATM    9  C13 UNL     1      24.270  -1.586  55.830  1.00  0.00     0.234 A 
HETATM   10  N3  UNL     1      25.118  -0.992  54.971  1.00  0.00    -0.223 NA
HETATM   11  C14 UNL     1      24.616  -0.296  53.929  1.00  0.00     0.151 A 
HETATM   12  C15 UNL     1      21.366   0.683  52.401  1.00  0.00     0.252 C 
HETATM   13  C16 UNL     1      21.074   1.580  51.223  1.00  0.00     0.041 C 
HETATM   14  C17 UNL     1      22.076   1.493  50.121  1.00  0.00     0.007 C 
HETATM   15  C18 UNL     1      23.452   1.903  50.611  1.00  0.00     0.045 C 
ENDROOT
BRANCH   1  16
HETATM   16  C7  UNL     1      26.963   0.129  53.356  1.00  0.00     0.053 A 
HETATM   17  C2  UNL     1      27.718  -0.982  53.037  1.00  0.00    -0.034 A 
HETATM   18  C1  UNL     1      27.037  -2.140  52.431  1.00  0.00     0.050 C 
HETATM   19  C3  UNL     1      29.076  -1.013  53.277  1.00  0.00     0.012 A 
HETATM   20  C4  UNL     1      29.660   0.098  53.846  1.00  0.00     0.037 A 
HETATM   21  C5  UNL     1      28.915   1.232  54.176  1.00  0.00     0.067 A 
HETATM   22  C6  UNL     1      27.549   1.249  53.929  1.00  0.00     0.067 A 
BRANCH  21  23
HETATM   23  O1  UNL     1      29.500   2.360  54.752  1.00  0.00    -0.361 OA
HETATM   24  H6  UNL     1      30.056   2.947  54.114  1.00  0.00     0.217 HD
ENDBRANCH  21  23
ENDBRANCH   1  16
BRANCH  12  25
HETATM   25  N4  UNL     1      20.701   1.319  53.530  1.00  0.00     0.087 N 
HETATM   26  H11 UNL     1      19.941   0.721  53.886  1.00  0.00     0.313 HD
HETATM   27  H12 UNL     1      21.465   1.509  54.231  1.00  0.00     0.313 HD
ENDBRANCH  12  25
TORSDOF 3
ENDMDL
MODEL 3
REMARK VINA RESULT:      -9.3      1.950      3.775
REMARK  3 active torsions:
REMARK  status: ('A' for Active; 'I' for Inactive)
REMARK    1  A    between atoms: C5_5  and  O1_6 
REMARK    2  A    between atoms: C7_8  and  N1_9 
REMARK    3  A    between atoms: C15_20  and  N4_21 
ROOT
HETATM    1  N1  UNL     1      25.101   0.229  52.938  1.00  0.00    -0.261 N 
HETATM    2  C8  UNL     1      24.921   1.024  51.868  1.00  0.00     0.261 A 
HETATM    3  O2  UNL     1      25.890   1.420  51.171  1.00  0.00    -0.267 OA
HETATM    4  C9  UNL     1      23.642   1.409  51.535  1.00  0.00     0.020 A 
HETATM    5  C10 UNL     1      22.492   1.049  52.211  1.00  0.00     0.002 A 
HETATM    6  C11 UNL     1      22.744   0.234  53.296  1.00  0.00     0.037 A 
HETATM    7  C12 UNL     1      21.781  -0.273  54.141  1.00  0.00     0.134 A 
HETATM    8  N2  UNL     1      22.067  -1.066  55.188  1.00  0.00    -0.253 NA
HETATM    9  C13 UNL     1      23.336  -1.414  55.472  1.00  0.00     0.234 A 
HETATM   10  N3  UNL     1      24.329  -0.956  54.689  1.00  0.00    -0.223 NA
HETATM   11  C14 UNL     1      24.024  -0.160  53.642  1.00  0.00     0.151 A 
HETATM   12  C15 UNL     1      21.099   1.401  51.949  1.00  0.00     0.252 C 
HETATM   13  C16 UNL     1      21.045   2.363  50.787  1.00  0.00     0.041 C 
HETATM   14  C17 UNL     1      22.088   2.130  49.748  1.00  0.00     0.007 C 
HETATM   15  C18 UNL     1      23.479   2.284  50.336  1.00  0.00     0.045 C 
ENDROOT
BRANCH   1  16
HETATM   16  C7  UNL     1      26.442  -0.134  53.231  1.00  0.00     0.053 A 
HETATM   17  C2  UNL     1      27.373   0.697  53.821  1.00  0.00    -0.034 A 
HETATM   18  C1  UNL     1      26.961   2.066  54.180  1.00  0.00     0.050 C 
HETATM   19  C3  UNL     1      28.659   0.264  54.071  1.00  0.00     0.012 A 
HETATM   20  C4  UNL     1      28.989  -1.026  53.713  1.00  0.00     0.037 A 
HETATM   21  C5  UNL     1      28.062  -1.883  53.116  1.00  0.00     0.067 A 
HETATM   22  C6  UNL     1      26.772  -1.433  52.871  1.00  0.00     0.067 A 
BRANCH  21  23
HETATM   23  O1  UNL     1      28.390  -3.190  52.752  1.00  0.00    -0.361 OA
HETATM   24  H6  UNL     1      29.375  -3.457  52.894  1.00  0.00     0.217 HD
ENDBRANCH  21  23
ENDBRANCH   1  16
BRANCH  12  25
HETATM   25  N4  UNL     1      20.479   2.117  53.056  1.00  0.00     0.087 N 
HETATM   26  H11 UNL     1      19.663   1.596  53.412  1.00  0.00     0.313 HD
HETATM   27  H12 UNL     1      21.247   2.252  53.766  1.00  0.00     0.313 HD
ENDBRANCH  12  25
TORSDOF 3
ENDMDL
MODEL 4
REMARK VINA RESULT:      -9.1      2.827      5.034
REMARK  3 active torsions:
REMARK  status: ('A' for Active; 'I' for Inactive)
REMARK    1  A    between atoms: C5_5  and  O1_6 
REMARK    2  A    between atoms: C7_8  and  N1_9 
REMARK    3  A    between atoms: C15_20  and  N4_21 
ROOT
HETATM    1  N1  UNL     1      23.342   2.380  51.854  1.00  0.00    -0.261 N 
HETATM    2  C8  UNL     1      22.098   2.126  52.295  1.00  0.00     0.261 A 
HETATM    3  O2  UNL     1      21.143   2.910  52.061  1.00  0.00    -0.267 OA
HETATM    4  C9  UNL     1      21.873   0.978  53.020  1.00  0.00     0.020 A 
HETATM    5  C10 UNL     1      22.827   0.033  53.349  1.00  0.00     0.002 A 
HETATM    6  C11 UNL     1      24.080   0.352  52.867  1.00  0.00     0.037 A 
HETATM    7  C12 UNL     1      25.212  -0.415  53.046  1.00  0.00     0.134 A 
HETATM    8  N2  UNL     1      26.416  -0.070  52.559  1.00  0.00    -0.253 NA
HETATM    9  C13 UNL     1      26.584   1.065  51.856  1.00  0.00     0.234 A 
HETATM   10  N3  UNL     1      25.523   1.863  51.641  1.00  0.00    -0.223 NA
HETATM   11  C14 UNL     1      24.321   1.502  52.138  1.00  0.00     0.151 A 
HETATM   12  C15 UNL     1      22.698  -1.207  54.109  1.00  0.00     0.252 C 
HETATM   13  C16 UNL     1      21.283  -1.326  54.620  1.00  0.00     0.041 C 
HETATM   14  C17 UNL     1      20.250  -0.762  53.705  1.00  0.00     0.007 C 
HETATM   15  C18 UNL     1      20.477   0.722  53.486  1.00  0.00     0.045 C 
ENDROOT
BRANCH   1  16
HETATM   16  C7  UNL     1      23.512   3.579  51.113  1.00  0.00     0.053 A 
HETATM   17  C2  UNL     1      23.364   3.689  49.745  1.00  0.00    -0.034 A 
HETATM   18  C1  UNL     1      23.002   2.482  48.982  1.00  0.00     0.050 C 
HETATM   19  C3  UNL     1      23.549   4.896  49.103  1.00  0.00     0.012 A 
HETATM   20  C4  UNL     1      23.887   5.992  49.867  1.00  0.00     0.037 A 
HETATM   21  C5  UNL     1      24.042   5.903  51.252  1.00  0.00     0.067 A 
HETATM   22  C6  UNL     1      23.853   4.682  51.884  1.00  0.00     0.067 A 
BRANCH  21  23
HETATM   23  O1  UNL     1      24.384   7.009  52.031  1.00  0.00    -0.361 OA
HETATM   24  H6  UNL     1      25.092   6.837  52.759  1.00  0.00     0.217 HD
ENDBRANCH  21  23
ENDBRANCH   1  16
BRANCH  12  25
HETATM   25  N4  UNL     1      23.531  -1.225  55.305  1.00  0.00     0.087 N 
HETATM   26  H11 UNL     1      22.954  -1.392  56.144  1.00  0.00     0.313 HD
HETATM   27  H12 UNL     1      24.257  -1.968  55.126  1.00  0.00     0.313 HD
ENDBRANCH  12  25
TORSDOF 3
ENDMDL
MODEL 5
REMARK VINA RESULT:      -8.3      3.681      5.381
REMARK  3 active torsions:
REMARK  status: ('A' for Active; 'I' for Inactive)
REMARK    1  A    between atoms: C5_5  and  O1_6 
REMARK    2  A    between atoms: C7_8  and  N1_9 
REMARK    3  A    between atoms: C15_20  and  N4_21 
ROOT
HETATM    1  N1  UNL     1      22.319   2.930  51.596  1.00  0.00    -0.261 N 
HETATM    2  C8  UNL     1      22.996   1.923  52.175  1.00  0.00     0.261 A 
HETATM    3  O2  UNL     1      24.252   1.865  52.137  1.00  0.00    -0.267 OA
HETATM    4  C9  UNL     1      22.290   0.935  52.824  1.00  0.00     0.020 A 
HETATM    5  C10 UNL     1      20.914   0.874  52.941  1.00  0.00     0.002 A 
HETATM    6  C11 UNL     1      20.280   1.935  52.327  1.00  0.00     0.037 A 
HETATM    7  C12 UNL     1      18.915   2.125  52.294  1.00  0.00     0.134 A 
HETATM    8  N2  UNL     1      18.334   3.174  51.687  1.00  0.00    -0.253 NA
HETATM    9  C13 UNL     1      19.070   4.113  51.065  1.00  0.00     0.234 A 
HETATM   10  N3  UNL     1      20.410   3.994  51.057  1.00  0.00    -0.223 NA
HETATM   11  C14 UNL     1      20.976   2.934  51.672  1.00  0.00     0.151 A 
HETATM   12  C15 UNL     1      20.070  -0.121  53.597  1.00  0.00     0.252 C 
HETATM   13  C16 UNL     1      20.942  -1.235  54.123  1.00  0.00     0.041 C 
HETATM   14  C17 UNL     1      22.285  -0.794  54.596  1.00  0.00     0.007 C 
HETATM   15  C18 UNL     1      23.075  -0.163  53.464  1.00  0.00     0.045 C 
ENDROOT
BRANCH   1  16
HETATM   16  C7  UNL     1      23.102   3.918  50.943  1.00  0.00     0.053 A 
HETATM   17  C2  UNL     1      23.496   3.865  49.621  1.00  0.00    -0.034 A 
HETATM   18  C1  UNL     1      23.082   2.703  48.814  1.00  0.00     0.050 C 
HETATM   19  C3  UNL     1      24.260   4.870  49.064  1.00  0.00     0.012 A 
HETATM   20  C4  UNL     1      24.618   5.932  49.866  1.00  0.00     0.037 A 
HETATM   21  C5  UNL     1      24.230   6.005  51.205  1.00  0.00     0.067 A 
HETATM   22  C6  UNL     1      23.462   4.986  51.752  1.00  0.00     0.067 A 
BRANCH  21  23
HETATM   23  O1  UNL     1      24.590   7.078  52.022  1.00  0.00    -0.361 OA
HETATM   24  H6  UNL     1      24.532   6.903  53.036  1.00  0.00     0.217 HD
ENDBRANCH  21  23
ENDBRANCH   1  16
BRANCH  12  25
HETATM   25  N4  UNL     1      19.145  -0.771  52.679  1.00  0.00     0.087 N 
HETATM   26  H11 UNL     1      19.594  -0.926  51.763  1.00  0.00     0.313 HD
HETATM   27  H12 UNL     1      18.845  -1.656  53.167  1.00  0.00     0.313 HD
ENDBRANCH  12  25
TORSDOF 3
ENDMDL
MODEL 6
REMARK VINA RESULT:      -8.2      3.158      5.829
REMARK  3 active torsions:
REMARK  status: ('A' for Active; 'I' for Inactive)
REMARK    1  A    between atoms: C5_5  and  O1_6 
REMARK    2  A    between atoms: C7_8  and  N1_9 
REMARK    3  A    between atoms: C15_20  and  N4_21 
ROOT
HETATM    1  N1  UNL     1      23.159   2.841  51.423  1.00  0.00    -0.261 N 
HETATM    2  C8  UNL     1      22.329   2.101  52.179  1.00  0.00     0.261 A 
HETATM    3  O2  UNL     1      21.091   2.322  52.207  1.00  0.00    -0.267 OA
HETATM    4  C9  UNL     1      22.855   1.081  52.939  1.00  0.00     0.020 A 
HETATM    5  C10 UNL     1      24.191   0.732  53.003  1.00  0.00     0.002 A 
HETATM    6  C11 UNL     1      24.988   1.527  52.205  1.00  0.00     0.037 A 
HETATM    7  C12 UNL     1      26.355   1.397  52.078  1.00  0.00     0.134 A 
HETATM    8  N2  UNL     1      27.097   2.191  51.288  1.00  0.00    -0.253 NA
HETATM    9  C13 UNL     1      26.534   3.177  50.565  1.00  0.00     0.234 A 
HETATM   10  N3  UNL     1      25.204   3.362  50.639  1.00  0.00    -0.223 NA
HETATM   11  C14 UNL     1      24.473   2.556  51.438  1.00  0.00     0.151 A 
HETATM   12  C15 UNL     1      24.851  -0.319  53.772  1.00  0.00     0.252 C 
HETATM   13  C16 UNL     1      23.828  -1.010  54.641  1.00  0.00     0.041 C 
HETATM   14  C17 UNL     1      22.470  -1.106  54.032  1.00  0.00     0.007 C 
HETATM   15  C18 UNL     1      21.903   0.274  53.759  1.00  0.00     0.045 C 
ENDROOT
BRANCH   1  16
HETATM   16  C7  UNL     1      22.558   3.878  50.663  1.00  0.00     0.053 A 
HETATM   17  C2  UNL     1      22.134   3.754  49.355  1.00  0.00    -0.034 A 
HETATM   18  C1  UNL     1      22.311   2.454  48.684  1.00  0.00     0.050 C 
HETATM   19  C3  UNL     1      21.559   4.816  48.688  1.00  0.00     0.012 A 
HETATM   20  C4  UNL     1      21.420   6.008  49.365  1.00  0.00     0.037 A 
HETATM   21  C5  UNL     1      21.842   6.155  50.688  1.00  0.00     0.067 A 
HETATM   22  C6  UNL     1      22.419   5.078  51.346  1.00  0.00     0.067 A 
BRANCH  21  23
HETATM   23  O1  UNL     1      21.703   7.360  51.379  1.00  0.00    -0.361 OA
HETATM   24  H6  UNL     1      21.208   8.109  50.872  1.00  0.00     0.217 HD
ENDBRANCH  21  23
ENDBRANCH   1  16
BRANCH  12  25
HETATM   25  N4  UNL     1      25.844   0.200  54.703  1.00  0.00     0.087 N 
HETATM   26  H11 UNL     1      25.705   1.211  54.853  1.00  0.00     0.313 HD
HETATM   27  H12 UNL     1      25.738  -0.383  55.576  1.00  0.00     0.313 HD
ENDBRANCH  12  25
TORSDOF 3
ENDMDL
MODEL 7
REMARK VINA RESULT:      -7.9      3.002      6.375
REMARK  3 active torsions:
REMARK  status: ('A' for Active; 'I' for Inactive)
REMARK    1  A    between atoms: C5_5  and  O1_6 
REMARK    2  A    between atoms: C7_8  and  N1_9 
REMARK    3  A    between atoms: C15_20  and  N4_21 
ROOT
HETATM    1  N1  UNL     1      22.338   1.974  51.461  1.00  0.00    -0.261 N 
HETATM    2  C8  UNL     1      22.515   0.969  52.336  1.00  0.00     0.261 A 
HETATM    3  O2  UNL     1      21.566   0.216  52.674  1.00  0.00    -0.267 OA
HETATM    4  C9  UNL     1      23.767   0.766  52.870  1.00  0.00     0.020 A 
HETATM    5  C10 UNL     1      24.893   1.516  52.588  1.00  0.00     0.002 A 
HETATM    6  C11 UNL     1      24.645   2.529  51.684  1.00  0.00     0.037 A 
HETATM    7  C12 UNL     1      25.589   3.424  51.226  1.00  0.00     0.134 A 
HETATM    8  N2  UNL     1      25.309   4.398  50.343  1.00  0.00    -0.253 NA
HETATM    9  C13 UNL     1      24.066   4.554  49.850  1.00  0.00     0.234 A 
HETATM   10  N3  UNL     1      23.094   3.717  50.253  1.00  0.00    -0.223 NA
HETATM   11  C14 UNL     1      23.393   2.745  51.140  1.00  0.00     0.151 A 
HETATM   12  C15 UNL     1      26.256   1.392  53.096  1.00  0.00     0.252 C 
HETATM   13  C16 UNL     1      26.298   0.292  54.130  1.00  0.00     0.041 C 
HETATM   14  C17 UNL     1      25.369  -0.842  53.857  1.00  0.00     0.007 C 
HETATM   15  C18 UNL     1      23.929  -0.366  53.831  1.00  0.00     0.045 C 
ENDROOT
BRANCH   1  16
HETATM   16  C7  UNL     1      21.025   2.133  50.945  1.00  0.00     0.053 A 
HETATM   17  C2  UNL     1      20.580   1.614  49.746  1.00  0.00    -0.034 A 
HETATM   18  C1  UNL     1      21.525   0.833  48.929  1.00  0.00     0.050 C 
HETATM   19  C3  UNL     1      19.284   1.817  49.318  1.00  0.00     0.012 A 
HETATM   20  C4  UNL     1      18.444   2.556  50.123  1.00  0.00     0.037 A 
HETATM   21  C5  UNL     1      18.874   3.090  51.339  1.00  0.00     0.067 A 
HETATM   22  C6  UNL     1      20.180   2.878  51.757  1.00  0.00     0.067 A 
BRANCH  21  23
HETATM   23  O1  UNL     1      18.028   3.839  52.159  1.00  0.00    -0.361 OA
HETATM   24  H6  UNL     1      17.490   3.300  52.853  1.00  0.00     0.217 HD
ENDBRANCH  21  23
ENDBRANCH   1  16
BRANCH  12  25
HETATM   25  N4  UNL     1      26.708   2.584  53.800  1.00  0.00     0.087 N 
HETATM   26  H11 UNL     1      27.710   2.752  53.620  1.00  0.00     0.313 HD
HETATM   27  H12 UNL     1      26.075   3.359  53.469  1.00  0.00     0.313 HD
ENDBRANCH  12  25
TORSDOF 3
ENDMDL
MODEL 8
REMARK VINA RESULT:      -7.8      2.937      6.053
REMARK  3 active torsions:
REMARK  status: ('A' for Active; 'I' for Inactive)
REMARK    1  A    between atoms: C5_5  and  O1_6 
REMARK    2  A    between atoms: C7_8  and  N1_9 
REMARK    3  A    between atoms: C15_20  and  N4_21 
ROOT
HETATM    1  N1  UNL     1      22.715   1.975  51.767  1.00  0.00    -0.261 N 
HETATM    2  C8  UNL     1      22.043   1.265  52.691  1.00  0.00     0.261 A 
HETATM    3  O2  UNL     1      20.794   1.355  52.810  1.00  0.00    -0.267 OA
HETATM    4  C9  UNL     1      22.747   0.424  53.522  1.00  0.00     0.020 A 
HETATM    5  C10 UNL     1      24.115   0.231  53.501  1.00  0.00     0.002 A 
HETATM    6  C11 UNL     1      24.744   0.986  52.531  1.00  0.00     0.037 A 
HETATM    7  C12 UNL     1      26.101   0.984  52.289  1.00  0.00     0.134 A 
HETATM    8  N2  UNL     1      26.677   1.733  51.333  1.00  0.00    -0.253 NA
HETATM    9  C13 UNL     1      25.944   2.541  50.546  1.00  0.00     0.234 A 
HETATM   10  N3  UNL     1      24.611   2.593  50.725  1.00  0.00    -0.223 NA
HETATM   11  C14 UNL     1      24.050   1.835  51.690  1.00  0.00     0.151 A 
HETATM   12  C15 UNL     1      24.956  -0.626  54.332  1.00  0.00     0.252 C 
HETATM   13  C16 UNL     1      24.097  -1.292  55.379  1.00  0.00     0.041 C 
HETATM   14  C17 UNL     1      22.715  -1.616  54.925  1.00  0.00     0.007 C 
HETATM   15  C18 UNL     1      21.967  -0.355  54.531  1.00  0.00     0.045 C 
ENDROOT
BRANCH   1  16
HETATM   16  C7  UNL     1      21.934   2.825  50.940  1.00  0.00     0.053 A 
HETATM   17  C2  UNL     1      21.697   4.163  51.184  1.00  0.00    -0.034 A 
HETATM   18  C1  UNL     1      22.291   4.769  52.389  1.00  0.00     0.050 C 
HETATM   19  C3  UNL     1      20.924   4.918  50.326  1.00  0.00     0.012 A 
HETATM   20  C4  UNL     1      20.394   4.298  49.215  1.00  0.00     0.037 A 
HETATM   21  C5  UNL     1      20.621   2.946  48.950  1.00  0.00     0.067 A 
HETATM   22  C6  UNL     1      21.401   2.199  49.822  1.00  0.00     0.067 A 
BRANCH  21  23
HETATM   23  O1  UNL     1      20.087   2.313  47.827  1.00  0.00    -0.361 OA
HETATM   24  H6  UNL     1      20.595   1.476  47.505  1.00  0.00     0.217 HD
ENDBRANCH  21  23
ENDBRANCH   1  16
BRANCH  12  25
HETATM   25  N4  UNL     1      25.954   0.121  55.086  1.00  0.00     0.087 N 
HETATM   26  H11 UNL     1      25.717   0.129  56.090  1.00  0.00     0.313 HD
HETATM   27  H12 UNL     1      26.875  -0.341  54.863  1.00  0.00     0.313 HD
ENDBRANCH  12  25
TORSDOF 3
ENDMDL
MODEL 9
REMARK VINA RESULT:      -7.8      9.264     12.063
REMARK  3 active torsions:
REMARK  status: ('A' for Active; 'I' for Inactive)
REMARK    1  A    between atoms: C5_5  and  O1_6 
REMARK    2  A    between atoms: C7_8  and  N1_9 
REMARK    3  A    between atoms: C15_20  and  N4_21 
ROOT
HETATM    1  N1  UNL     1      32.593   6.829  47.215  1.00  0.00    -0.261 N 
HETATM    2  C8  UNL     1      33.274   7.982  47.090  1.00  0.00     0.261 A 
HETATM    3  O2  UNL     1      34.477   8.000  46.724  1.00  0.00    -0.267 OA
HETATM    4  C9  UNL     1      32.631   9.166  47.371  1.00  0.00     0.020 A 
HETATM    5  C10 UNL     1      31.318   9.291  47.781  1.00  0.00     0.002 A 
HETATM    6  C11 UNL     1      30.676   8.074  47.889  1.00  0.00     0.037 A 
HETATM    7  C12 UNL     1      29.362   7.907  48.275  1.00  0.00     0.134 A 
HETATM    8  N2  UNL     1      28.772   6.703  48.366  1.00  0.00    -0.253 NA
HETATM    9  C13 UNL     1      29.445   5.574  48.081  1.00  0.00     0.234 A 
HETATM   10  N3  UNL     1      30.732   5.660  47.697  1.00  0.00    -0.223 NA
HETATM   11  C14 UNL     1      31.309   6.877  47.610  1.00  0.00     0.151 A 
HETATM   12  C15 UNL     1      30.544  10.486  48.107  1.00  0.00     0.252 C 
HETATM   13  C16 UNL     1      31.444  11.694  48.015  1.00  0.00     0.041 C 
HETATM   14  C17 UNL     1      32.489  11.603  46.956  1.00  0.00     0.007 C 
HETATM   15  C18 UNL     1      33.415  10.428  47.212  1.00  0.00     0.045 C 
ENDROOT
BRANCH   1  16
HETATM   16  C7  UNL     1      33.310   5.642  46.912  1.00  0.00     0.053 A 
HETATM   17  C2  UNL     1      33.452   5.107  45.647  1.00  0.00    -0.034 A 
HETATM   18  C1  UNL     1      32.819   5.809  44.516  1.00  0.00     0.050 C 
HETATM   19  C3  UNL     1      34.167   3.945  45.440  1.00  0.00     0.012 A 
HETATM   20  C4  UNL     1      34.737   3.331  46.535  1.00  0.00     0.037 A 
HETATM   21  C5  UNL     1      34.605   3.855  47.822  1.00  0.00     0.067 A 
HETATM   22  C6  UNL     1      33.883   5.025  48.015  1.00  0.00     0.067 A 
BRANCH  21  23
HETATM   23  O1  UNL     1      35.180   3.238  48.934  1.00  0.00    -0.361 OA
HETATM   24  H6  UNL     1      35.958   2.594  48.732  1.00  0.00     0.217 HD
ENDBRANCH  21  23
ENDBRANCH   1  16
BRANCH  12  25
HETATM   25  N4  UNL     1      30.056  10.486  49.480  1.00  0.00     0.087 N 
HETATM   26  H11 UNL     1      30.831  10.316  50.139  1.00  0.00     0.313 HD
HETATM   27  H12 UNL     1      29.580  11.419  49.605  1.00  0.00     0.313 HD
ENDBRANCH  12  25
TORSDOF 3
ENDMDL
