MODEL 1
REMARK VINA RESULT:      -8.2      0.000      0.000
REMARK  6 active torsions:
REMARK  status: ('A' for Active; 'I' for Inactive)
REMARK    1  A    between atoms: C2_2  and  C3_3 
REMARK       I    between atoms: C3_3  and  N1_5 
REMARK    2  A    between atoms: N1_5  and  C4_6 
REMARK    3  A    between atoms: C12_15  and  N3_16 
REMARK    4  A    between atoms: N3_16  and  C13_17 
REMARK    5  A    between atoms: C13_17  and  C14_18 
REMARK    6  A    between atoms: C14_18  and  C15_19 
ROOT
HETATM    1  C4  UNL     1      20.691  -0.543  53.863  1.00  0.00     0.035 A 
HETATM    2  C5  UNL     1      21.493  -1.526  54.414  1.00  0.00     0.032 A 
HETATM    3  C6  UNL     1      22.870  -1.437  54.335  1.00  0.00     0.040 A 
HETATM    4  C7  UNL     1      23.419  -0.340  53.690  1.00  0.00     0.086 A 
HETATM    5  C8  UNL     1      22.677   0.674  53.119  1.00  0.00    -0.004 A 
HETATM    6  C9  UNL     1      21.286   0.549  53.219  1.00  0.00     0.041 A 
HETATM    7  C10 UNL     1      22.930   1.913  52.397  1.00  0.00     0.161 C 
HETATM    8  N2  UNL     1      24.231   1.997  51.777  1.00  0.00    -0.379 N 
HETATM    9  C11 UNL     1      25.476   1.602  52.336  1.00  0.00     0.128 A 
HETATM   10  C12 UNL     1      26.503   2.452  51.907  1.00  0.00     0.156 A 
HETATM   11  N4  UNL     1      27.731   2.162  52.367  1.00  0.00    -0.222 NA
HETATM   12  C16 UNL     1      27.972   1.127  53.186  1.00  0.00     0.238 A 
HETATM   13  N5  UNL     1      27.005   0.289  53.619  1.00  0.00    -0.215 NA
HETATM   14  C17 UNL     1      25.728   0.521  53.192  1.00  0.00     0.202 A 
HETATM   15  O3  UNL     1      24.806  -0.408  53.701  1.00  0.00    -0.289 OA
HETATM   16  H10 UNL     1      24.406   2.372  50.797  1.00  0.00     0.160 HD
ENDROOT
BRANCH   1  17
HETATM   17  N1  UNL     1      19.248  -0.609  53.930  1.00  0.00    -0.324 N 
HETATM   18  C3  UNL     1      18.674  -0.447  52.640  1.00  0.00     0.241 C 
HETATM   19  O1  UNL     1      19.132  -0.262  51.477  1.00  0.00    -0.269 OA
HETATM   20  H4  UNL     1      18.541  -0.747  54.702  1.00  0.00     0.169 HD
BRANCH  18  21
HETATM   21  C2  UNL     1      17.245  -0.471  52.423  1.00  0.00     0.048 C 
HETATM   22  C1  UNL     1      16.609  -1.633  52.439  1.00  0.00     0.037 C 
ENDBRANCH  18  21
ENDBRANCH   1  17
BRANCH  10  23
HETATM   23  N3  UNL     1      26.293   3.576  51.052  1.00  0.00    -0.369 N 
HETATM   24  H11 UNL     1      25.990   4.545  51.260  1.00  0.00     0.161 HD
BRANCH  23  25
HETATM   25  C13 UNL     1      26.552   3.351  49.643  1.00  0.00     0.152 C 
BRANCH  25  26
HETATM   26  C14 UNL     1      26.793   4.659  48.964  1.00  0.00     0.051 C 
BRANCH  26  27
HETATM   27  C15 UNL     1      27.969   5.075  48.540  1.00  0.00     0.219 C 
HETATM   28  O2  UNL     1      29.211   5.187  48.489  1.00  0.00    -0.284 OA
ENDBRANCH  26  27
ENDBRANCH  25  26
ENDBRANCH  23  25
ENDBRANCH  10  23
TORSDOF 6
ENDMDL
MODEL 2
REMARK VINA RESULT:      -8.1      3.201      6.577
REMARK  6 active torsions:
REMARK  status: ('A' for Active; 'I' for Inactive)
REMARK    1  A    between atoms: C2_2  and  C3_3 
REMARK       I    between atoms: C3_3  and  N1_5 
REMARK    2  A    between atoms: N1_5  and  C4_6 
REMARK    3  A    between atoms: C12_15  and  N3_16 
REMARK    4  A    between atoms: N3_16  and  C13_17 
REMARK    5  A    between atoms: C13_17  and  C14_18 
REMARK    6  A    between atoms: C14_18  and  C15_19 
ROOT
HETATM    1  C4  UNL     1      25.779  -0.015  52.834  1.00  0.00     0.035 A 
HETATM    2  C5  UNL     1      24.752  -0.585  53.565  1.00  0.00     0.032 A 
HETATM    3  C6  UNL     1      23.480  -0.048  53.528  1.00  0.00     0.040 A 
HETATM    4  C7  UNL     1      23.265   1.072  52.742  1.00  0.00     0.086 A 
HETATM    5  C8  UNL     1      24.243   1.690  51.990  1.00  0.00    -0.004 A 
HETATM    6  C9  UNL     1      25.520   1.118  52.052  1.00  0.00     0.041 A 
HETATM    7  C10 UNL     1      24.346   2.833  51.094  1.00  0.00     0.161 C 
HETATM    8  N2  UNL     1      23.307   3.823  51.255  1.00  0.00    -0.379 N 
HETATM    9  C11 UNL     1      21.918   3.588  51.440  1.00  0.00     0.128 A 
HETATM   10  C12 UNL     1      21.159   4.584  50.813  1.00  0.00     0.156 A 
HETATM   11  N4  UNL     1      19.828   4.467  50.936  1.00  0.00    -0.222 NA
HETATM   12  C16 UNL     1      19.248   3.464  51.612  1.00  0.00     0.238 A 
HETATM   13  N5  UNL     1      19.949   2.487  52.228  1.00  0.00    -0.215 NA
HETATM   14  C17 UNL     1      21.312   2.539  52.147  1.00  0.00     0.202 A 
HETATM   15  O3  UNL     1      21.939   1.479  52.820  1.00  0.00    -0.289 OA
HETATM   16  H10 UNL     1      23.474   4.874  51.257  1.00  0.00     0.160 HD
ENDROOT
BRANCH   1  17
HETATM   17  N1  UNL     1      27.120  -0.554  52.853  1.00  0.00    -0.324 N 
HETATM   18  C3  UNL     1      27.879   0.013  53.913  1.00  0.00     0.241 C 
HETATM   19  O1  UNL     1      27.648   0.862  54.819  1.00  0.00    -0.269 OA
HETATM   20  H4  UNL     1      27.652  -1.258  52.271  1.00  0.00     0.169 HD
BRANCH  18  21
HETATM   21  C2  UNL     1      29.256  -0.353  54.158  1.00  0.00     0.048 C 
HETATM   22  C1  UNL     1      29.787  -1.358  53.480  1.00  0.00     0.037 C 
ENDBRANCH  18  21
ENDBRANCH   1  17
BRANCH  10  23
HETATM   23  N3  UNL     1      21.730   5.659  50.066  1.00  0.00    -0.369 N 
HETATM   24  H11 UNL     1      22.300   5.663  49.201  1.00  0.00     0.161 HD
BRANCH  23  25
HETATM   25  C13 UNL     1      21.472   6.989  50.583  1.00  0.00     0.152 C 
BRANCH  25  26
HETATM   26  C14 UNL     1      22.736   7.785  50.569  1.00  0.00     0.051 C 
BRANCH  26  27
HETATM   27  C15 UNL     1      23.939   7.280  50.747  1.00  0.00     0.219 C 
HETATM   28  O2  UNL     1      24.848   6.424  50.759  1.00  0.00    -0.284 OA
ENDBRANCH  26  27
ENDBRANCH  25  26
ENDBRANCH  23  25
ENDBRANCH  10  23
TORSDOF 6
ENDMDL
MODEL 3
REMARK VINA RESULT:      -8.1      3.554      7.654
REMARK  6 active torsions:
REMARK  status: ('A' for Active; 'I' for Inactive)
REMARK    1  A    between atoms: C2_2  and  C3_3 
REMARK       I    between atoms: C3_3  and  N1_5 
REMARK    2  A    between atoms: N1_5  and  C4_6 
REMARK    3  A    between atoms: C12_15  and  N3_16 
REMARK    4  A    between atoms: N3_16  and  C13_17 
REMARK    5  A    between atoms: C13_17  and  C14_18 
REMARK    6  A    between atoms: C14_18  and  C15_19 
ROOT
HETATM    1  C4  UNL     1      24.947  -0.301  54.201  1.00  0.00     0.035 A 
HETATM    2  C5  UNL     1      24.439  -1.083  55.223  1.00  0.00     0.032 A 
HETATM    3  C6  UNL     1      23.097  -1.410  55.256  1.00  0.00     0.040 A 
HETATM    4  C7  UNL     1      22.281  -0.935  54.242  1.00  0.00     0.086 A 
HETATM    5  C8  UNL     1      22.723  -0.152  53.195  1.00  0.00    -0.004 A 
HETATM    6  C9  UNL     1      24.089   0.160  53.195  1.00  0.00     0.041 A 
HETATM    7  C10 UNL     1      22.154   0.486  52.017  1.00  0.00     0.161 C 
HETATM    8  N2  UNL     1      20.727   0.698  52.074  1.00  0.00    -0.379 N 
HETATM    9  C11 UNL     1      19.742  -0.210  52.549  1.00  0.00     0.128 A 
HETATM   10  C12 UNL     1      18.558  -0.087  51.811  1.00  0.00     0.156 A 
HETATM   11  N4  UNL     1      17.552  -0.893  52.184  1.00  0.00    -0.222 NA
HETATM   12  C16 UNL     1      17.660  -1.766  53.197  1.00  0.00     0.238 A 
HETATM   13  N5  UNL     1      18.787  -1.911  53.928  1.00  0.00    -0.215 NA
HETATM   14  C17 UNL     1      19.856  -1.123  53.607  1.00  0.00     0.202 A 
HETATM   15  O3  UNL     1      20.971  -1.355  54.428  1.00  0.00    -0.289 OA
HETATM   16  H10 UNL     1      20.238   1.590  51.761  1.00  0.00     0.160 HD
ENDROOT
BRANCH   1  17
HETATM   17  N1  UNL     1      26.346   0.058  54.139  1.00  0.00    -0.324 N 
HETATM   18  C3  UNL     1      27.096  -0.942  53.461  1.00  0.00     0.241 C 
HETATM   19  O1  UNL     1      26.818  -2.048  52.915  1.00  0.00    -0.269 OA
HETATM   20  H4  UNL     1      26.925   0.875  54.474  1.00  0.00     0.169 HD
BRANCH  18  21
HETATM   21  C2  UNL     1      28.522  -0.833  53.259  1.00  0.00     0.048 C 
HETATM   22  C1  UNL     1      29.276  -0.338  54.228  1.00  0.00     0.037 C 
ENDBRANCH  18  21
ENDBRANCH   1  17
BRANCH  10  23
HETATM   23  N3  UNL     1      18.401   0.813  50.714  1.00  0.00    -0.369 N 
HETATM   24  H11 UNL     1      19.021   1.027  49.912  1.00  0.00     0.161 HD
BRANCH  23  25
HETATM   25  C13 UNL     1      17.161   1.564  50.690  1.00  0.00     0.152 C 
BRANCH  25  26
HETATM   26  C14 UNL     1      17.449   3.013  50.913  1.00  0.00     0.051 C 
BRANCH  26  27
HETATM   27  C15 UNL     1      18.521   3.476  51.521  1.00  0.00     0.219 C 
HETATM   28  O2  UNL     1      19.503   3.490  52.292  1.00  0.00    -0.284 OA
ENDBRANCH  26  27
ENDBRANCH  25  26
ENDBRANCH  23  25
ENDBRANCH  10  23
TORSDOF 6
ENDMDL
MODEL 4
REMARK VINA RESULT:      -7.8      2.956      8.258
REMARK  6 active torsions:
REMARK  status: ('A' for Active; 'I' for Inactive)
REMARK    1  A    between atoms: C2_2  and  C3_3 
REMARK       I    between atoms: C3_3  and  N1_5 
REMARK    2  A    between atoms: N1_5  and  C4_6 
REMARK    3  A    between atoms: C12_15  and  N3_16 
REMARK    4  A    between atoms: N3_16  and  C13_17 
REMARK    5  A    between atoms: C13_17  and  C14_18 
REMARK    6  A    between atoms: C14_18  and  C15_19 
ROOT
HETATM    1  C4  UNL     1      25.076   1.078  53.542  1.00  0.00     0.035 A 
HETATM    2  C5  UNL     1      25.045   2.446  53.345  1.00  0.00     0.032 A 
HETATM    3  C6  UNL     1      23.893   3.069  52.907  1.00  0.00     0.040 A 
HETATM    4  C7  UNL     1      22.774   2.285  52.671  1.00  0.00     0.086 A 
HETATM    5  C8  UNL     1      22.737   0.917  52.846  1.00  0.00    -0.004 A 
HETATM    6  C9  UNL     1      23.924   0.321  53.291  1.00  0.00     0.041 A 
HETATM    7  C10 UNL     1      21.766  -0.158  52.695  1.00  0.00     0.161 C 
HETATM    8  N2  UNL     1      20.661   0.144  51.817  1.00  0.00    -0.379 N 
HETATM    9  C11 UNL     1      19.924   1.356  51.750  1.00  0.00     0.128 A 
HETATM   10  C12 UNL     1      18.580   1.103  51.448  1.00  0.00     0.156 A 
HETATM   11  N4  UNL     1      17.790   2.183  51.348  1.00  0.00    -0.222 NA
HETATM   12  C16 UNL     1      18.247   3.433  51.524  1.00  0.00     0.238 A 
HETATM   13  N5  UNL     1      19.536   3.713  51.816  1.00  0.00    -0.215 NA
HETATM   14  C17 UNL     1      20.400   2.662  51.934  1.00  0.00     0.202 A 
HETATM   15  O3  UNL     1      21.711   3.066  52.238  1.00  0.00    -0.289 OA
HETATM   16  H10 UNL     1      20.266  -0.530  51.094  1.00  0.00     0.160 HD
ENDROOT
BRANCH   1  17
HETATM   17  N1  UNL     1      26.267   0.398  54.000  1.00  0.00    -0.324 N 
HETATM   18  C3  UNL     1      26.975  -0.173  52.908  1.00  0.00     0.241 C 
HETATM   19  O1  UNL     1      26.799  -0.220  51.657  1.00  0.00    -0.269 OA
HETATM   20  H4  UNL     1      26.720   0.234  54.940  1.00  0.00     0.169 HD
BRANCH  18  21
HETATM   21  C2  UNL     1      28.205  -0.911  53.087  1.00  0.00     0.048 C 
HETATM   22  C1  UNL     1      29.049  -0.538  54.036  1.00  0.00     0.037 C 
ENDBRANCH  18  21
ENDBRANCH   1  17
BRANCH  10  23
HETATM   23  N3  UNL     1      18.044  -0.209  51.272  1.00  0.00    -0.369 N 
HETATM   24  H11 UNL     1      18.427  -1.045  50.794  1.00  0.00     0.161 HD
BRANCH  23  25
HETATM   25  C13 UNL     1      16.741  -0.440  51.865  1.00  0.00     0.152 C 
BRANCH  25  26
HETATM   26  C14 UNL     1      16.823  -1.585  52.821  1.00  0.00     0.051 C 
BRANCH  26  27
HETATM   27  C15 UNL     1      17.906  -1.926  53.488  1.00  0.00     0.219 C 
HETATM   28  O2  UNL     1      19.120  -1.996  53.772  1.00  0.00    -0.284 OA
ENDBRANCH  26  27
ENDBRANCH  25  26
ENDBRANCH  23  25
ENDBRANCH  10  23
TORSDOF 6
ENDMDL
MODEL 5
REMARK VINA RESULT:      -7.7      3.808      6.661
REMARK  6 active torsions:
REMARK  status: ('A' for Active; 'I' for Inactive)
REMARK    1  A    between atoms: C2_2  and  C3_3 
REMARK       I    between atoms: C3_3  and  N1_5 
REMARK    2  A    between atoms: N1_5  and  C4_6 
REMARK    3  A    between atoms: C12_15  and  N3_16 
REMARK    4  A    between atoms: N3_16  and  C13_17 
REMARK    5  A    between atoms: C13_17  and  C14_18 
REMARK    6  A    between atoms: C14_18  and  C15_19 
ROOT
HETATM    1  C4  UNL     1      26.014   0.950  52.331  1.00  0.00     0.035 A 
HETATM    2  C5  UNL     1      24.859   0.939  53.092  1.00  0.00     0.032 A 
HETATM    3  C6  UNL     1      23.951   1.977  53.008  1.00  0.00     0.040 A 
HETATM    4  C7  UNL     1      24.231   3.023  52.144  1.00  0.00     0.086 A 
HETATM    5  C8  UNL     1      25.363   3.097  51.358  1.00  0.00    -0.004 A 
HETATM    6  C9  UNL     1      26.260   2.027  51.470  1.00  0.00     0.041 A 
HETATM    7  C10 UNL     1      25.936   4.016  50.385  1.00  0.00     0.161 C 
HETATM    8  N2  UNL     1      25.441   5.370  50.468  1.00  0.00    -0.379 N 
HETATM    9  C11 UNL     1      24.095   5.782  50.659  1.00  0.00     0.128 A 
HETATM   10  C12 UNL     1      23.836   6.967  49.958  1.00  0.00     0.156 A 
HETATM   11  N4  UNL     1      22.592   7.456  50.078  1.00  0.00    -0.222 NA
HETATM   12  C16 UNL     1      21.646   6.857  50.818  1.00  0.00     0.238 A 
HETATM   13  N5  UNL     1      21.862   5.714  51.506  1.00  0.00    -0.215 NA
HETATM   14  C17 UNL     1      23.107   5.157  51.432  1.00  0.00     0.202 A 
HETATM   15  O3  UNL     1      23.221   3.975  52.183  1.00  0.00    -0.289 OA
HETATM   16  H10 UNL     1      26.052   6.238  50.398  1.00  0.00     0.160 HD
ENDROOT
BRANCH   1  17
HETATM   17  N1  UNL     1      26.982  -0.122  52.398  1.00  0.00    -0.324 N 
HETATM   18  C3  UNL     1      27.850   0.050  53.510  1.00  0.00     0.241 C 
HETATM   19  O1  UNL     1      27.962   0.908  54.431  1.00  0.00    -0.269 OA
HETATM   20  H4  UNL     1      27.186  -0.983  51.821  1.00  0.00     0.169 HD
BRANCH  18  21
HETATM   21  C2  UNL     1      28.913  -0.883  53.810  1.00  0.00     0.048 C 
HETATM   22  C1  UNL     1      30.155  -0.580  53.465  1.00  0.00     0.037 C 
ENDBRANCH  18  21
ENDBRANCH   1  17
BRANCH  10  23
HETATM   23  N3  UNL     1      24.803   7.629  49.142  1.00  0.00    -0.369 N 
HETATM   24  H11 UNL     1      25.166   7.408  48.197  1.00  0.00     0.161 HD
BRANCH  23  25
HETATM   25  C13 UNL     1      25.386   8.830  49.709  1.00  0.00     0.152 C 
BRANCH  25  26
HETATM   26  C14 UNL     1      26.874   8.763  49.598  1.00  0.00     0.051 C 
BRANCH  26  27
HETATM   27  C15 UNL     1      27.539   7.766  49.052  1.00  0.00     0.219 C 
HETATM   28  O2  UNL     1      27.732   6.651  48.525  1.00  0.00    -0.284 OA
ENDBRANCH  26  27
ENDBRANCH  25  26
ENDBRANCH  23  25
ENDBRANCH  10  23
TORSDOF 6
ENDMDL
MODEL 6
REMARK VINA RESULT:      -7.7      2.951      4.826
REMARK  6 active torsions:
REMARK  status: ('A' for Active; 'I' for Inactive)
REMARK    1  A    between atoms: C2_2  and  C3_3 
REMARK       I    between atoms: C3_3  and  N1_5 
REMARK    2  A    between atoms: N1_5  and  C4_6 
REMARK    3  A    between atoms: C12_15  and  N3_16 
REMARK    4  A    between atoms: N3_16  and  C13_17 
REMARK    5  A    between atoms: C13_17  and  C14_18 
REMARK    6  A    between atoms: C14_18  and  C15_19 
ROOT
HETATM    1  C4  UNL     1      24.756   0.331  53.149  1.00  0.00     0.035 A 
HETATM    2  C5  UNL     1      26.029  -0.001  52.722  1.00  0.00     0.032 A 
HETATM    3  C6  UNL     1      26.691   0.791  51.804  1.00  0.00     0.040 A 
HETATM    4  C7  UNL     1      26.046   1.920  51.326  1.00  0.00     0.086 A 
HETATM    5  C8  UNL     1      24.778   2.307  51.710  1.00  0.00    -0.004 A 
HETATM    6  C9  UNL     1      24.138   1.480  52.641  1.00  0.00     0.041 A 
HETATM    7  C10 UNL     1      23.851   3.390  51.413  1.00  0.00     0.161 C 
HETATM    8  N2  UNL     1      24.094   4.069  50.162  1.00  0.00    -0.379 N 
HETATM    9  C11 UNL     1      25.351   4.466  49.631  1.00  0.00     0.128 A 
HETATM   10  C12 UNL     1      25.232   5.668  48.922  1.00  0.00     0.156 A 
HETATM   11  N4  UNL     1      26.361   6.131  48.364  1.00  0.00    -0.222 NA
HETATM   12  C16 UNL     1      27.537   5.493  48.472  1.00  0.00     0.238 A 
HETATM   13  N5  UNL     1      27.687   4.333  49.148  1.00  0.00    -0.215 NA
HETATM   14  C17 UNL     1      26.580   3.799  49.744  1.00  0.00     0.202 A 
HETATM   15  O3  UNL     1      26.848   2.597  50.417  1.00  0.00    -0.289 OA
HETATM   16  H10 UNL     1      23.334   4.353  49.474  1.00  0.00     0.160 HD
ENDROOT
BRANCH   1  17
HETATM   17  N1  UNL     1      24.038  -0.478  54.109  1.00  0.00    -0.324 N 
HETATM   18  C3  UNL     1      22.761  -0.847  53.605  1.00  0.00     0.241 C 
HETATM   19  O1  UNL     1      22.129  -0.630  52.532  1.00  0.00    -0.269 OA
HETATM   20  H4  UNL     1      24.242  -0.849  55.076  1.00  0.00     0.169 HD
BRANCH  18  21
HETATM   21  C2  UNL     1      21.837  -1.658  54.364  1.00  0.00     0.048 C 
HETATM   22  C1  UNL     1      20.540  -1.567  54.111  1.00  0.00     0.037 C 
ENDBRANCH  18  21
ENDBRANCH   1  17
BRANCH  10  23
HETATM   23  N3  UNL     1      24.008   6.392  48.796  1.00  0.00    -0.369 N 
HETATM   24  H11 UNL     1      23.073   6.101  48.456  1.00  0.00     0.161 HD
BRANCH  23  25
HETATM   25  C13 UNL     1      24.052   7.778  49.222  1.00  0.00     0.152 C 
BRANCH  25  26
HETATM   26  C14 UNL     1      23.385   7.913  50.552  1.00  0.00     0.051 C 
BRANCH  26  27
HETATM   27  C15 UNL     1      22.396   7.152  50.973  1.00  0.00     0.219 C 
HETATM   28  O2  UNL     1      21.695   6.127  51.102  1.00  0.00    -0.284 OA
ENDBRANCH  26  27
ENDBRANCH  25  26
ENDBRANCH  23  25
ENDBRANCH  10  23
TORSDOF 6
ENDMDL
MODEL 7
REMARK VINA RESULT:      -7.7      3.158      6.683
REMARK  6 active torsions:
REMARK  status: ('A' for Active; 'I' for Inactive)
REMARK    1  A    between atoms: C2_2  and  C3_3 
REMARK       I    between atoms: C3_3  and  N1_5 
REMARK    2  A    between atoms: N1_5  and  C4_6 
REMARK    3  A    between atoms: C12_15  and  N3_16 
REMARK    4  A    between atoms: N3_16  and  C13_17 
REMARK    5  A    between atoms: C13_17  and  C14_18 
REMARK    6  A    between atoms: C14_18  and  C15_19 
ROOT
HETATM    1  C4  UNL     1      25.841   0.075  52.771  1.00  0.00     0.035 A 
HETATM    2  C5  UNL     1      24.867  -0.643  53.441  1.00  0.00     0.032 A 
HETATM    3  C6  UNL     1      23.552  -0.219  53.435  1.00  0.00     0.040 A 
HETATM    4  C7  UNL     1      23.241   0.940  52.743  1.00  0.00     0.086 A 
HETATM    5  C8  UNL     1      24.163   1.703  52.055  1.00  0.00    -0.004 A 
HETATM    6  C9  UNL     1      25.485   1.242  52.083  1.00  0.00     0.041 A 
HETATM    7  C10 UNL     1      24.168   2.922  51.259  1.00  0.00     0.161 C 
HETATM    8  N2  UNL     1      23.045   3.800  51.491  1.00  0.00    -0.379 N 
HETATM    9  C11 UNL     1      21.682   3.429  51.641  1.00  0.00     0.128 A 
HETATM   10  C12 UNL     1      20.840   4.404  51.091  1.00  0.00     0.156 A 
HETATM   11  N4  UNL     1      19.523   4.160  51.189  1.00  0.00    -0.222 NA
HETATM   12  C16 UNL     1      19.032   3.056  51.773  1.00  0.00     0.238 A 
HETATM   13  N5  UNL     1      19.815   2.097  52.313  1.00  0.00    -0.215 NA
HETATM   14  C17 UNL     1      21.168   2.275  52.251  1.00  0.00     0.202 A 
HETATM   15  O3  UNL     1      21.885   1.221  52.840  1.00  0.00    -0.289 OA
HETATM   16  H10 UNL     1      23.118   4.857  51.582  1.00  0.00     0.160 HD
ENDROOT
BRANCH   1  17
HETATM   17  N1  UNL     1      27.225  -0.344  52.758  1.00  0.00    -0.324 N 
HETATM   18  C3  UNL     1      27.912   0.146  53.902  1.00  0.00     0.241 C 
HETATM   19  O1  UNL     1      27.592   0.849  54.902  1.00  0.00    -0.269 OA
HETATM   20  H4  UNL     1      27.827  -0.919  52.108  1.00  0.00     0.169 HD
BRANCH  18  21
HETATM   21  C2  UNL     1      29.312  -0.127  54.138  1.00  0.00     0.048 C 
HETATM   22  C1  UNL     1      29.875  -1.170  53.545  1.00  0.00     0.037 C 
ENDBRANCH  18  21
ENDBRANCH   1  17
BRANCH  10  23
HETATM   23  N3  UNL     1      21.315   5.583  50.443  1.00  0.00    -0.369 N 
HETATM   24  H11 UNL     1      21.844   6.397  50.807  1.00  0.00     0.161 HD
BRANCH  23  25
HETATM   25  C13 UNL     1      21.031   5.678  49.024  1.00  0.00     0.152 C 
BRANCH  25  26
HETATM   26  C14 UNL     1      22.245   5.293  48.244  1.00  0.00     0.051 C 
BRANCH  26  27
HETATM   27  C15 UNL     1      22.567   4.057  47.925  1.00  0.00     0.219 C 
HETATM   28  O2  UNL     1      22.535   2.809  47.940  1.00  0.00    -0.284 OA
ENDBRANCH  26  27
ENDBRANCH  25  26
ENDBRANCH  23  25
ENDBRANCH  10  23
TORSDOF 6
ENDMDL
MODEL 8
REMARK VINA RESULT:      -7.6      2.763      7.977
REMARK  6 active torsions:
REMARK  status: ('A' for Active; 'I' for Inactive)
REMARK    1  A    between atoms: C2_2  and  C3_3 
REMARK       I    between atoms: C3_3  and  N1_5 
REMARK    2  A    between atoms: N1_5  and  C4_6 
REMARK    3  A    between atoms: C12_15  and  N3_16 
REMARK    4  A    between atoms: N3_16  and  C13_17 
REMARK    5  A    between atoms: C13_17  and  C14_18 
REMARK    6  A    between atoms: C14_18  and  C15_19 
ROOT
HETATM    1  C4  UNL     1      26.325   1.026  51.957  1.00  0.00     0.035 A 
HETATM    2  C5  UNL     1      26.646   2.079  51.120  1.00  0.00     0.032 A 
HETATM    3  C6  UNL     1      25.662   2.927  50.649  1.00  0.00     0.040 A 
HETATM    4  C7  UNL     1      24.353   2.693  51.039  1.00  0.00     0.086 A 
HETATM    5  C8  UNL     1      23.966   1.661  51.870  1.00  0.00    -0.004 A 
HETATM    6  C9  UNL     1      24.990   0.822  52.327  1.00  0.00     0.041 A 
HETATM    7  C10 UNL     1      22.729   1.156  52.449  1.00  0.00     0.161 C 
HETATM    8  N2  UNL     1      21.528   1.556  51.754  1.00  0.00    -0.379 N 
HETATM    9  C11 UNL     1      21.226   2.843  51.233  1.00  0.00     0.128 A 
HETATM   10  C12 UNL     1      19.857   3.114  51.346  1.00  0.00     0.156 A 
HETATM   11  N4  UNL     1      19.456   4.303  50.871  1.00  0.00    -0.222 NA
HETATM   12  C16 UNL     1      20.303   5.187  50.321  1.00  0.00     0.238 A 
HETATM   13  N5  UNL     1      21.629   4.958  50.196  1.00  0.00    -0.215 NA
HETATM   14  C17 UNL     1      22.111   3.766  50.658  1.00  0.00     0.202 A 
HETATM   15  O3  UNL     1      23.498   3.632  50.479  1.00  0.00    -0.289 OA
HETATM   16  H10 UNL     1      20.711   0.908  51.544  1.00  0.00     0.160 HD
ENDROOT
BRANCH   1  17
HETATM   17  N1  UNL     1      27.333   0.122  52.465  1.00  0.00    -0.324 N 
HETATM   18  C3  UNL     1      27.923   0.637  53.652  1.00  0.00     0.241 C 
HETATM   19  O1  UNL     1      27.767   1.683  54.343  1.00  0.00    -0.269 OA
HETATM   20  H4  UNL     1      27.721  -0.813  52.163  1.00  0.00     0.169 HD
BRANCH  18  21
HETATM   21  C2  UNL     1      28.961  -0.069  54.367  1.00  0.00     0.048 C 
HETATM   22  C1  UNL     1      29.699  -0.960  53.722  1.00  0.00     0.037 C 
ENDBRANCH  18  21
ENDBRANCH   1  17
BRANCH  10  23
HETATM   23  N3  UNL     1      18.920   2.215  51.941  1.00  0.00    -0.369 N 
HETATM   24  H11 UNL     1      18.668   2.048  52.932  1.00  0.00     0.161 HD
BRANCH  23  25
HETATM   25  C13 UNL     1      18.171   1.386  51.017  1.00  0.00     0.152 C 
BRANCH  25  26
HETATM   26  C14 UNL     1      18.077  -0.004  51.556  1.00  0.00     0.051 C 
BRANCH  26  27
HETATM   27  C15 UNL     1      18.766  -0.456  52.583  1.00  0.00     0.219 C 
HETATM   28  O2  UNL     1      19.740  -0.613  53.347  1.00  0.00    -0.284 OA
ENDBRANCH  26  27
ENDBRANCH  25  26
ENDBRANCH  23  25
ENDBRANCH  10  23
TORSDOF 6
ENDMDL
MODEL 9
REMARK VINA RESULT:      -7.6      4.062      6.572
REMARK  6 active torsions:
REMARK  status: ('A' for Active; 'I' for Inactive)
REMARK    1  A    between atoms: C2_2  and  C3_3 
REMARK       I    between atoms: C3_3  and  N1_5 
REMARK    2  A    between atoms: N1_5  and  C4_6 
REMARK    3  A    between atoms: C12_15  and  N3_16 
REMARK    4  A    between atoms: N3_16  and  C13_17 
REMARK    5  A    between atoms: C13_17  and  C14_18 
REMARK    6  A    between atoms: C14_18  and  C15_19 
ROOT
HETATM    1  C4  UNL     1      25.781   0.899  52.153  1.00  0.00     0.035 A 
HETATM    2  C5  UNL     1      24.792   1.398  52.981  1.00  0.00     0.032 A 
HETATM    3  C6  UNL     1      24.277   2.664  52.778  1.00  0.00     0.040 A 
HETATM    4  C7  UNL     1      24.778   3.414  51.726  1.00  0.00     0.086 A 
HETATM    5  C8  UNL     1      25.764   2.977  50.864  1.00  0.00    -0.004 A 
HETATM    6  C9  UNL     1      26.262   1.690  51.101  1.00  0.00     0.041 A 
HETATM    7  C10 UNL     1      26.484   3.493  49.709  1.00  0.00     0.161 C 
HETATM    8  N2  UNL     1      26.481   4.931  49.586  1.00  0.00    -0.379 N 
HETATM    9  C11 UNL     1      25.383   5.808  49.792  1.00  0.00     0.128 A 
HETATM   10  C12 UNL     1      25.447   6.897  48.913  1.00  0.00     0.156 A 
HETATM   11  N4  UNL     1      24.460   7.799  49.030  1.00  0.00    -0.222 NA
HETATM   12  C16 UNL     1      23.469   7.678  49.927  1.00  0.00     0.238 A 
HETATM   13  N5  UNL     1      23.377   6.641  50.788  1.00  0.00    -0.215 NA
HETATM   14  C17 UNL     1      24.347   5.681  50.729  1.00  0.00     0.202 A 
HETATM   15  O3  UNL     1      24.155   4.653  51.666  1.00  0.00    -0.289 OA
HETATM   16  H10 UNL     1      27.332   5.513  49.323  1.00  0.00     0.160 HD
ENDROOT
BRANCH   1  17
HETATM   17  N1  UNL     1      26.339  -0.421  52.341  1.00  0.00    -0.324 N 
HETATM   18  C3  UNL     1      27.626  -0.346  52.941  1.00  0.00     0.241 C 
HETATM   19  O1  UNL     1      28.372   0.594  53.336  1.00  0.00    -0.269 OA
HETATM   20  H4  UNL     1      26.016  -1.406  52.138  1.00  0.00     0.169 HD
BRANCH  18  21
HETATM   21  C2  UNL     1      28.408  -1.524  53.240  1.00  0.00     0.048 C 
HETATM   22  C1  UNL     1      29.675  -1.384  53.599  1.00  0.00     0.037 C 
ENDBRANCH  18  21
ENDBRANCH   1  17
BRANCH  10  23
HETATM   23  N3  UNL     1      26.469   7.059  47.930  1.00  0.00    -0.369 N 
HETATM   24  H11 UNL     1      26.711   6.493  47.097  1.00  0.00     0.161 HD
BRANCH  23  25
HETATM   25  C13 UNL     1      27.326   8.217  48.100  1.00  0.00     0.152 C 
BRANCH  25  26
HETATM   26  C14 UNL     1      28.723   7.768  48.379  1.00  0.00     0.051 C 
BRANCH  26  27
HETATM   27  C15 UNL     1      29.164   6.541  48.198  1.00  0.00     0.219 C 
HETATM   28  O2  UNL     1      29.355   5.330  48.433  1.00  0.00    -0.284 OA
ENDBRANCH  26  27
ENDBRANCH  25  26
ENDBRANCH  23  25
ENDBRANCH  10  23
TORSDOF 6
ENDMDL
