MODEL 1
REMARK VINA RESULT:      -7.8      0.000      0.000
REMARK  4 active torsions:
REMARK  status: ('A' for Active; 'I' for Inactive)
REMARK    1  A    between atoms: O1_2  and  C2_3 
REMARK    2  A    between atoms: C3_4  and  C4_5 
REMARK    3  A    between atoms: C8_9  and  N1_10 
REMARK    4  A    between atoms: N1_10  and  C9_11 
ROOT
HETATM    1  C9  UNL     1      25.601   2.454  51.078  1.00  0.00     0.041 C 
HETATM    2  C10 UNL     1      26.739   2.468  51.741  1.00  0.00     0.029 C 
HETATM    3  C11 UNL     1      27.070   1.690  52.986  1.00  0.00     0.198 C 
HETATM    4  O2  UNL     1      25.980   1.220  53.657  1.00  0.00    -0.377 OA
HETATM    5  C12 UNL     1      25.155   0.499  52.748  1.00  0.00     0.161 C 
HETATM    6  C13 UNL     1      24.039  -0.094  53.248  1.00  0.00     0.066 C 
HETATM    7  C14 UNL     1      22.828  -0.608  53.722  1.00  0.00     0.000 C 
HETATM    8  C15 UNL     1      21.481  -0.485  53.418  1.00  0.00     0.131 C 
HETATM    9  O3  UNL     1      21.022   0.333  52.386  1.00  0.00    -0.358 OA
HETATM   10  C16 UNL     1      21.346   1.330  51.467  1.00  0.00     0.218 C 
HETATM   11  P1  UNL     1      23.085   1.933  51.181  1.00  0.00    -0.022 P 
HETATM   12  C17 UNL     1      24.684   1.577  51.718  1.00  0.00     0.009 C 
ENDROOT
BRANCH   1  13
HETATM   13  N1  UNL     1      25.128   3.094  49.935  1.00  0.00    -0.356 N 
HETATM   14  H7  UNL     1      24.280   2.787  49.418  1.00  0.00     0.166 HD
BRANCH  13  15
HETATM   15  C8  UNL     1      25.798   4.228  49.396  1.00  0.00     0.034 A 
HETATM   16  C7  UNL     1      24.976   5.318  49.185  1.00  0.00     0.029 A 
HETATM   17  C6  UNL     1      25.517   6.474  48.659  1.00  0.00     0.004 A 
HETATM   18  C5  UNL     1      26.866   6.484  48.366  1.00  0.00     0.021 A 
HETATM   19  C4  UNL     1      27.671   5.375  48.587  1.00  0.00     0.022 A 
HETATM   20  C18 UNL     1      27.145   4.214  49.112  1.00  0.00     0.050 A 
BRANCH  19  21
HETATM   21  C3  UNL     1      29.051   5.504  48.234  1.00  0.00    -0.037 C 
HETATM   22  C2  UNL     1      30.210   5.607  47.924  1.00  0.00     0.059 C 
BRANCH  22  23
HETATM   23  O1  UNL     1      31.540   5.707  47.552  1.00  0.00    -0.308 OA
HETATM   24  C1  UNL     1      32.460   4.676  47.941  1.00  0.00     0.223 C 
ENDBRANCH  22  23
ENDBRANCH  19  21
ENDBRANCH  13  15
ENDBRANCH   1  13
TORSDOF 4
ENDMDL
MODEL 2
REMARK VINA RESULT:      -7.3      1.501      1.719
REMARK  4 active torsions:
REMARK  status: ('A' for Active; 'I' for Inactive)
REMARK    1  A    between atoms: O1_2  and  C2_3 
REMARK    2  A    between atoms: C3_4  and  C4_5 
REMARK    3  A    between atoms: C8_9  and  N1_10 
REMARK    4  A    between atoms: N1_10  and  C9_11 
ROOT
HETATM    1  C9  UNL     1      25.098   2.038  51.545  1.00  0.00     0.041 C 
HETATM    2  C10 UNL     1      26.354   1.857  51.895  1.00  0.00     0.029 C 
HETATM    3  C11 UNL     1      26.873   0.918  52.950  1.00  0.00     0.198 C 
HETATM    4  O2  UNL     1      25.927   0.500  53.839  1.00  0.00    -0.377 OA
HETATM    5  C12 UNL     1      24.818  -0.025  53.118  1.00  0.00     0.161 C 
HETATM    6  C13 UNL     1      23.789  -0.544  53.839  1.00  0.00     0.066 C 
HETATM    7  C14 UNL     1      22.673  -0.971  54.565  1.00  0.00     0.000 C 
HETATM    8  C15 UNL     1      21.321  -0.670  54.625  1.00  0.00     0.131 C 
HETATM    9  O3  UNL     1      20.736   0.299  53.810  1.00  0.00    -0.358 OA
HETATM   10  C16 UNL     1      20.956   1.349  52.919  1.00  0.00     0.218 C 
HETATM   11  P1  UNL     1      22.636   1.786  52.246  1.00  0.00    -0.022 P 
HETATM   12  C17 UNL     1      24.256   1.202  52.328  1.00  0.00     0.009 C 
ENDROOT
BRANCH   1  13
HETATM   13  N1  UNL     1      24.449   2.845  50.613  1.00  0.00    -0.356 N 
HETATM   14  H7  UNL     1      23.630   2.530  50.057  1.00  0.00     0.166 HD
BRANCH  13  15
HETATM   15  C8  UNL     1      24.885   4.177  50.363  1.00  0.00     0.034 A 
HETATM   16  C7  UNL     1      24.137   5.143  51.007  1.00  0.00     0.029 A 
HETATM   17  C6  UNL     1      24.466   6.473  50.832  1.00  0.00     0.004 A 
HETATM   18  C5  UNL     1      25.536   6.774  50.014  1.00  0.00     0.021 A 
HETATM   19  C4  UNL     1      26.272   5.784  49.377  1.00  0.00     0.022 A 
HETATM   20  C18 UNL     1      25.956   4.453  49.543  1.00  0.00     0.050 A 
BRANCH  19  21
HETATM   21  C3  UNL     1      27.352   6.221  48.547  1.00  0.00    -0.037 C 
HETATM   22  C2  UNL     1      28.251   6.598  47.840  1.00  0.00     0.059 C 
BRANCH  22  23
HETATM   23  O1  UNL     1      29.270   7.030  47.008  1.00  0.00    -0.308 OA
HETATM   24  C1  UNL     1      30.040   8.183  47.377  1.00  0.00     0.223 C 
ENDBRANCH  22  23
ENDBRANCH  19  21
ENDBRANCH  13  15
ENDBRANCH   1  13
TORSDOF 4
ENDMDL
MODEL 3
REMARK VINA RESULT:      -7.3      2.670      4.174
REMARK  4 active torsions:
REMARK  status: ('A' for Active; 'I' for Inactive)
REMARK    1  A    between atoms: O1_2  and  C2_3 
REMARK    2  A    between atoms: C3_4  and  C4_5 
REMARK    3  A    between atoms: C8_9  and  N1_10 
REMARK    4  A    between atoms: N1_10  and  C9_11 
ROOT
HETATM    1  C9  UNL     1      24.078   3.490  49.952  1.00  0.00     0.041 C 
HETATM    2  C10 UNL     1      23.460   3.624  48.797  1.00  0.00     0.029 C 
HETATM    3  C11 UNL     1      22.295   2.814  48.296  1.00  0.00     0.198 C 
HETATM    4  O2  UNL     1      22.115   1.631  48.949  1.00  0.00    -0.377 OA
HETATM    5  C12 UNL     1      22.062   1.882  50.349  1.00  0.00     0.161 C 
HETATM    6  C13 UNL     1      21.832   0.823  51.169  1.00  0.00     0.066 C 
HETATM    7  C14 UNL     1      21.717  -0.272  52.031  1.00  0.00     0.000 C 
HETATM    8  C15 UNL     1      22.434  -0.820  53.084  1.00  0.00     0.131 C 
HETATM    9  O3  UNL     1      23.624  -0.257  53.547  1.00  0.00    -0.358 OA
HETATM   10  C16 UNL     1      24.634   0.674  53.310  1.00  0.00     0.218 C 
HETATM   11  P1  UNL     1      24.569   1.927  51.935  1.00  0.00    -0.022 P 
HETATM   12  C17 UNL     1      23.483   2.435  50.695  1.00  0.00     0.009 C 
ENDROOT
BRANCH   1  13
HETATM   13  N1  UNL     1      25.149   4.135  50.568  1.00  0.00    -0.356 N 
HETATM   14  H7  UNL     1      25.388   4.011  51.572  1.00  0.00     0.166 HD
BRANCH  13  15
HETATM   15  C8  UNL     1      25.991   5.022  49.841  1.00  0.00     0.034 A 
HETATM   16  C7  UNL     1      27.013   4.393  49.158  1.00  0.00     0.029 A 
HETATM   17  C6  UNL     1      27.897   5.156  48.421  1.00  0.00     0.004 A 
HETATM   18  C5  UNL     1      27.715   6.525  48.405  1.00  0.00     0.021 A 
HETATM   19  C4  UNL     1      26.679   7.133  49.101  1.00  0.00     0.022 A 
HETATM   20  C18 UNL     1      25.788   6.383  49.839  1.00  0.00     0.050 A 
BRANCH  19  21
HETATM   21  C3  UNL     1      26.598   8.558  49.014  1.00  0.00    -0.037 C 
HETATM   22  C2  UNL     1      26.516   9.759  48.946  1.00  0.00     0.059 C 
BRANCH  22  23
HETATM   23  O1  UNL     1      26.399  11.135  48.865  1.00  0.00    -0.308 OA
HETATM   24  C1  UNL     1      25.511  11.712  47.896  1.00  0.00     0.223 C 
ENDBRANCH  22  23
ENDBRANCH  19  21
ENDBRANCH  13  15
ENDBRANCH   1  13
TORSDOF 4
ENDMDL
MODEL 4
REMARK VINA RESULT:      -7.3      4.397      7.446
REMARK  4 active torsions:
REMARK  status: ('A' for Active; 'I' for Inactive)
REMARK    1  A    between atoms: O1_2  and  C2_3 
REMARK    2  A    between atoms: C3_4  and  C4_5 
REMARK    3  A    between atoms: C8_9  and  N1_10 
REMARK    4  A    between atoms: N1_10  and  C9_11 
ROOT
HETATM    1  C9  UNL     1      21.950   2.538  50.244  1.00  0.00     0.041 C 
HETATM    2  C10 UNL     1      21.966   1.635  49.286  1.00  0.00     0.029 C 
HETATM    3  C11 UNL     1      22.260   1.868  47.828  1.00  0.00     0.198 C 
HETATM    4  O2  UNL     1      22.145   3.169  47.437  1.00  0.00    -0.377 OA
HETATM    5  C12 UNL     1      22.929   3.981  48.303  1.00  0.00     0.161 C 
HETATM    6  C13 UNL     1      22.984   5.313  48.037  1.00  0.00     0.066 C 
HETATM    7  C14 UNL     1      22.954   6.698  47.849  1.00  0.00     0.000 C 
HETATM    8  C15 UNL     1      22.625   7.820  48.593  1.00  0.00     0.131 C 
HETATM    9  O3  UNL     1      22.182   7.735  49.913  1.00  0.00    -0.358 OA
HETATM   10  C16 UNL     1      21.732   6.897  50.932  1.00  0.00     0.218 C 
HETATM   11  P1  UNL     1      21.743   5.038  50.808  1.00  0.00    -0.022 P 
HETATM   12  C17 UNL     1      22.252   3.817  49.703  1.00  0.00     0.009 C 
ENDROOT
BRANCH   1  13
HETATM   13  N1  UNL     1      21.704   2.504  51.615  1.00  0.00    -0.356 N 
HETATM   14  H7  UNL     1      21.161   3.235  52.116  1.00  0.00     0.166 HD
BRANCH  13  15
HETATM   15  C8  UNL     1      22.199   1.443  52.425  1.00  0.00     0.034 A 
HETATM   16  C7  UNL     1      21.210   0.672  53.004  1.00  0.00     0.029 A 
HETATM   17  C6  UNL     1      21.573  -0.384  53.817  1.00  0.00     0.004 A 
HETATM   18  C5  UNL     1      22.920  -0.618  54.014  1.00  0.00     0.021 A 
HETATM   19  C4  UNL     1      23.894   0.174  53.420  1.00  0.00     0.022 A 
HETATM   20  C18 UNL     1      23.546   1.229  52.606  1.00  0.00     0.050 A 
BRANCH  19  21
HETATM   21  C3  UNL     1      25.255  -0.162  53.707  1.00  0.00    -0.037 C 
HETATM   22  C2  UNL     1      26.400  -0.456  53.937  1.00  0.00     0.059 C 
BRANCH  22  23
HETATM   23  O1  UNL     1      27.712  -0.815  54.193  1.00  0.00    -0.308 OA
HETATM   24  C1  UNL     1      28.598   0.137  54.800  1.00  0.00     0.223 C 
ENDBRANCH  22  23
ENDBRANCH  19  21
ENDBRANCH  13  15
ENDBRANCH   1  13
TORSDOF 4
ENDMDL
MODEL 5
REMARK VINA RESULT:      -7.2      3.374      8.886
REMARK  4 active torsions:
REMARK  status: ('A' for Active; 'I' for Inactive)
REMARK    1  A    between atoms: O1_2  and  C2_3 
REMARK    2  A    between atoms: C3_4  and  C4_5 
REMARK    3  A    between atoms: C8_9  and  N1_10 
REMARK    4  A    between atoms: N1_10  and  C9_11 
ROOT
HETATM    1  C9  UNL     1      29.904   7.357  48.196  1.00  0.00     0.041 C 
HETATM    2  C10 UNL     1      29.775   8.488  48.859  1.00  0.00     0.029 C 
HETATM    3  C11 UNL     1      30.871   9.273  49.529  1.00  0.00     0.198 C 
HETATM    4  O2  UNL     1      32.009   8.558  49.759  1.00  0.00    -0.377 OA
HETATM    5  C12 UNL     1      32.422   7.946  48.543  1.00  0.00     0.161 C 
HETATM    6  C13 UNL     1      33.577   7.229  48.560  1.00  0.00     0.066 C 
HETATM    7  C14 UNL     1      34.696   6.391  48.590  1.00  0.00     0.000 C 
HETATM    8  C15 UNL     1      34.988   5.071  48.286  1.00  0.00     0.131 C 
HETATM    9  O3  UNL     1      34.022   4.186  47.806  1.00  0.00    -0.358 OA
HETATM   10  C16 UNL     1      32.665   3.963  47.581  1.00  0.00     0.218 C 
HETATM   11  P1  UNL     1      31.362   5.276  47.801  1.00  0.00    -0.022 P 
HETATM   12  C17 UNL     1      31.266   6.951  48.200  1.00  0.00     0.009 C 
ENDROOT
BRANCH   1  13
HETATM   13  N1  UNL     1      29.022   6.511  47.527  1.00  0.00    -0.356 N 
HETATM   14  H7  UNL     1      29.205   6.132  46.577  1.00  0.00     0.166 HD
BRANCH  13  15
HETATM   15  C8  UNL     1      27.791   6.113  48.120  1.00  0.00     0.034 A 
HETATM   16  C7  UNL     1      26.753   7.001  47.908  1.00  0.00     0.029 A 
HETATM   17  C6  UNL     1      25.511   6.720  48.443  1.00  0.00     0.004 A 
HETATM   18  C5  UNL     1      25.366   5.556  49.169  1.00  0.00     0.021 A 
HETATM   19  C4  UNL     1      26.425   4.680  49.368  1.00  0.00     0.022 A 
HETATM   20  C18 UNL     1      27.670   4.947  48.840  1.00  0.00     0.050 A 
BRANCH  19  21
HETATM   21  C3  UNL     1      26.153   3.511  50.146  1.00  0.00    -0.037 C 
HETATM   22  C2  UNL     1      25.938   2.527  50.807  1.00  0.00     0.059 C 
BRANCH  22  23
HETATM   23  O1  UNL     1      25.715   1.391  51.566  1.00  0.00    -0.308 OA
HETATM   24  C1  UNL     1      26.811   0.782  52.264  1.00  0.00     0.223 C 
ENDBRANCH  22  23
ENDBRANCH  19  21
ENDBRANCH  13  15
ENDBRANCH   1  13
TORSDOF 4
ENDMDL
MODEL 6
REMARK VINA RESULT:      -7.2      1.789      2.926
REMARK  4 active torsions:
REMARK  status: ('A' for Active; 'I' for Inactive)
REMARK    1  A    between atoms: O1_2  and  C2_3 
REMARK    2  A    between atoms: C3_4  and  C4_5 
REMARK    3  A    between atoms: C8_9  and  N1_10 
REMARK    4  A    between atoms: N1_10  and  C9_11 
ROOT
HETATM    1  C9  UNL     1      23.828   3.593  49.504  1.00  0.00     0.041 C 
HETATM    2  C10 UNL     1      23.298   3.562  48.299  1.00  0.00     0.029 C 
HETATM    3  C11 UNL     1      22.252   2.604  47.796  1.00  0.00     0.198 C 
HETATM    4  O2  UNL     1      22.121   1.474  48.548  1.00  0.00    -0.377 OA
HETATM    5  C12 UNL     1      21.932   1.846  49.908  1.00  0.00     0.161 C 
HETATM    6  C13 UNL     1      21.728   0.850  50.810  1.00  0.00     0.066 C 
HETATM    7  C14 UNL     1      21.637  -0.167  51.765  1.00  0.00     0.000 C 
HETATM    8  C15 UNL     1      22.309  -0.547  52.917  1.00  0.00     0.131 C 
HETATM    9  O3  UNL     1      23.404   0.165  53.408  1.00  0.00    -0.358 OA
HETATM   10  C16 UNL     1      24.346   1.161  53.156  1.00  0.00     0.218 C 
HETATM   11  P1  UNL     1      24.287   2.271  51.662  1.00  0.00    -0.022 P 
HETATM   12  C17 UNL     1      23.267   2.559  50.302  1.00  0.00     0.009 C 
ENDROOT
BRANCH   1  13
HETATM   13  N1  UNL     1      24.785   4.388  50.130  1.00  0.00    -0.356 N 
HETATM   14  H7  UNL     1      24.896   4.441  51.162  1.00  0.00     0.166 HD
BRANCH  13  15
HETATM   15  C8  UNL     1      25.681   5.195  49.374  1.00  0.00     0.034 A 
HETATM   16  C7  UNL     1      25.108   6.344  48.865  1.00  0.00     0.029 A 
HETATM   17  C6  UNL     1      25.883   7.202  48.109  1.00  0.00     0.004 A 
HETATM   18  C5  UNL     1      27.205   6.865  47.897  1.00  0.00     0.021 A 
HETATM   19  C4  UNL     1      27.757   5.703  48.421  1.00  0.00     0.022 A 
HETATM   20  C18 UNL     1      26.995   4.839  49.177  1.00  0.00     0.050 A 
BRANCH  19  21
HETATM   21  C3  UNL     1      29.134   5.459  48.125  1.00  0.00    -0.037 C 
HETATM   22  C2  UNL     1      30.292   5.238  47.872  1.00  0.00     0.059 C 
BRANCH  22  23
HETATM   23  O1  UNL     1      31.618   4.962  47.589  1.00  0.00    -0.308 OA
HETATM   24  C1  UNL     1      31.958   3.732  46.932  1.00  0.00     0.223 C 
ENDBRANCH  22  23
ENDBRANCH  19  21
ENDBRANCH  13  15
ENDBRANCH   1  13
TORSDOF 4
ENDMDL
MODEL 7
REMARK VINA RESULT:      -7.1      3.182      6.979
REMARK  4 active torsions:
REMARK  status: ('A' for Active; 'I' for Inactive)
REMARK    1  A    between atoms: O1_2  and  C2_3 
REMARK    2  A    between atoms: C3_4  and  C4_5 
REMARK    3  A    between atoms: C8_9  and  N1_10 
REMARK    4  A    between atoms: N1_10  and  C9_11 
ROOT
HETATM    1  C9  UNL     1      23.743   3.374  49.891  1.00  0.00     0.041 C 
HETATM    2  C10 UNL     1      25.030   3.376  49.613  1.00  0.00     0.029 C 
HETATM    3  C11 UNL     1      25.905   4.580  49.388  1.00  0.00     0.198 C 
HETATM    4  O2  UNL     1      25.219   5.722  49.101  1.00  0.00    -0.377 OA
HETATM    5  C12 UNL     1      24.230   5.928  50.103  1.00  0.00     0.161 C 
HETATM    6  C13 UNL     1      23.474   7.055  50.017  1.00  0.00     0.066 C 
HETATM    7  C14 UNL     1      22.610   8.145  49.876  1.00  0.00     0.000 C 
HETATM    8  C15 UNL     1      21.243   8.356  49.780  1.00  0.00     0.131 C 
HETATM    9  O3  UNL     1      20.323   7.307  49.814  1.00  0.00    -0.358 OA
HETATM   10  C16 UNL     1      20.139   5.926  49.765  1.00  0.00     0.218 C 
HETATM   11  P1  UNL     1      21.544   4.704  49.799  1.00  0.00    -0.022 P 
HETATM   12  C17 UNL     1      23.262   4.710  49.946  1.00  0.00     0.009 C 
ENDROOT
BRANCH   1  13
HETATM   13  N1  UNL     1      22.796   2.380  50.126  1.00  0.00    -0.356 N 
HETATM   14  H7  UNL     1      21.937   2.263  49.551  1.00  0.00     0.166 HD
BRANCH  13  15
HETATM   15  C8  UNL     1      22.952   1.451  51.192  1.00  0.00     0.034 A 
HETATM   16  C7  UNL     1      21.817   0.712  51.464  1.00  0.00     0.029 A 
HETATM   17  C6  UNL     1      21.851  -0.218  52.484  1.00  0.00     0.004 A 
HETATM   18  C5  UNL     1      23.028  -0.365  53.190  1.00  0.00     0.021 A 
HETATM   19  C4  UNL     1      24.155   0.391  52.897  1.00  0.00     0.022 A 
HETATM   20  C18 UNL     1      24.137   1.322  51.881  1.00  0.00     0.050 A 
BRANCH  19  21
HETATM   21  C3  UNL     1      25.312   0.155  53.704  1.00  0.00    -0.037 C 
HETATM   22  C2  UNL     1      26.294  -0.050  54.371  1.00  0.00     0.059 C 
BRANCH  22  23
HETATM   23  O1  UNL     1      27.428  -0.304  55.124  1.00  0.00    -0.308 OA
HETATM   24  C1  UNL     1      28.663   0.339  54.778  1.00  0.00     0.223 C 
ENDBRANCH  22  23
ENDBRANCH  19  21
ENDBRANCH  13  15
ENDBRANCH   1  13
TORSDOF 4
ENDMDL
MODEL 8
REMARK VINA RESULT:      -7.1      3.616      5.432
REMARK  4 active torsions:
REMARK  status: ('A' for Active; 'I' for Inactive)
REMARK    1  A    between atoms: O1_2  and  C2_3 
REMARK    2  A    between atoms: C3_4  and  C4_5 
REMARK    3  A    between atoms: C8_9  and  N1_10 
REMARK    4  A    between atoms: N1_10  and  C9_11 
ROOT
HETATM    1  C9  UNL     1      22.033   1.137  53.028  1.00  0.00     0.041 C 
HETATM    2  C10 UNL     1      22.362   0.052  53.698  1.00  0.00     0.029 C 
HETATM    3  C11 UNL     1      21.499  -1.157  53.942  1.00  0.00     0.198 C 
HETATM    4  O2  UNL     1      20.167  -0.939  53.753  1.00  0.00    -0.377 OA
HETATM    5  C12 UNL     1      19.973  -0.362  52.466  1.00  0.00     0.161 C 
HETATM    6  C13 UNL     1      18.694  -0.120  52.073  1.00  0.00     0.066 C 
HETATM    7  C14 UNL     1      17.396   0.245  51.703  1.00  0.00     0.000 C 
HETATM    8  C15 UNL     1      16.735   1.398  51.310  1.00  0.00     0.131 C 
HETATM    9  O3  UNL     1      17.385   2.628  51.198  1.00  0.00    -0.358 OA
HETATM   10  C16 UNL     1      18.545   3.353  51.465  1.00  0.00     0.218 C 
HETATM   11  P1  UNL     1      20.103   2.583  52.135  1.00  0.00    -0.022 P 
HETATM   12  C17 UNL     1      20.700   1.019  52.549  1.00  0.00     0.009 C 
ENDROOT
BRANCH   1  13
HETATM   13  N1  UNL     1      22.687   2.325  52.710  1.00  0.00    -0.356 N 
HETATM   14  H7  UNL     1      22.256   3.263  52.829  1.00  0.00     0.166 HD
BRANCH  13  15
HETATM   15  C8  UNL     1      24.011   2.319  52.188  1.00  0.00     0.034 A 
HETATM   16  C7  UNL     1      24.123   2.893  50.936  1.00  0.00     0.029 A 
HETATM   17  C6  UNL     1      25.362   2.939  50.328  1.00  0.00     0.004 A 
HETATM   18  C5  UNL     1      26.438   2.402  51.007  1.00  0.00     0.021 A 
HETATM   19  C4  UNL     1      26.298   1.830  52.265  1.00  0.00     0.022 A 
HETATM   20  C18 UNL     1      25.068   1.779  52.884  1.00  0.00     0.050 A 
BRANCH  19  21
HETATM   21  C3  UNL     1      27.484   1.300  52.863  1.00  0.00    -0.037 C 
HETATM   22  C2  UNL     1      28.476   0.852  53.380  1.00  0.00     0.059 C 
BRANCH  22  23
HETATM   23  O1  UNL     1      29.609   0.349  53.995  1.00  0.00    -0.308 OA
HETATM   24  C1  UNL     1      30.055  -0.977  53.676  1.00  0.00     0.223 C 
ENDBRANCH  22  23
ENDBRANCH  19  21
ENDBRANCH  13  15
ENDBRANCH   1  13
TORSDOF 4
ENDMDL
MODEL 9
REMARK VINA RESULT:      -6.9      3.339      8.710
REMARK  4 active torsions:
REMARK  status: ('A' for Active; 'I' for Inactive)
REMARK    1  A    between atoms: O1_2  and  C2_3 
REMARK    2  A    between atoms: C3_4  and  C4_5 
REMARK    3  A    between atoms: C8_9  and  N1_10 
REMARK    4  A    between atoms: N1_10  and  C9_11 
ROOT
HETATM    1  C9  UNL     1      28.481   7.387  48.421  1.00  0.00     0.041 C 
HETATM    2  C10 UNL     1      28.017   8.487  48.977  1.00  0.00     0.029 C 
HETATM    3  C11 UNL     1      28.822   9.657  49.476  1.00  0.00     0.198 C 
HETATM    4  O2  UNL     1      30.141   9.379  49.682  1.00  0.00    -0.377 OA
HETATM    5  C12 UNL     1      30.678   8.792  48.502  1.00  0.00     0.161 C 
HETATM    6  C13 UNL     1      32.004   8.492  48.497  1.00  0.00     0.066 C 
HETATM    7  C14 UNL     1      33.336   8.069  48.519  1.00  0.00     0.000 C 
HETATM    8  C15 UNL     1      34.033   6.886  48.324  1.00  0.00     0.131 C 
HETATM    9  O3  UNL     1      33.392   5.687  48.013  1.00  0.00    -0.358 OA
HETATM   10  C16 UNL     1      32.174   5.015  47.922  1.00  0.00     0.218 C 
HETATM   11  P1  UNL     1      30.523   5.854  48.116  1.00  0.00    -0.022 P 
HETATM   12  C17 UNL     1      29.899   7.444  48.354  1.00  0.00     0.009 C 
ENDROOT
BRANCH   1  13
HETATM   13  N1  UNL     1      27.897   6.229  47.913  1.00  0.00    -0.356 N 
HETATM   14  H7  UNL     1      28.128   5.837  46.978  1.00  0.00     0.166 HD
BRANCH  13  15
HETATM   15  C8  UNL     1      26.928   5.504  48.660  1.00  0.00     0.034 A 
HETATM   16  C7  UNL     1      25.668   6.070  48.643  1.00  0.00     0.029 A 
HETATM   17  C6  UNL     1      24.647   5.454  49.340  1.00  0.00     0.004 A 
HETATM   18  C5  UNL     1      24.938   4.292  50.026  1.00  0.00     0.021 A 
HETATM   19  C4  UNL     1      26.214   3.743  50.027  1.00  0.00     0.022 A 
HETATM   20  C18 UNL     1      27.242   4.346  49.335  1.00  0.00     0.050 A 
BRANCH  19  21
HETATM   21  C3  UNL     1      26.394   2.542  50.782  1.00  0.00    -0.037 C 
HETATM   22  C2  UNL     1      26.530   1.528  51.418  1.00  0.00     0.059 C 
BRANCH  22  23
HETATM   23  O1  UNL     1      26.666   0.367  52.159  1.00  0.00    -0.308 OA
HETATM   24  C1  UNL     1      27.577   0.339  53.268  1.00  0.00     0.223 C 
ENDBRANCH  22  23
ENDBRANCH  19  21
ENDBRANCH  13  15
ENDBRANCH   1  13
TORSDOF 4
ENDMDL
