MODEL 1
REMARK VINA RESULT:      -7.9      0.000      0.000
REMARK  8 active torsions:
REMARK  status: ('A' for Active; 'I' for Inactive)
REMARK    1  A    between atoms: C5_5  and  N1_6 
REMARK    2  A    between atoms: N1_6  and  C6_7 
REMARK    3  A    between atoms: N1_6  and  C12_14 
REMARK    4  A    between atoms: C6_7  and  C7_8 
REMARK    5  A    between atoms: C10_11  and  O1_12 
REMARK    6  A    between atoms: C12_14  and  N2_16 
REMARK    7  A    between atoms: N2_16  and  C13_17 
REMARK    8  A    between atoms: C19_23  and  O2_24 
ROOT
HETATM    1  N1  UNL     1      22.811   1.480  51.755  1.00  0.00    -0.343 N 
ENDROOT
BRANCH   1   2
HETATM    2  C5  UNL     1      23.368   1.444  53.089  1.00  0.00     0.166 C 
HETATM    3  C4  UNL     1      23.813   0.031  53.417  1.00  0.00     0.001 C 
HETATM    4  C3  UNL     1      25.048  -0.425  53.446  1.00  0.00    -0.020 C 
HETATM    5  C2  UNL     1      26.240   0.432  53.144  1.00  0.00     0.029 C 
HETATM    6  C1  UNL     1      26.689   0.204  51.729  1.00  0.00     0.018 C 
HETATM    7  C20 UNL     1      25.815   1.847  53.278  1.00  0.00     0.016 C 
HETATM    8  C19 UNL     1      24.566   2.340  53.261  1.00  0.00     0.066 C 
BRANCH   8   9
HETATM    9  O2  UNL     1      24.378   3.725  53.412  1.00  0.00    -0.363 OA
HETATM   10  H21 UNL     1      23.972   4.073  54.245  1.00  0.00     0.217 HD
ENDBRANCH   8   9
ENDBRANCH   1   2
BRANCH   1  11
HETATM   11  C6  UNL     1      21.810   0.460  51.550  1.00  0.00     0.139 C 
BRANCH  11  12
HETATM   12  C7  UNL     1      20.468   0.675  52.121  1.00  0.00     0.051 A 
HETATM   13  C8  UNL     1      19.305   0.495  51.270  1.00  0.00    -0.014 A 
HETATM   14  C9  UNL     1      18.390  -0.306  51.846  1.00  0.00     0.033 A 
HETATM   15  C10 UNL     1      18.946  -0.701  53.158  1.00  0.00     0.062 A 
HETATM   16  C11 UNL     1      20.140  -0.139  53.317  1.00  0.00     0.020 A 
BRANCH  15  17
HETATM   17  O1  UNL     1      18.066  -1.550  53.859  1.00  0.00    -0.361 OA
HETATM   18  H13 UNL     1      17.441  -2.134  53.283  1.00  0.00     0.217 HD
ENDBRANCH  15  17
ENDBRANCH  11  12
ENDBRANCH   1  11
BRANCH   1  19
HETATM   19  C12 UNL     1      23.101   2.345  50.626  1.00  0.00     0.175 C 
HETATM   20  S1  UNL     1      22.333   2.055  49.189  1.00  0.00    -0.041 SA
BRANCH  19  21
HETATM   21  N2  UNL     1      23.988   3.460  50.582  1.00  0.00    -0.333 N 
HETATM   22  H15 UNL     1      23.991   4.129  51.376  1.00  0.00     0.168 HD
BRANCH  21  23
HETATM   23  C13 UNL     1      24.993   4.194  49.900  1.00  0.00     0.034 A 
HETATM   24  C14 UNL     1      26.249   3.638  49.704  1.00  0.00     0.029 A 
HETATM   25  C15 UNL     1      27.245   4.343  49.020  1.00  0.00     0.002 A 
HETATM   26  C16 UNL     1      26.857   5.592  48.588  1.00  0.00     0.000 A 
HETATM   27  C17 UNL     1      25.646   6.229  48.732  1.00  0.00     0.002 A 
HETATM   28  C18 UNL     1      24.707   5.457  49.425  1.00  0.00     0.029 A 
ENDBRANCH  21  23
ENDBRANCH  19  21
ENDBRANCH   1  19
TORSDOF 8
ENDMDL
MODEL 2
REMARK VINA RESULT:      -7.9      2.834      6.769
REMARK  8 active torsions:
REMARK  status: ('A' for Active; 'I' for Inactive)
REMARK    1  A    between atoms: C5_5  and  N1_6 
REMARK    2  A    between atoms: N1_6  and  C6_7 
REMARK    3  A    between atoms: N1_6  and  C12_14 
REMARK    4  A    between atoms: C6_7  and  C7_8 
REMARK    5  A    between atoms: C10_11  and  O1_12 
REMARK    6  A    between atoms: C12_14  and  N2_16 
REMARK    7  A    between atoms: N2_16  and  C13_17 
REMARK    8  A    between atoms: C19_23  and  O2_24 
ROOT
HETATM    1  N1  UNL     1      25.091   2.888  51.065  1.00  0.00    -0.343 N 
ENDROOT
BRANCH   1   2
HETATM    2  C5  UNL     1      25.275   3.204  49.666  1.00  0.00     0.166 C 
HETATM    3  C4  UNL     1      23.927   3.474  49.023  1.00  0.00     0.001 C 
HETATM    4  C3  UNL     1      23.427   4.646  48.691  1.00  0.00    -0.020 C 
HETATM    5  C2  UNL     1      24.158   5.936  48.915  1.00  0.00     0.029 C 
HETATM    6  C1  UNL     1      23.652   6.601  50.163  1.00  0.00     0.018 C 
HETATM    7  C20 UNL     1      25.592   5.607  49.106  1.00  0.00     0.016 C 
HETATM    8  C19 UNL     1      26.131   4.422  49.436  1.00  0.00     0.066 C 
BRANCH   8   9
HETATM    9  O2  UNL     1      27.527   4.321  49.562  1.00  0.00    -0.363 OA
HETATM   10  H21 UNL     1      27.993   3.532  49.190  1.00  0.00     0.217 HD
ENDBRANCH   8   9
ENDBRANCH   1   2
BRANCH   1  11
HETATM   11  C6  UNL     1      26.299   2.393  51.679  1.00  0.00     0.139 C 
BRANCH  11  12
HETATM   12  C7  UNL     1      26.208   1.196  52.535  1.00  0.00     0.051 A 
HETATM   13  C8  UNL     1      26.701  -0.072  52.028  1.00  0.00    -0.014 A 
HETATM   14  C9  UNL     1      27.531  -0.666  52.905  1.00  0.00     0.033 A 
HETATM   15  C10 UNL     1      27.619   0.234  54.075  1.00  0.00     0.062 A 
HETATM   16  C11 UNL     1      26.859   1.305  53.864  1.00  0.00     0.020 A 
BRANCH  15  17
HETATM   17  O1  UNL     1      28.470  -0.289  55.068  1.00  0.00    -0.361 OA
HETATM   18  H13 UNL     1      28.067  -1.019  55.674  1.00  0.00     0.217 HD
ENDBRANCH  15  17
ENDBRANCH  11  12
ENDBRANCH   1  11
BRANCH   1  19
HETATM   19  C12 UNL     1      23.917   2.976  51.913  1.00  0.00     0.175 C 
HETATM   20  S1  UNL     1      23.657   4.374  52.760  1.00  0.00    -0.041 SA
BRANCH  19  21
HETATM   21  N2  UNL     1      22.912   1.988  52.124  1.00  0.00    -0.333 N 
HETATM   22  H15 UNL     1      22.176   1.861  51.402  1.00  0.00     0.168 HD
BRANCH  21  23
HETATM   23  C13 UNL     1      22.355   0.967  52.938  1.00  0.00     0.034 A 
HETATM   24  C14 UNL     1      23.175   0.002  53.502  1.00  0.00     0.029 A 
HETATM   25  C15 UNL     1      22.643  -1.002  54.318  1.00  0.00     0.002 A 
HETATM   26  C16 UNL     1      21.278  -0.927  54.487  1.00  0.00     0.000 A 
HETATM   27  C17 UNL     1      20.382  -0.017  53.974  1.00  0.00     0.002 A 
HETATM   28  C18 UNL     1      20.994   0.951  53.171  1.00  0.00     0.029 A 
ENDBRANCH  21  23
ENDBRANCH  19  21
ENDBRANCH   1  19
TORSDOF 8
ENDMDL
MODEL 3
REMARK VINA RESULT:      -7.9      2.009      5.156
REMARK  8 active torsions:
REMARK  status: ('A' for Active; 'I' for Inactive)
REMARK    1  A    between atoms: C5_5  and  N1_6 
REMARK    2  A    between atoms: N1_6  and  C6_7 
REMARK    3  A    between atoms: N1_6  and  C12_14 
REMARK    4  A    between atoms: C6_7  and  C7_8 
REMARK    5  A    between atoms: C10_11  and  O1_12 
REMARK    6  A    between atoms: C12_14  and  N2_16 
REMARK    7  A    between atoms: N2_16  and  C13_17 
REMARK    8  A    between atoms: C19_23  and  O2_24 
ROOT
HETATM    1  N1  UNL     1      23.008   1.761  51.683  1.00  0.00    -0.343 N 
ENDROOT
BRANCH   1   2
HETATM    2  C5  UNL     1      22.270   0.698  51.039  1.00  0.00     0.166 C 
HETATM    3  C4  UNL     1      21.297   0.082  52.028  1.00  0.00     0.001 C 
HETATM    4  C3  UNL     1      19.993   0.261  52.073  1.00  0.00    -0.020 C 
HETATM    5  C2  UNL     1      19.258   1.140  51.106  1.00  0.00     0.029 C 
HETATM    6  C1  UNL     1      18.989   2.478  51.733  1.00  0.00     0.018 C 
HETATM    7  C20 UNL     1      20.139   1.342  49.930  1.00  0.00     0.016 C 
HETATM    8  C19 UNL     1      21.468   1.160  49.852  1.00  0.00     0.066 C 
BRANCH   8   9
HETATM    9  O2  UNL     1      22.118   1.404  48.630  1.00  0.00    -0.363 OA
HETATM   10  H21 UNL     1      21.685   1.984  47.956  1.00  0.00     0.217 HD
ENDBRANCH   8   9
ENDBRANCH   1   2
BRANCH   1  11
HETATM   11  C6  UNL     1      23.441   1.403  53.012  1.00  0.00     0.139 C 
BRANCH  11  12
HETATM   12  C7  UNL     1      24.860   1.058  53.215  1.00  0.00     0.051 A 
HETATM   13  C8  UNL     1      25.557   0.308  52.186  1.00  0.00    -0.014 A 
HETATM   14  C9  UNL     1      26.722   0.891  51.852  1.00  0.00     0.033 A 
HETATM   15  C10 UNL     1      26.839   2.105  52.688  1.00  0.00     0.062 A 
HETATM   16  C11 UNL     1      25.769   2.203  53.472  1.00  0.00     0.020 A 
BRANCH  15  17
HETATM   17  O1  UNL     1      28.032   2.805  52.423  1.00  0.00    -0.361 OA
HETATM   18  H13 UNL     1      28.001   3.825  52.561  1.00  0.00     0.217 HD
ENDBRANCH  15  17
ENDBRANCH  11  12
ENDBRANCH   1  11
BRANCH   1  19
HETATM   19  C12 UNL     1      23.358   3.092  51.220  1.00  0.00     0.175 C 
HETATM   20  S1  UNL     1      22.761   4.398  52.042  1.00  0.00    -0.041 SA
BRANCH  19  21
HETATM   21  N2  UNL     1      24.183   3.445  50.112  1.00  0.00    -0.333 N 
HETATM   22  H15 UNL     1      24.100   2.899  49.233  1.00  0.00     0.168 HD
BRANCH  21  23
HETATM   23  C13 UNL     1      25.186   4.280  49.554  1.00  0.00     0.034 A 
HETATM   24  C14 UNL     1      24.882   5.583  49.188  1.00  0.00     0.029 A 
HETATM   25  C15 UNL     1      25.863   6.423  48.650  1.00  0.00     0.002 A 
HETATM   26  C16 UNL     1      27.103   5.836  48.530  1.00  0.00     0.000 A 
HETATM   27  C17 UNL     1      27.503   4.562  48.861  1.00  0.00     0.002 A 
HETATM   28  C18 UNL     1      26.465   3.789  49.390  1.00  0.00     0.029 A 
ENDBRANCH  21  23
ENDBRANCH  19  21
ENDBRANCH   1  19
TORSDOF 8
ENDMDL
MODEL 4
REMARK VINA RESULT:      -7.8      1.752      2.162
REMARK  8 active torsions:
REMARK  status: ('A' for Active; 'I' for Inactive)
REMARK    1  A    between atoms: C5_5  and  N1_6 
REMARK    2  A    between atoms: N1_6  and  C6_7 
REMARK    3  A    between atoms: N1_6  and  C12_14 
REMARK    4  A    between atoms: C6_7  and  C7_8 
REMARK    5  A    between atoms: C10_11  and  O1_12 
REMARK    6  A    between atoms: C12_14  and  N2_16 
REMARK    7  A    between atoms: N2_16  and  C13_17 
REMARK    8  A    between atoms: C19_23  and  O2_24 
ROOT
HETATM    1  N1  UNL     1      24.879   2.156  52.679  1.00  0.00    -0.343 N 
ENDROOT
BRANCH   1   2
HETATM    2  C5  UNL     1      25.960   1.979  53.622  1.00  0.00     0.166 C 
HETATM    3  C4  UNL     1      25.698   0.748  54.472  1.00  0.00     0.001 C 
HETATM    4  C3  UNL     1      26.284  -0.427  54.368  1.00  0.00    -0.020 C 
HETATM    5  C2  UNL     1      27.340  -0.722  53.345  1.00  0.00     0.029 C 
HETATM    6  C1  UNL     1      26.733  -1.446  52.178  1.00  0.00     0.018 C 
HETATM    7  C20 UNL     1      27.871   0.578  52.866  1.00  0.00     0.016 C 
HETATM    8  C19 UNL     1      27.302   1.790  52.965  1.00  0.00     0.066 C 
BRANCH   8   9
HETATM    9  O2  UNL     1      27.982   2.906  52.447  1.00  0.00    -0.363 OA
HETATM   10  H21 UNL     1      28.965   2.873  52.346  1.00  0.00     0.217 HD
ENDBRANCH   8   9
ENDBRANCH   1   2
BRANCH   1  11
HETATM   11  C6  UNL     1      24.060   0.974  52.553  1.00  0.00     0.139 C 
BRANCH  11  12
HETATM   12  C7  UNL     1      22.608   1.104  52.774  1.00  0.00     0.051 A 
HETATM   13  C8  UNL     1      21.701   0.815  51.677  1.00  0.00    -0.014 A 
HETATM   14  C9  UNL     1      20.728  -0.035  52.052  1.00  0.00     0.033 A 
HETATM   15  C10 UNL     1      20.973  -0.352  53.476  1.00  0.00     0.062 A 
HETATM   16  C11 UNL     1      22.054   0.302  53.892  1.00  0.00     0.020 A 
BRANCH  15  17
HETATM   17  O1  UNL     1      20.007  -1.244  53.982  1.00  0.00    -0.361 OA
HETATM   18  H13 UNL     1      19.548  -1.857  53.292  1.00  0.00     0.217 HD
ENDBRANCH  15  17
ENDBRANCH  11  12
ENDBRANCH   1  11
BRANCH   1  19
HETATM   19  C12 UNL     1      24.510   3.295  51.858  1.00  0.00     0.175 C 
HETATM   20  S1  UNL     1      23.335   4.321  52.411  1.00  0.00    -0.041 SA
BRANCH  19  21
HETATM   21  N2  UNL     1      25.045   3.672  50.592  1.00  0.00    -0.333 N 
HETATM   22  H15 UNL     1      24.783   3.118  49.754  1.00  0.00     0.168 HD
BRANCH  21  23
HETATM   23  C13 UNL     1      25.860   4.541  49.821  1.00  0.00     0.034 A 
HETATM   24  C14 UNL     1      27.046   4.078  49.272  1.00  0.00     0.029 A 
HETATM   25  C15 UNL     1      27.854   4.919  48.498  1.00  0.00     0.002 A 
HETATM   26  C16 UNL     1      27.361   6.196  48.352  1.00  0.00     0.000 A 
HETATM   27  C17 UNL     1      26.205   6.750  48.854  1.00  0.00     0.002 A 
HETATM   28  C18 UNL     1      25.457   5.845  49.614  1.00  0.00     0.029 A 
ENDBRANCH  21  23
ENDBRANCH  19  21
ENDBRANCH   1  19
TORSDOF 8
ENDMDL
MODEL 5
REMARK VINA RESULT:      -7.8      2.202      4.947
REMARK  8 active torsions:
REMARK  status: ('A' for Active; 'I' for Inactive)
REMARK    1  A    between atoms: C5_5  and  N1_6 
REMARK    2  A    between atoms: N1_6  and  C6_7 
REMARK    3  A    between atoms: N1_6  and  C12_14 
REMARK    4  A    between atoms: C6_7  and  C7_8 
REMARK    5  A    between atoms: C10_11  and  O1_12 
REMARK    6  A    between atoms: C12_14  and  N2_16 
REMARK    7  A    between atoms: N2_16  and  C13_17 
REMARK    8  A    between atoms: C19_23  and  O2_24 
ROOT
HETATM    1  N1  UNL     1      24.125   2.465  51.399  1.00  0.00    -0.343 N 
ENDROOT
BRANCH   1   2
HETATM    2  C5  UNL     1      24.582   2.600  50.034  1.00  0.00     0.166 C 
HETATM    3  C4  UNL     1      23.402   2.907  49.130  1.00  0.00     0.001 C 
HETATM    4  C3  UNL     1      23.094   4.071  48.597  1.00  0.00    -0.020 C 
HETATM    5  C2  UNL     1      23.906   5.311  48.823  1.00  0.00     0.029 C 
HETATM    6  C1  UNL     1      23.264   6.157  49.885  1.00  0.00     0.018 C 
HETATM    7  C20 UNL     1      25.242   4.885  49.308  1.00  0.00     0.016 C 
HETATM    8  C19 UNL     1      25.588   3.705  49.847  1.00  0.00     0.066 C 
BRANCH   8   9
HETATM    9  O2  UNL     1      26.922   3.500  50.238  1.00  0.00    -0.363 OA
HETATM   10  H21 UNL     1      27.191   3.693  51.170  1.00  0.00     0.217 HD
ENDBRANCH   8   9
ENDBRANCH   1   2
BRANCH   1  11
HETATM   11  C6  UNL     1      23.102   1.458  51.539  1.00  0.00     0.139 C 
BRANCH  11  12
HETATM   12  C7  UNL     1      22.517   1.236  52.874  1.00  0.00     0.051 A 
HETATM   13  C8  UNL     1      21.072   1.234  53.018  1.00  0.00    -0.014 A 
HETATM   14  C9  UNL     1      20.644   0.148  53.689  1.00  0.00     0.033 A 
HETATM   15  C10 UNL     1      21.850  -0.640  54.024  1.00  0.00     0.062 A 
HETATM   16  C11 UNL     1      22.927  -0.016  53.556  1.00  0.00     0.020 A 
BRANCH  15  17
HETATM   17  O1  UNL     1      21.522  -1.812  54.733  1.00  0.00    -0.361 OA
HETATM   18  H13 UNL     1      22.137  -2.625  54.578  1.00  0.00     0.217 HD
ENDBRANCH  15  17
ENDBRANCH  11  12
ENDBRANCH   1  11
BRANCH   1  19
HETATM   19  C12 UNL     1      24.515   3.170  52.607  1.00  0.00     0.175 C 
HETATM   20  S1  UNL     1      23.642   4.500  53.063  1.00  0.00    -0.041 SA
BRANCH  19  21
HETATM   21  N2  UNL     1      25.587   2.862  53.494  1.00  0.00    -0.333 N 
HETATM   22  H15 UNL     1      25.752   3.479  54.312  1.00  0.00     0.168 HD
BRANCH  21  23
HETATM   23  C13 UNL     1      26.673   2.020  53.851  1.00  0.00     0.034 A 
HETATM   24  C14 UNL     1      27.975   2.411  53.578  1.00  0.00     0.029 A 
HETATM   25  C15 UNL     1      29.056   1.598  53.937  1.00  0.00     0.002 A 
HETATM   26  C16 UNL     1      28.697   0.423  54.558  1.00  0.00     0.000 A 
HETATM   27  C17 UNL     1      27.444  -0.053  54.870  1.00  0.00     0.002 A 
HETATM   28  C18 UNL     1      26.421   0.817  54.479  1.00  0.00     0.029 A 
ENDBRANCH  21  23
ENDBRANCH  19  21
ENDBRANCH   1  19
TORSDOF 8
ENDMDL
MODEL 6
REMARK VINA RESULT:      -7.7      2.215      6.400
REMARK  8 active torsions:
REMARK  status: ('A' for Active; 'I' for Inactive)
REMARK    1  A    between atoms: C5_5  and  N1_6 
REMARK    2  A    between atoms: N1_6  and  C6_7 
REMARK    3  A    between atoms: N1_6  and  C12_14 
REMARK    4  A    between atoms: C6_7  and  C7_8 
REMARK    5  A    between atoms: C10_11  and  O1_12 
REMARK    6  A    between atoms: C12_14  and  N2_16 
REMARK    7  A    between atoms: N2_16  and  C13_17 
REMARK    8  A    between atoms: C19_23  and  O2_24 
ROOT
HETATM    1  N1  UNL     1      23.137   3.199  51.196  1.00  0.00    -0.343 N 
ENDROOT
BRANCH   1   2
HETATM    2  C5  UNL     1      21.808   2.732  50.870  1.00  0.00     0.166 C 
HETATM    3  C4  UNL     1      21.891   1.350  50.250  1.00  0.00     0.001 C 
HETATM    4  C3  UNL     1      21.593   0.203  50.825  1.00  0.00    -0.020 C 
HETATM    5  C2  UNL     1      21.107   0.105  52.240  1.00  0.00     0.029 C 
HETATM    6  C1  UNL     1      22.243  -0.275  53.146  1.00  0.00     0.018 C 
HETATM    7  C20 UNL     1      20.619   1.449  52.638  1.00  0.00     0.016 C 
HETATM    8  C19 UNL     1      20.899   2.631  52.066  1.00  0.00     0.066 C 
BRANCH   8   9
HETATM    9  O2  UNL     1      20.323   3.798  52.598  1.00  0.00    -0.363 OA
HETATM   10  H21 UNL     1      20.242   3.897  53.579  1.00  0.00     0.217 HD
ENDBRANCH   8   9
ENDBRANCH   1   2
BRANCH   1  11
HETATM   11  C6  UNL     1      23.903   3.540  50.022  1.00  0.00     0.139 C 
BRANCH  11  12
HETATM   12  C7  UNL     1      25.230   4.154  50.208  1.00  0.00     0.051 A 
HETATM   13  C8  UNL     1      26.405   3.451  49.724  1.00  0.00    -0.014 A 
HETATM   14  C9  UNL     1      27.184   4.250  48.973  1.00  0.00     0.033 A 
HETATM   15  C10 UNL     1      26.518   5.569  48.933  1.00  0.00     0.062 A 
HETATM   16  C11 UNL     1      25.394   5.516  49.642  1.00  0.00     0.020 A 
BRANCH  15  17
HETATM   17  O1  UNL     1      27.250   6.497  48.166  1.00  0.00    -0.361 OA
HETATM   18  H13 UNL     1      26.873   7.456  48.130  1.00  0.00     0.217 HD
ENDBRANCH  15  17
ENDBRANCH  11  12
ENDBRANCH   1  11
BRANCH   1  19
HETATM   19  C12 UNL     1      23.800   3.359  52.477  1.00  0.00     0.175 C 
HETATM   20  S1  UNL     1      23.681   4.816  53.253  1.00  0.00    -0.041 SA
BRANCH  19  21
HETATM   21  N2  UNL     1      24.568   2.395  53.193  1.00  0.00    -0.333 N 
HETATM   22  H15 UNL     1      24.370   2.246  54.201  1.00  0.00     0.168 HD
BRANCH  21  23
HETATM   23  C13 UNL     1      25.599   1.420  53.203  1.00  0.00     0.034 A 
HETATM   24  C14 UNL     1      25.741   0.546  52.136  1.00  0.00     0.029 A 
HETATM   25  C15 UNL     1      26.762  -0.412  52.126  1.00  0.00     0.002 A 
HETATM   26  C16 UNL     1      27.567  -0.389  53.242  1.00  0.00     0.000 A 
HETATM   27  C17 UNL     1      27.509   0.430  54.346  1.00  0.00     0.002 A 
HETATM   28  C18 UNL     1      26.463   1.356  54.278  1.00  0.00     0.029 A 
ENDBRANCH  21  23
ENDBRANCH  19  21
ENDBRANCH   1  19
TORSDOF 8
ENDMDL
MODEL 7
REMARK VINA RESULT:      -7.5      2.220      2.916
REMARK  8 active torsions:
REMARK  status: ('A' for Active; 'I' for Inactive)
REMARK    1  A    between atoms: C5_5  and  N1_6 
REMARK    2  A    between atoms: N1_6  and  C6_7 
REMARK    3  A    between atoms: N1_6  and  C12_14 
REMARK    4  A    between atoms: C6_7  and  C7_8 
REMARK    5  A    between atoms: C10_11  and  O1_12 
REMARK    6  A    between atoms: C12_14  and  N2_16 
REMARK    7  A    between atoms: N2_16  and  C13_17 
REMARK    8  A    between atoms: C19_23  and  O2_24 
ROOT
HETATM    1  N1  UNL     1      24.735   1.996  52.721  1.00  0.00    -0.343 N 
ENDROOT
BRANCH   1   2
HETATM    2  C5  UNL     1      25.952   2.028  53.500  1.00  0.00     0.166 C 
HETATM    3  C4  UNL     1      25.923   0.920  54.537  1.00  0.00     0.001 C 
HETATM    4  C3  UNL     1      26.586  -0.217  54.502  1.00  0.00    -0.020 C 
HETATM    5  C2  UNL     1      27.505  -0.589  53.377  1.00  0.00     0.029 C 
HETATM    6  C1  UNL     1      26.802  -1.513  52.425  1.00  0.00     0.018 C 
HETATM    7  C20 UNL     1      27.848   0.660  52.651  1.00  0.00     0.016 C 
HETATM    8  C19 UNL     1      27.196   1.834  52.674  1.00  0.00     0.066 C 
BRANCH   8   9
HETATM    9  O2  UNL     1      27.695   2.904  51.913  1.00  0.00    -0.363 OA
HETATM   10  H21 UNL     1      28.209   2.717  51.088  1.00  0.00     0.217 HD
ENDBRANCH   8   9
ENDBRANCH   1   2
BRANCH   1  11
HETATM   11  C6  UNL     1      24.031   0.743  52.853  1.00  0.00     0.139 C 
BRANCH  11  12
HETATM   12  C7  UNL     1      22.645   0.770  53.355  1.00  0.00     0.051 A 
HETATM   13  C8  UNL     1      21.551   0.613  52.412  1.00  0.00    -0.014 A 
HETATM   14  C9  UNL     1      20.680  -0.328  52.818  1.00  0.00     0.033 A 
HETATM   15  C10 UNL     1      21.195  -0.850  54.103  1.00  0.00     0.062 A 
HETATM   16  C11 UNL     1      22.325  -0.220  54.413  1.00  0.00     0.020 A 
BRANCH  15  17
HETATM   17  O1  UNL     1      20.356  -1.853  54.628  1.00  0.00    -0.361 OA
HETATM   18  H13 UNL     1      20.124  -1.773  55.629  1.00  0.00     0.217 HD
ENDBRANCH  15  17
ENDBRANCH  11  12
ENDBRANCH   1  11
BRANCH   1  19
HETATM   19  C12 UNL     1      24.139   2.989  51.846  1.00  0.00     0.175 C 
HETATM   20  S1  UNL     1      23.473   4.343  52.526  1.00  0.00    -0.041 SA
BRANCH  19  21
HETATM   21  N2  UNL     1      24.048   2.963  50.424  1.00  0.00    -0.333 N 
HETATM   22  H15 UNL     1      24.759   2.429  49.887  1.00  0.00     0.168 HD
BRANCH  21  23
HETATM   23  C13 UNL     1      23.380   3.359  49.236  1.00  0.00     0.034 A 
HETATM   24  C14 UNL     1      22.643   2.434  48.511  1.00  0.00     0.029 A 
HETATM   25  C15 UNL     1      21.967   2.812  47.346  1.00  0.00     0.002 A 
HETATM   26  C16 UNL     1      22.111   4.142  47.017  1.00  0.00     0.000 A 
HETATM   27  C17 UNL     1      22.815   5.131  47.664  1.00  0.00     0.002 A 
HETATM   28  C18 UNL     1      23.461   4.671  48.816  1.00  0.00     0.029 A 
ENDBRANCH  21  23
ENDBRANCH  19  21
ENDBRANCH   1  19
TORSDOF 8
ENDMDL
MODEL 8
REMARK VINA RESULT:      -7.4      2.746      7.115
REMARK  8 active torsions:
REMARK  status: ('A' for Active; 'I' for Inactive)
REMARK    1  A    between atoms: C5_5  and  N1_6 
REMARK    2  A    between atoms: N1_6  and  C6_7 
REMARK    3  A    between atoms: N1_6  and  C12_14 
REMARK    4  A    between atoms: C6_7  and  C7_8 
REMARK    5  A    between atoms: C10_11  and  O1_12 
REMARK    6  A    between atoms: C12_14  and  N2_16 
REMARK    7  A    between atoms: N2_16  and  C13_17 
REMARK    8  A    between atoms: C19_23  and  O2_24 
ROOT
HETATM    1  N1  UNL     1      23.394   4.279  50.053  1.00  0.00    -0.343 N 
ENDROOT
BRANCH   1   2
HETATM    2  C5  UNL     1      22.465   4.142  48.954  1.00  0.00     0.166 C 
HETATM    3  C4  UNL     1      22.811   2.906  48.145  1.00  0.00     0.001 C 
HETATM    4  C3  UNL     1      22.176   1.752  48.149  1.00  0.00    -0.020 C 
HETATM    5  C2  UNL     1      20.966   1.491  48.996  1.00  0.00     0.029 C 
HETATM    6  C1  UNL     1      21.362   0.743  50.237  1.00  0.00     0.018 C 
HETATM    7  C20 UNL     1      20.413   2.807  49.399  1.00  0.00     0.016 C 
HETATM    8  C19 UNL     1      21.033   3.999  49.397  1.00  0.00     0.066 C 
BRANCH   8   9
HETATM    9  O2  UNL     1      20.320   5.137  49.815  1.00  0.00    -0.363 OA
HETATM   10  H21 UNL     1      19.699   5.068  50.581  1.00  0.00     0.217 HD
ENDBRANCH   8   9
ENDBRANCH   1   2
BRANCH   1  11
HETATM   11  C6  UNL     1      24.269   5.415  49.894  1.00  0.00     0.139 C 
BRANCH  11  12
HETATM   12  C7  UNL     1      25.297   5.363  48.837  1.00  0.00     0.051 A 
HETATM   13  C8  UNL     1      25.826   6.608  48.308  1.00  0.00    -0.014 A 
HETATM   14  C9  UNL     1      27.172   6.610  48.305  1.00  0.00     0.033 A 
HETATM   15  C10 UNL     1      27.595   5.307  48.860  1.00  0.00     0.062 A 
HETATM   16  C11 UNL     1      26.518   4.589  49.167  1.00  0.00     0.020 A 
BRANCH  15  17
HETATM   17  O1  UNL     1      28.999   5.194  48.906  1.00  0.00    -0.361 OA
HETATM   18  H13 UNL     1      29.373   4.386  49.423  1.00  0.00     0.217 HD
ENDBRANCH  15  17
ENDBRANCH  11  12
ENDBRANCH   1  11
BRANCH   1  19
HETATM   19  C12 UNL     1      23.585   3.471  51.244  1.00  0.00     0.175 C 
HETATM   20  S1  UNL     1      23.164   4.112  52.710  1.00  0.00    -0.041 SA
BRANCH  19  21
HETATM   21  N2  UNL     1      24.101   2.145  51.329  1.00  0.00    -0.333 N 
HETATM   22  H15 UNL     1      23.871   1.469  50.575  1.00  0.00     0.168 HD
BRANCH  21  23
HETATM   23  C13 UNL     1      24.869   1.177  52.027  1.00  0.00     0.034 A 
HETATM   24  C14 UNL     1      24.259   0.327  52.936  1.00  0.00     0.029 A 
HETATM   25  C15 UNL     1      25.001  -0.642  53.621  1.00  0.00     0.002 A 
HETATM   26  C16 UNL     1      26.341  -0.653  53.306  1.00  0.00     0.000 A 
HETATM   27  C17 UNL     1      27.038   0.143  52.426  1.00  0.00     0.002 A 
HETATM   28  C18 UNL     1      26.225   1.083  51.784  1.00  0.00     0.029 A 
ENDBRANCH  21  23
ENDBRANCH  19  21
ENDBRANCH   1  19
TORSDOF 8
ENDMDL
MODEL 9
REMARK VINA RESULT:      -7.2      7.009     11.647
REMARK  8 active torsions:
REMARK  status: ('A' for Active; 'I' for Inactive)
REMARK    1  A    between atoms: C5_5  and  N1_6 
REMARK    2  A    between atoms: N1_6  and  C6_7 
REMARK    3  A    between atoms: N1_6  and  C12_14 
REMARK    4  A    between atoms: C6_7  and  C7_8 
REMARK    5  A    between atoms: C10_11  and  O1_12 
REMARK    6  A    between atoms: C12_14  and  N2_16 
REMARK    7  A    between atoms: N2_16  and  C13_17 
REMARK    8  A    between atoms: C19_23  and  O2_24 
ROOT
HETATM    1  N1  UNL     1      30.654   8.507  48.706  1.00  0.00    -0.343 N 
ENDROOT
BRANCH   1   2
HETATM    2  C5  UNL     1      30.322   9.738  49.388  1.00  0.00     0.166 C 
HETATM    3  C4  UNL     1      30.882  10.917  48.614  1.00  0.00     0.001 C 
HETATM    4  C3  UNL     1      30.210  11.760  47.857  1.00  0.00    -0.020 C 
HETATM    5  C2  UNL     1      28.729  11.662  47.647  1.00  0.00     0.029 C 
HETATM    6  C1  UNL     1      28.440  10.988  46.336  1.00  0.00     0.018 C 
HETATM    7  C20 UNL     1      28.179  10.821  48.738  1.00  0.00     0.016 C 
HETATM    8  C19 UNL     1      28.839   9.961  49.531  1.00  0.00     0.066 C 
BRANCH   8   9
HETATM    9  O2  UNL     1      28.126   9.260  50.518  1.00  0.00    -0.363 OA
HETATM   10  H21 UNL     1      27.505   8.539  50.250  1.00  0.00     0.217 HD
ENDBRANCH   8   9
ENDBRANCH   1   2
BRANCH   1  11
HETATM   11  C6  UNL     1      31.732   7.797  49.350  1.00  0.00     0.139 C 
BRANCH  11  12
HETATM   12  C7  UNL     1      32.778   7.196  48.502  1.00  0.00     0.051 A 
HETATM   13  C8  UNL     1      34.083   7.830  48.437  1.00  0.00    -0.014 A 
HETATM   14  C9  UNL     1      35.073   6.945  48.652  1.00  0.00     0.033 A 
HETATM   15  C10 UNL     1      34.425   5.636  48.877  1.00  0.00     0.062 A 
HETATM   16  C11 UNL     1      33.105   5.778  48.792  1.00  0.00     0.020 A 
BRANCH  15  17
HETATM   17  O1  UNL     1      35.373   4.622  49.116  1.00  0.00    -0.361 OA
HETATM   18  H13 UNL     1      35.587   4.422  50.104  1.00  0.00     0.217 HD
ENDBRANCH  15  17
ENDBRANCH  11  12
ENDBRANCH   1  11
BRANCH   1  19
HETATM   19  C12 UNL     1      30.099   7.904  47.509  1.00  0.00     0.175 C 
HETATM   20  S1  UNL     1      30.815   8.230  46.053  1.00  0.00    -0.041 SA
BRANCH  19  21
HETATM   21  N2  UNL     1      28.978   7.029  47.408  1.00  0.00    -0.333 N 
HETATM   22  H15 UNL     1      28.732   6.636  46.479  1.00  0.00     0.168 HD
BRANCH  21  23
HETATM   23  C13 UNL     1      27.901   6.347  48.033  1.00  0.00     0.034 A 
HETATM   24  C14 UNL     1      26.662   6.959  48.144  1.00  0.00     0.029 A 
HETATM   25  C15 UNL     1      25.587   6.295  48.745  1.00  0.00     0.002 A 
HETATM   26  C16 UNL     1      25.886   5.028  49.193  1.00  0.00     0.000 A 
HETATM   27  C17 UNL     1      27.075   4.337  49.132  1.00  0.00     0.002 A 
HETATM   28  C18 UNL     1      28.096   5.070  48.518  1.00  0.00     0.029 A 
ENDBRANCH  21  23
ENDBRANCH  19  21
ENDBRANCH   1  19
TORSDOF 8
ENDMDL
