MODEL 1
REMARK VINA RESULT:      -8.5      0.000      0.000
REMARK  4 active torsions:
REMARK  status: ('A' for Active; 'I' for Inactive)
REMARK    1  A    between atoms: C14_18  and  N4_20 
REMARK    2  A    between atoms: N4_20  and  C15_21 
REMARK    3  A    between atoms: C15_21  and  C16_22 
REMARK    4  A    between atoms: C16_22  and  N5_23 
ROOT
HETATM    1  C1  UNL     1      18.074   0.230  50.603  1.00  0.00     0.065 C 
HETATM    2  C2  UNL     1      19.012   0.981  50.115  1.00  0.00     0.009 C 
HETATM    3  C3  UNL     1      20.133   1.764  49.730  1.00  0.00    -0.018 C 
HETATM    4  C4  UNL     1      21.052   2.515  49.228  1.00  0.00    -0.014 C 
HETATM    5  C5  UNL     1      22.086   3.425  48.541  1.00  0.00     0.028 C 
HETATM    6 BR1  UNL     1      21.422   3.711  46.667  1.00  0.00    -0.086 Br
HETATM    7  C6  UNL     1      23.002   3.511  49.589  1.00  0.00     0.085 C 
HETATM    8  C7  UNL     1      24.254   3.972  50.230  1.00  0.00     0.128 C 
HETATM    9  N1  UNL     1      24.622   2.712  50.991  1.00  0.00    -0.374 N 
HETATM   10  C8  UNL     1      23.479   2.466  51.955  1.00  0.00     0.137 C 
HETATM   11  N2  UNL     1      22.600   3.395  52.363  1.00  0.00    -0.224 NA
HETATM   12  C9  UNL     1      21.150   3.491  52.134  1.00  0.00     0.235 C 
HETATM   13  N3  UNL     1      20.081   2.708  52.342  1.00  0.00    -0.246 NA
HETATM   14  C10 UNL     1      19.858   1.371  51.505  1.00  0.00     0.041 C 
HETATM   15  C11 UNL     1      20.663   0.443  52.218  1.00  0.00     0.020 C 
HETATM   16  C12 UNL     1      22.172   0.289  52.018  1.00  0.00     0.140 A 
HETATM   17  C13 UNL     1      23.238   1.116  52.526  1.00  0.00     0.063 A 
HETATM   18  C14 UNL     1      23.092  -0.240  53.197  1.00  0.00     0.186 A 
HETATM   19  O1  UNL     1      22.457  -1.110  53.122  1.00  0.00    -0.277 OA
HETATM   20  H8  UNL     1      25.320   1.930  51.121  1.00  0.00     0.161 HD
ENDROOT
BRANCH  18  21
HETATM   21  N4  UNL     1      24.147   0.007  54.079  1.00  0.00    -0.362 N 
HETATM   22  H12 UNL     1      24.267   0.611  54.852  1.00  0.00     0.162 HD
BRANCH  21  23
HETATM   23  C15 UNL     1      25.488  -0.401  54.328  1.00  0.00     0.152 C 
BRANCH  23  24
HETATM   24  C16 UNL     1      26.113  -0.877  52.994  1.00  0.00     0.292 C 
BRANCH  24  25
HETATM   25  N5  UNL     1      27.235   0.027  52.744  1.00  0.00     0.090 N 
HETATM   26  C17 UNL     1      27.035   1.362  53.133  1.00  0.00     0.272 C 
HETATM   27  C18 UNL     1      28.303   2.043  53.485  1.00  0.00     0.030 C 
HETATM   28  C19 UNL     1      29.174   1.338  54.456  1.00  0.00     0.003 C 
HETATM   29  C20 UNL     1      28.937  -0.161  54.543  1.00  0.00     0.030 C 
HETATM   30  C21 UNL     1      28.476  -0.593  53.162  1.00  0.00     0.272 C 
ENDBRANCH  24  25
ENDBRANCH  23  24
ENDBRANCH  21  23
ENDBRANCH  18  21
TORSDOF 4
ENDMDL
MODEL 2
REMARK VINA RESULT:      -8.4      3.341      7.126
REMARK  4 active torsions:
REMARK  status: ('A' for Active; 'I' for Inactive)
REMARK    1  A    between atoms: C14_18  and  N4_20 
REMARK    2  A    between atoms: N4_20  and  C15_21 
REMARK    3  A    between atoms: C15_21  and  C16_22 
REMARK    4  A    between atoms: C16_22  and  N5_23 
ROOT
HETATM    1  C1  UNL     1      27.890  -0.746  53.091  1.00  0.00     0.065 C 
HETATM    2  C2  UNL     1      26.613  -0.518  53.118  1.00  0.00     0.009 C 
HETATM    3  C3  UNL     1      25.252  -0.114  53.063  1.00  0.00    -0.018 C 
HETATM    4  C4  UNL     1      23.982   0.094  53.101  1.00  0.00    -0.014 C 
HETATM    5  C5  UNL     1      22.452   0.246  53.195  1.00  0.00     0.028 C 
HETATM    6 BR1  UNL     1      21.750  -1.535  53.803  1.00  0.00    -0.086 Br
HETATM    7  C6  UNL     1      22.354   1.554  52.722  1.00  0.00     0.085 C 
HETATM    8  C7  UNL     1      21.618   2.781  52.341  1.00  0.00     0.128 C 
HETATM    9  N1  UNL     1      22.426   3.186  51.122  1.00  0.00    -0.374 N 
HETATM   10  C8  UNL     1      23.834   3.431  51.627  1.00  0.00     0.137 C 
HETATM   11  N2  UNL     1      24.163   3.689  52.902  1.00  0.00    -0.224 NA
HETATM   12  C9  UNL     1      24.963   2.901  53.851  1.00  0.00     0.235 C 
HETATM   13  N3  UNL     1      26.195   2.370  53.875  1.00  0.00    -0.246 NA
HETATM   14  C10 UNL     1      26.587   1.145  52.935  1.00  0.00     0.041 C 
HETATM   15  C11 UNL     1      26.905   1.802  51.717  1.00  0.00     0.020 C 
HETATM   16  C12 UNL     1      25.866   2.236  50.680  1.00  0.00     0.140 A 
HETATM   17  C13 UNL     1      24.996   3.385  50.702  1.00  0.00     0.063 A 
HETATM   18  C14 UNL     1      26.151   3.463  49.717  1.00  0.00     0.186 A 
HETATM   19  O1  UNL     1      26.984   2.852  49.406  1.00  0.00    -0.277 OA
HETATM   20  H8  UNL     1      22.430   3.350  50.079  1.00  0.00     0.161 HD
ENDROOT
BRANCH  18  21
HETATM   21  N4  UNL     1      25.786   4.741  49.286  1.00  0.00    -0.362 N 
HETATM   22  H12 UNL     1      24.946   5.137  48.950  1.00  0.00     0.162 HD
BRANCH  21  23
HETATM   23  C15 UNL     1      26.347   6.035  49.091  1.00  0.00     0.152 C 
BRANCH  23  24
HETATM   24  C16 UNL     1      25.592   7.040  49.995  1.00  0.00     0.292 C 
BRANCH  24  25
HETATM   25  N5  UNL     1      24.173   6.830  49.711  1.00  0.00     0.090 N 
HETATM   26  C17 UNL     1      23.315   6.923  50.820  1.00  0.00     0.272 C 
HETATM   27  C18 UNL     1      21.951   7.361  50.441  1.00  0.00     0.030 C 
HETATM   28  C19 UNL     1      21.866   8.584  49.608  1.00  0.00     0.003 C 
HETATM   29  C20 UNL     1      23.131   8.904  48.829  1.00  0.00     0.030 C 
HETATM   30  C21 UNL     1      23.787   7.567  48.526  1.00  0.00     0.272 C 
ENDBRANCH  24  25
ENDBRANCH  23  24
ENDBRANCH  21  23
ENDBRANCH  18  21
TORSDOF 4
ENDMDL
MODEL 3
REMARK VINA RESULT:      -8.3      2.999      7.362
REMARK  4 active torsions:
REMARK  status: ('A' for Active; 'I' for Inactive)
REMARK    1  A    between atoms: C14_18  and  N4_20 
REMARK    2  A    between atoms: N4_20  and  C15_21 
REMARK    3  A    between atoms: C15_21  and  C16_22 
REMARK    4  A    between atoms: C16_22  and  N5_23 
ROOT
HETATM    1  C1  UNL     1      26.597   4.207  49.310  1.00  0.00     0.065 C 
HETATM    2  C2  UNL     1      26.411   3.264  50.181  1.00  0.00     0.009 C 
HETATM    3  C3  UNL     1      26.032   2.240  51.090  1.00  0.00    -0.018 C 
HETATM    4  C4  UNL     1      25.868   1.305  51.961  1.00  0.00    -0.014 C 
HETATM    5  C5  UNL     1      25.780   0.188  53.017  1.00  0.00     0.028 C 
HETATM    6 BR1  UNL     1      27.673  -0.345  53.427  1.00  0.00    -0.086 Br
HETATM    7  C6  UNL     1      24.391   0.082  53.077  1.00  0.00     0.085 C 
HETATM    8  C7  UNL     1      23.118  -0.486  53.578  1.00  0.00     0.128 C 
HETATM    9  N1  UNL     1      22.324  -0.492  52.285  1.00  0.00    -0.374 N 
HETATM   10  C8  UNL     1      22.235   0.957  51.851  1.00  0.00     0.137 C 
HETATM   11  N2  UNL     1      22.403   2.016  52.659  1.00  0.00    -0.224 NA
HETATM   12  C9  UNL     1      23.446   3.054  52.654  1.00  0.00     0.235 C 
HETATM   13  N3  UNL     1      23.936   3.933  51.768  1.00  0.00    -0.246 NA
HETATM   14  C10 UNL     1      24.780   3.453  50.504  1.00  0.00     0.041 C 
HETATM   15  C11 UNL     1      23.755   3.111  49.582  1.00  0.00     0.020 C 
HETATM   16  C12 UNL     1      23.023   1.767  49.576  1.00  0.00     0.140 A 
HETATM   17  C13 UNL     1      21.958   1.316  50.437  1.00  0.00     0.063 A 
HETATM   18  C14 UNL     1      21.544   1.657  49.014  1.00  0.00     0.186 A 
HETATM   19  O1  UNL     1      22.006   2.011  48.106  1.00  0.00    -0.277 OA
HETATM   20  H8  UNL     1      21.827  -1.072  51.556  1.00  0.00     0.161 HD
ENDROOT
BRANCH  18  21
HETATM   21  N4  UNL     1      20.201   1.361  49.262  1.00  0.00    -0.362 N 
HETATM   22  H12 UNL     1      19.686   0.521  49.336  1.00  0.00     0.162 HD
BRANCH  21  23
HETATM   23  C15 UNL     1      18.959   2.015  49.501  1.00  0.00     0.152 C 
BRANCH  23  24
HETATM   24  C16 UNL     1      18.580   1.823  50.989  1.00  0.00     0.292 C 
BRANCH  24  25
HETATM   25  N5  UNL     1      18.480   0.377  51.183  1.00  0.00     0.090 N 
HETATM   26  C17 UNL     1      18.766  -0.081  52.480  1.00  0.00     0.272 C 
HETATM   27  C18 UNL     1      18.051  -1.337  52.806  1.00  0.00     0.030 C 
HETATM   28  C19 UNL     1      16.588  -1.337  52.560  1.00  0.00     0.003 C 
HETATM   29  C20 UNL     1      16.120  -0.305  51.548  1.00  0.00     0.030 C 
HETATM   30  C21 UNL     1      17.267  -0.125  50.569  1.00  0.00     0.272 C 
ENDBRANCH  24  25
ENDBRANCH  23  24
ENDBRANCH  21  23
ENDBRANCH  18  21
TORSDOF 4
ENDMDL
MODEL 4
REMARK VINA RESULT:      -8.2      4.043      7.140
REMARK  4 active torsions:
REMARK  status: ('A' for Active; 'I' for Inactive)
REMARK    1  A    between atoms: C14_18  and  N4_20 
REMARK    2  A    between atoms: N4_20  and  C15_21 
REMARK    3  A    between atoms: C15_21  and  C16_22 
REMARK    4  A    between atoms: C16_22  and  N5_23 
ROOT
HETATM    1  C1  UNL     1      27.907  -0.752  53.050  1.00  0.00     0.065 C 
HETATM    2  C2  UNL     1      26.629  -0.530  53.081  1.00  0.00     0.009 C 
HETATM    3  C3  UNL     1      25.267  -0.127  53.038  1.00  0.00    -0.018 C 
HETATM    4  C4  UNL     1      23.996   0.075  53.079  1.00  0.00    -0.014 C 
HETATM    5  C5  UNL     1      22.465   0.217  53.171  1.00  0.00     0.028 C 
HETATM    6 BR1  UNL     1      21.766  -1.593  53.691  1.00  0.00    -0.086 Br
HETATM    7  C6  UNL     1      22.365   1.546  52.761  1.00  0.00     0.085 C 
HETATM    8  C7  UNL     1      21.627   2.787  52.435  1.00  0.00     0.128 C 
HETATM    9  N1  UNL     1      22.440   3.252  51.241  1.00  0.00    -0.374 N 
HETATM   10  C8  UNL     1      23.845   3.477  51.764  1.00  0.00     0.137 C 
HETATM   11  N2  UNL     1      24.166   3.676  53.051  1.00  0.00    -0.224 NA
HETATM   12  C9  UNL     1      24.965   2.846  53.967  1.00  0.00     0.235 C 
HETATM   13  N3  UNL     1      26.198   2.318  53.972  1.00  0.00    -0.246 NA
HETATM   14  C10 UNL     1      26.598   1.140  52.976  1.00  0.00     0.041 C 
HETATM   15  C11 UNL     1      26.921   1.856  51.793  1.00  0.00     0.020 C 
HETATM   16  C12 UNL     1      25.885   2.335  50.773  1.00  0.00     0.140 A 
HETATM   17  C13 UNL     1      25.012   3.479  50.844  1.00  0.00     0.063 A 
HETATM   18  C14 UNL     1      26.171   3.607  49.870  1.00  0.00     0.186 A 
HETATM   19  O1  UNL     1      27.009   3.014  49.534  1.00  0.00    -0.277 OA
HETATM   20  H8  UNL     1      22.449   3.466  50.207  1.00  0.00     0.161 HD
ENDROOT
BRANCH  18  21
HETATM   21  N4  UNL     1      25.805   4.903  49.498  1.00  0.00    -0.362 N 
HETATM   22  H12 UNL     1      25.122   5.540  49.819  1.00  0.00     0.162 HD
BRANCH  21  23
HETATM   23  C15 UNL     1      26.147   5.913  48.555  1.00  0.00     0.152 C 
BRANCH  23  24
HETATM   24  C16 UNL     1      26.489   7.211  49.326  1.00  0.00     0.292 C 
BRANCH  24  25
HETATM   25  N5  UNL     1      27.768   7.663  48.781  1.00  0.00     0.090 N 
HETATM   26  C17 UNL     1      28.562   6.664  48.193  1.00  0.00     0.272 C 
HETATM   27  C18 UNL     1      29.446   7.199  47.130  1.00  0.00     0.030 C 
HETATM   28  C19 UNL     1      28.787   8.026  46.090  1.00  0.00     0.003 C 
HETATM   29  C20 UNL     1      27.468   8.646  46.521  1.00  0.00     0.030 C 
HETATM   30  C21 UNL     1      27.582   8.879  48.017  1.00  0.00     0.272 C 
ENDBRANCH  24  25
ENDBRANCH  23  24
ENDBRANCH  21  23
ENDBRANCH  18  21
TORSDOF 4
ENDMDL
MODEL 5
REMARK VINA RESULT:      -8.1      3.575      5.823
REMARK  4 active torsions:
REMARK  status: ('A' for Active; 'I' for Inactive)
REMARK    1  A    between atoms: C14_18  and  N4_20 
REMARK    2  A    between atoms: N4_20  and  C15_21 
REMARK    3  A    between atoms: C15_21  and  C16_22 
REMARK    4  A    between atoms: C16_22  and  N5_23 
ROOT
HETATM    1  C1  UNL     1      18.230   2.292  50.379  1.00  0.00     0.065 C 
HETATM    2  C2  UNL     1      19.241   1.897  51.090  1.00  0.00     0.009 C 
HETATM    3  C3  UNL     1      20.430   1.616  51.814  1.00  0.00    -0.018 C 
HETATM    4  C4  UNL     1      21.423   1.206  52.525  1.00  0.00    -0.014 C 
HETATM    5  C5  UNL     1      22.548   0.631  53.405  1.00  0.00     0.028 C 
HETATM    6 BR1  UNL     1      21.733  -0.891  54.431  1.00  0.00    -0.086 Br
HETATM    7  C6  UNL     1      23.547   1.545  53.071  1.00  0.00     0.085 C 
HETATM    8  C7  UNL     1      24.912   2.114  53.146  1.00  0.00     0.128 C 
HETATM    9  N1  UNL     1      24.568   3.590  53.086  1.00  0.00    -0.374 N 
HETATM   10  C8  UNL     1      23.877   3.797  51.753  1.00  0.00     0.137 C 
HETATM   11  N2  UNL     1      23.978   2.975  50.697  1.00  0.00    -0.224 NA
HETATM   12  C9  UNL     1      22.953   2.148  50.040  1.00  0.00     0.235 C 
HETATM   13  N3  UNL     1      21.750   2.354  49.484  1.00  0.00    -0.246 NA
HETATM   14  C10 UNL     1      20.486   2.751  50.368  1.00  0.00     0.041 C 
HETATM   15  C11 UNL     1      20.652   4.155  50.502  1.00  0.00     0.020 C 
HETATM   16  C12 UNL     1      21.559   4.814  51.544  1.00  0.00     0.140 A 
HETATM   17  C13 UNL     1      22.992   4.968  51.524  1.00  0.00     0.063 A 
HETATM   18  C14 UNL     1      22.198   6.239  51.271  1.00  0.00     0.186 A 
HETATM   19  O1  UNL     1      21.164   6.541  51.204  1.00  0.00    -0.277 OA
HETATM   20  H8  UNL     1      24.589   4.524  53.580  1.00  0.00     0.161 HD
ENDROOT
BRANCH  18  21
HETATM   21  N4  UNL     1      23.353   7.007  51.104  1.00  0.00    -0.362 N 
HETATM   22  H12 UNL     1      24.098   7.264  51.700  1.00  0.00     0.162 HD
BRANCH  21  23
HETATM   23  C15 UNL     1      24.025   7.778  50.113  1.00  0.00     0.152 C 
BRANCH  23  24
HETATM   24  C16 UNL     1      25.546   7.727  50.397  1.00  0.00     0.292 C 
BRANCH  24  25
HETATM   25  N5  UNL     1      26.166   7.331  49.133  1.00  0.00     0.090 N 
HETATM   26  C17 UNL     1      27.534   7.629  49.011  1.00  0.00     0.272 C 
HETATM   27  C18 UNL     1      28.237   6.690  48.106  1.00  0.00     0.030 C 
HETATM   28  C19 UNL     1      28.037   5.247  48.381  1.00  0.00     0.003 C 
HETATM   29  C20 UNL     1      26.773   4.924  49.161  1.00  0.00     0.030 C 
HETATM   30  C21 UNL     1      25.759   5.988  48.778  1.00  0.00     0.272 C 
ENDBRANCH  24  25
ENDBRANCH  23  24
ENDBRANCH  21  23
ENDBRANCH  18  21
TORSDOF 4
ENDMDL
MODEL 6
REMARK VINA RESULT:      -8.1      3.175      7.221
REMARK  4 active torsions:
REMARK  status: ('A' for Active; 'I' for Inactive)
REMARK    1  A    between atoms: C14_18  and  N4_20 
REMARK    2  A    between atoms: N4_20  and  C15_21 
REMARK    3  A    between atoms: C15_21  and  C16_22 
REMARK    4  A    between atoms: C16_22  and  N5_23 
ROOT
HETATM    1  C1  UNL     1      26.793   4.085  49.333  1.00  0.00     0.065 C 
HETATM    2  C2  UNL     1      26.415   3.241  50.243  1.00  0.00     0.009 C 
HETATM    3  C3  UNL     1      25.836   2.335  51.171  1.00  0.00    -0.018 C 
HETATM    4  C4  UNL     1      25.481   1.498  52.083  1.00  0.00    -0.014 C 
HETATM    5  C5  UNL     1      25.161   0.491  53.204  1.00  0.00     0.028 C 
HETATM    6 BR1  UNL     1      26.932  -0.142  53.909  1.00  0.00    -0.086 Br
HETATM    7  C6  UNL     1      23.772   0.496  53.082  1.00  0.00     0.085 C 
HETATM    8  C7  UNL     1      22.401   0.073  53.449  1.00  0.00     0.128 C 
HETATM    9  N1  UNL     1      21.783   0.008  52.065  1.00  0.00    -0.374 N 
HETATM   10  C8  UNL     1      21.876   1.415  51.508  1.00  0.00     0.137 C 
HETATM   11  N2  UNL     1      22.029   2.527  52.244  1.00  0.00    -0.224 NA
HETATM   12  C9  UNL     1      23.150   3.479  52.298  1.00  0.00     0.235 C 
HETATM   13  N3  UNL     1      23.824   4.235  51.419  1.00  0.00    -0.246 NA
HETATM   14  C10 UNL     1      24.779   3.580  50.325  1.00  0.00     0.041 C 
HETATM   15  C11 UNL     1      23.856   3.233  49.303  1.00  0.00     0.020 C 
HETATM   16  C12 UNL     1      23.018   1.953  49.304  1.00  0.00     0.140 A 
HETATM   17  C13 UNL     1      21.816   1.663  50.045  1.00  0.00     0.063 A 
HETATM   18  C14 UNL     1      21.620   1.903  48.557  1.00  0.00     0.186 A 
HETATM   19  O1  UNL     1      22.225   2.138  47.694  1.00  0.00    -0.277 OA
HETATM   20  H8  UNL     1      21.336  -0.597  51.324  1.00  0.00     0.161 HD
ENDROOT
BRANCH  18  21
HETATM   21  N4  UNL     1      20.236   1.733  48.643  1.00  0.00    -0.362 N 
HETATM   22  H12 UNL     1      19.586   1.152  48.177  1.00  0.00     0.162 HD
BRANCH  21  23
HETATM   23  C15 UNL     1      19.108   2.245  49.345  1.00  0.00     0.152 C 
BRANCH  23  24
HETATM   24  C16 UNL     1      18.445   3.342  48.477  1.00  0.00     0.292 C 
BRANCH  24  25
HETATM   25  N5  UNL     1      18.872   4.613  49.061  1.00  0.00     0.090 N 
HETATM   26  C17 UNL     1      19.590   4.514  50.265  1.00  0.00     0.272 C 
HETATM   27  C18 UNL     1      20.526   5.647  50.458  1.00  0.00     0.030 C 
HETATM   28  C19 UNL     1      21.438   5.939  49.326  1.00  0.00     0.003 C 
HETATM   29  C20 UNL     1      20.953   5.429  47.979  1.00  0.00     0.030 C 
HETATM   30  C21 UNL     1      19.435   5.468  48.037  1.00  0.00     0.272 C 
ENDBRANCH  24  25
ENDBRANCH  23  24
ENDBRANCH  21  23
ENDBRANCH  18  21
TORSDOF 4
ENDMDL
MODEL 7
REMARK VINA RESULT:      -8.0      7.092      8.975
REMARK  4 active torsions:
REMARK  status: ('A' for Active; 'I' for Inactive)
REMARK    1  A    between atoms: C14_18  and  N4_20 
REMARK    2  A    between atoms: N4_20  and  C15_21 
REMARK    3  A    between atoms: C15_21  and  C16_22 
REMARK    4  A    between atoms: C16_22  and  N5_23 
ROOT
HETATM    1  C1  UNL     1      23.878   5.364  48.411  1.00  0.00     0.065 C 
HETATM    2  C2  UNL     1      24.311   6.525  48.027  1.00  0.00     0.009 C 
HETATM    3  C3  UNL     1      24.944   7.748  47.678  1.00  0.00    -0.018 C 
HETATM    4  C4  UNL     1      25.353   8.906  47.290  1.00  0.00    -0.014 C 
HETATM    5  C5  UNL     1      25.744  10.307  46.784  1.00  0.00     0.028 C 
HETATM    6 BR1  UNL     1      24.221  10.931  45.634  1.00  0.00    -0.086 Br
HETATM    7  C6  UNL     1      27.018  10.372  47.348  1.00  0.00     0.085 C 
HETATM    8  C7  UNL     1      28.317  11.023  47.634  1.00  0.00     0.128 C 
HETATM    9  N1  UNL     1      29.227   9.814  47.535  1.00  0.00    -0.374 N 
HETATM   10  C8  UNL     1      28.756   8.857  48.612  1.00  0.00     0.137 C 
HETATM   11  N2  UNL     1      28.031   9.202  49.687  1.00  0.00    -0.224 NA
HETATM   12  C9  UNL     1      26.659   8.824  50.064  1.00  0.00     0.235 C 
HETATM   13  N3  UNL     1      25.985   7.680  50.252  1.00  0.00    -0.246 NA
HETATM   14  C10 UNL     1      25.634   6.715  49.034  1.00  0.00     0.041 C 
HETATM   15  C11 UNL     1      26.836   5.972  48.894  1.00  0.00     0.020 C 
HETATM   16  C12 UNL     1      28.062   6.463  48.122  1.00  0.00     0.140 A 
HETATM   17  C13 UNL     1      29.070   7.407  48.536  1.00  0.00     0.063 A 
HETATM   18  C14 UNL     1      29.514   5.953  48.505  1.00  0.00     0.186 A 
HETATM   19  O1  UNL     1      29.092   4.989  48.268  1.00  0.00    -0.277 OA
HETATM   20  H8  UNL     1      30.031   9.351  47.029  1.00  0.00     0.161 HD
ENDROOT
BRANCH  18  21
HETATM   21  N4  UNL     1      30.799   6.266  48.957  1.00  0.00    -0.362 N 
HETATM   22  H12 UNL     1      31.153   6.678  49.782  1.00  0.00     0.162 HD
BRANCH  21  23
HETATM   23  C15 UNL     1      32.158   6.197  48.538  1.00  0.00     0.152 C 
BRANCH  23  24
HETATM   24  C16 UNL     1      32.190   6.065  46.995  1.00  0.00     0.292 C 
BRANCH  24  25
HETATM   25  N5  UNL     1      33.137   4.987  46.716  1.00  0.00     0.090 N 
HETATM   26  C17 UNL     1      33.850   4.505  47.826  1.00  0.00     0.272 C 
HETATM   27  C18 UNL     1      34.248   3.087  47.669  1.00  0.00     0.030 C 
HETATM   28  C19 UNL     1      33.168   2.144  47.290  1.00  0.00     0.003 C 
HETATM   29  C20 UNL     1      31.975   2.795  46.610  1.00  0.00     0.030 C 
HETATM   30  C21 UNL     1      32.523   3.995  45.857  1.00  0.00     0.272 C 
ENDBRANCH  24  25
ENDBRANCH  23  24
ENDBRANCH  21  23
ENDBRANCH  18  21
TORSDOF 4
ENDMDL
MODEL 8
REMARK VINA RESULT:      -7.8      3.178      7.852
REMARK  4 active torsions:
REMARK  status: ('A' for Active; 'I' for Inactive)
REMARK    1  A    between atoms: C14_18  and  N4_20 
REMARK    2  A    between atoms: N4_20  and  C15_21 
REMARK    3  A    between atoms: C15_21  and  C16_22 
REMARK    4  A    between atoms: C16_22  and  N5_23 
ROOT
HETATM    1  C1  UNL     1      26.724   4.183  49.307  1.00  0.00     0.065 C 
HETATM    2  C2  UNL     1      26.355   3.312  50.195  1.00  0.00     0.009 C 
HETATM    3  C3  UNL     1      25.785   2.377  51.100  1.00  0.00    -0.018 C 
HETATM    4  C4  UNL     1      25.439   1.512  51.989  1.00  0.00    -0.014 C 
HETATM    5  C5  UNL     1      25.131   0.471  53.082  1.00  0.00     0.028 C 
HETATM    6 BR1  UNL     1      26.909  -0.184  53.747  1.00  0.00    -0.086 Br
HETATM    7  C6  UNL     1      23.740   0.479  52.975  1.00  0.00     0.085 C 
HETATM    8  C7  UNL     1      22.374   0.045  53.344  1.00  0.00     0.128 C 
HETATM    9  N1  UNL     1      21.741   0.025  51.965  1.00  0.00    -0.374 N 
HETATM   10  C8  UNL     1      21.829   1.448  51.451  1.00  0.00     0.137 C 
HETATM   11  N2  UNL     1      21.990   2.536  52.219  1.00  0.00    -0.224 NA
HETATM   12  C9  UNL     1      23.111   3.486  52.291  1.00  0.00     0.235 C 
HETATM   13  N3  UNL     1      23.777   4.269  51.429  1.00  0.00    -0.246 NA
HETATM   14  C10 UNL     1      24.720   3.648  50.305  1.00  0.00     0.041 C 
HETATM   15  C11 UNL     1      23.786   3.334  49.282  1.00  0.00     0.020 C 
HETATM   16  C12 UNL     1      22.947   2.054  49.253  1.00  0.00     0.140 A 
HETATM   17  C13 UNL     1      21.753   1.742  49.997  1.00  0.00     0.063 A 
HETATM   18  C14 UNL     1      21.541   2.028  48.519  1.00  0.00     0.186 A 
HETATM   19  O1  UNL     1      22.136   2.290  47.658  1.00  0.00    -0.277 OA
HETATM   20  H8  UNL     1      21.285  -0.557  51.210  1.00  0.00     0.161 HD
ENDROOT
BRANCH  18  21
HETATM   21  N4  UNL     1      20.157   1.855  48.615  1.00  0.00    -0.362 N 
HETATM   22  H12 UNL     1      19.523   1.193  48.249  1.00  0.00     0.162 HD
BRANCH  21  23
HETATM   23  C15 UNL     1      19.013   2.466  49.201  1.00  0.00     0.152 C 
BRANCH  23  24
HETATM   24  C16 UNL     1      18.158   1.365  49.875  1.00  0.00     0.292 C 
BRANCH  24  25
HETATM   25  N5  UNL     1      17.432   2.038  50.951  1.00  0.00     0.090 N 
HETATM   26  C17 UNL     1      17.756   3.392  51.145  1.00  0.00     0.272 C 
HETATM   27  C18 UNL     1      16.627   4.167  51.711  1.00  0.00     0.030 C 
HETATM   28  C19 UNL     1      15.328   4.034  51.008  1.00  0.00     0.003 C 
HETATM   29  C20 UNL     1      15.187   2.768  50.180  1.00  0.00     0.030 C 
HETATM   30  C21 UNL     1      16.023   1.711  50.881  1.00  0.00     0.272 C 
ENDBRANCH  24  25
ENDBRANCH  23  24
ENDBRANCH  21  23
ENDBRANCH  18  21
TORSDOF 4
ENDMDL
MODEL 9
REMARK VINA RESULT:      -7.8      7.232     10.051
REMARK  4 active torsions:
REMARK  status: ('A' for Active; 'I' for Inactive)
REMARK    1  A    between atoms: C14_18  and  N4_20 
REMARK    2  A    between atoms: N4_20  and  C15_21 
REMARK    3  A    between atoms: C15_21  and  C16_22 
REMARK    4  A    between atoms: C16_22  and  N5_23 
ROOT
HETATM    1  C1  UNL     1      29.946  11.403  47.298  1.00  0.00     0.065 C 
HETATM    2  C2  UNL     1      30.675  10.382  46.964  1.00  0.00     0.009 C 
HETATM    3  C3  UNL     1      31.358   9.166  46.698  1.00  0.00    -0.018 C 
HETATM    4  C4  UNL     1      32.095   8.166  46.356  1.00  0.00    -0.014 C 
HETATM    5  C5  UNL     1      33.036   7.040  45.889  1.00  0.00     0.028 C 
HETATM    6 BR1  UNL     1      34.211   7.846  44.473  1.00  0.00    -0.086 Br
HETATM    7  C6  UNL     1      32.509   6.008  46.664  1.00  0.00     0.085 C 
HETATM    8  C7  UNL     1      32.439   4.613  47.155  1.00  0.00     0.128 C 
HETATM    9  N1  UNL     1      30.933   4.459  47.250  1.00  0.00    -0.374 N 
HETATM   10  C8  UNL     1      30.477   5.500  48.254  1.00  0.00     0.137 C 
HETATM   11  N2  UNL     1      31.262   6.079  49.175  1.00  0.00    -0.224 NA
HETATM   12  C9  UNL     1      31.678   7.483  49.317  1.00  0.00     0.235 C 
HETATM   13  N3  UNL     1      31.064   8.671  49.415  1.00  0.00    -0.246 NA
HETATM   14  C10 UNL     1      30.280   9.304  48.181  1.00  0.00     0.041 C 
HETATM   15  C11 UNL     1      29.019   8.657  48.274  1.00  0.00     0.020 C 
HETATM   16  C12 UNL     1      28.729   7.262  47.715  1.00  0.00     0.140 A 
HETATM   17  C13 UNL     1      29.071   5.978  48.273  1.00  0.00     0.063 A 
HETATM   18  C14 UNL     1      27.600   6.353  48.360  1.00  0.00     0.186 A 
HETATM   19  O1  UNL     1      26.964   7.179  48.079  1.00  0.00    -0.277 OA
HETATM   20  H8  UNL     1      30.073   3.953  46.905  1.00  0.00     0.161 HD
ENDROOT
BRANCH  18  21
HETATM   21  N4  UNL     1      27.267   5.169  49.021  1.00  0.00    -0.362 N 
HETATM   22  H12 UNL     1      27.781   4.375  49.306  1.00  0.00     0.162 HD
BRANCH  21  23
HETATM   23  C15 UNL     1      26.138   4.502  49.576  1.00  0.00     0.152 C 
BRANCH  23  24
HETATM   24  C16 UNL     1      26.540   3.043  49.903  1.00  0.00     0.292 C 
BRANCH  24  25
HETATM   25  N5  UNL     1      26.019   2.786  51.244  1.00  0.00     0.090 N 
HETATM   26  C17 UNL     1      24.666   2.409  51.306  1.00  0.00     0.272 C 
HETATM   27  C18 UNL     1      24.371   1.557  52.482  1.00  0.00     0.030 C 
HETATM   28  C19 UNL     1      25.254   0.380  52.673  1.00  0.00     0.003 C 
HETATM   29  C20 UNL     1      26.611   0.495  51.999  1.00  0.00     0.030 C 
HETATM   30  C21 UNL     1      26.955   1.974  51.995  1.00  0.00     0.272 C 
ENDBRANCH  24  25
ENDBRANCH  23  24
ENDBRANCH  21  23
ENDBRANCH  18  21
TORSDOF 4
ENDMDL
