MODEL 1
REMARK VINA RESULT:      -9.3      0.000      0.000
REMARK  5 active torsions:
REMARK  status: ('A' for Active; 'I' for Inactive)
REMARK    1  A    between atoms: C4_4  and  N1_5 
REMARK       I    between atoms: N1_5  and  C5_6 
REMARK    2  A    between atoms: C5_6  and  C6_8 
REMARK    3  A    between atoms: C12_15  and  N2_16 
REMARK    4  A    between atoms: N2_16  and  C13_17 
REMARK    5  A    between atoms: C16_21  and  C17_22 
ROOT
HETATM    1  C1  UNL     1      29.740  -1.561  53.471  1.00  0.00     0.023 C 
HETATM    2  C2  UNL     1      28.694  -0.768  53.303  1.00  0.00    -0.041 A 
HETATM    3  C3  UNL     1      27.282  -1.077  53.191  1.00  0.00     0.042 A 
HETATM    4  C4  UNL     1      26.567   0.058  53.023  1.00  0.00     0.063 A 
HETATM    5  C12 UNL     1      27.579   1.111  53.029  1.00  0.00     0.076 A 
HETATM    6  C22 UNL     1      28.805   0.692  53.184  1.00  0.00     0.043 A 
ENDROOT
BRANCH   5   7
HETATM    7  N2  UNL     1      27.105   2.433  52.873  1.00  0.00    -0.186 N 
HETATM    8  H9  UNL     1      27.115   3.245  53.521  1.00  0.00     0.184 HD
BRANCH   7   9
HETATM    9  C13 UNL     1      26.480   2.837  51.647  1.00  0.00     0.727 A 
HETATM   10  N3  UNL     1      27.067   3.160  50.476  1.00  0.00    -0.075 NA
HETATM   11  C14 UNL     1      26.290   3.518  49.458  1.00  0.00     0.139 A 
HETATM   12  C15 UNL     1      24.913   3.562  49.588  1.00  0.00     0.053 A 
HETATM   13  C16 UNL     1      24.319   3.236  50.770  1.00  0.00     0.089 A 
HETATM   14  N5  UNL     1      25.135   2.880  51.776  1.00  0.00    -0.062 NA
BRANCH  13  15
HETATM   15  C17 UNL     1      22.883   3.280  50.972  1.00  0.00     0.011 A 
HETATM   16  C18 UNL     1      21.987   2.805  50.039  1.00  0.00     0.017 A 
HETATM   17  C19 UNL     1      20.614   2.861  50.238  1.00  0.00     0.020 A 
HETATM   18  C20 UNL     1      20.086   3.408  51.406  1.00  0.00     0.116 A 
HETATM   19  N4  UNL     1      20.957   3.863  52.296  1.00  0.00    -0.272 NA
HETATM   20  C21 UNL     1      22.278   3.801  52.089  1.00  0.00     0.130 A 
ENDBRANCH  13  15
ENDBRANCH   7   9
ENDBRANCH   5   7
BRANCH   4  21
HETATM   21  N1  UNL     1      25.170  -0.116  52.900  1.00  0.00    -0.321 N 
HETATM   22  C5  UNL     1      24.278  -0.480  53.927  1.00  0.00     0.256 C 
HETATM   23  O1  UNL     1      24.851  -0.656  55.056  1.00  0.00    -0.267 OA
HETATM   24  H4  UNL     1      24.776   0.049  51.931  1.00  0.00     0.169 HD
BRANCH  22  25
HETATM   25  C6  UNL     1      22.821  -0.653  53.758  1.00  0.00     0.032 A 
HETATM   26  C7  UNL     1      22.309   0.049  52.700  1.00  0.00     0.020 A 
HETATM   27  C8  UNL     1      20.929  -0.091  52.522  1.00  0.00     0.043 A 
HETATM   28  C9  UNL     1      20.167  -0.883  53.362  1.00  0.00     0.116 A 
HETATM   29  F1  UNL     1      18.838  -0.996  53.162  1.00  0.00    -0.206 F 
HETATM   30  C10 UNL     1      20.809  -1.540  54.394  1.00  0.00     0.043 A 
HETATM   31  C11 UNL     1      22.185  -1.464  54.657  1.00  0.00     0.020 A 
ENDBRANCH  22  25
ENDBRANCH   4  21
TORSDOF 5
ENDMDL
MODEL 2
REMARK VINA RESULT:      -9.2      2.901      6.575
REMARK  5 active torsions:
REMARK  status: ('A' for Active; 'I' for Inactive)
REMARK    1  A    between atoms: C4_4  and  N1_5 
REMARK       I    between atoms: N1_5  and  C5_6 
REMARK    2  A    between atoms: C5_6  and  C6_8 
REMARK    3  A    between atoms: C12_15  and  N2_16 
REMARK    4  A    between atoms: N2_16  and  C13_17 
REMARK    5  A    between atoms: C16_21  and  C17_22 
ROOT
HETATM    1  C1  UNL     1      23.060   8.273  49.905  1.00  0.00     0.023 C 
HETATM    2  C2  UNL     1      22.904   7.123  50.540  1.00  0.00    -0.041 A 
HETATM    3  C3  UNL     1      23.881   6.239  51.148  1.00  0.00     0.042 A 
HETATM    4  C4  UNL     1      23.265   5.164  51.686  1.00  0.00     0.063 A 
HETATM    5  C12 UNL     1      21.852   5.389  51.397  1.00  0.00     0.076 A 
HETATM    6  C22 UNL     1      21.595   6.490  50.746  1.00  0.00     0.043 A 
ENDROOT
BRANCH   5   7
HETATM    7  N2  UNL     1      20.954   4.401  51.859  1.00  0.00    -0.186 N 
HETATM    8  H9  UNL     1      20.181   4.447  52.552  1.00  0.00     0.184 HD
BRANCH   7   9
HETATM    9  C13 UNL     1      21.033   3.060  51.355  1.00  0.00     0.727 A 
HETATM   10  N3  UNL     1      20.783   2.622  50.104  1.00  0.00    -0.075 NA
HETATM   11  C14 UNL     1      20.911   1.322  49.853  1.00  0.00     0.139 A 
HETATM   12  C15 UNL     1      21.289   0.435  50.845  1.00  0.00     0.053 A 
HETATM   13  C16 UNL     1      21.541   0.876  52.110  1.00  0.00     0.089 A 
HETATM   14  N5  UNL     1      21.402   2.194  52.326  1.00  0.00    -0.062 NA
BRANCH  13  15
HETATM   15  C17 UNL     1      21.924  -0.008  53.194  1.00  0.00     0.011 A 
HETATM   16  C18 UNL     1      23.229  -0.141  53.619  1.00  0.00     0.017 A 
HETATM   17  C19 UNL     1      23.586  -0.998  54.651  1.00  0.00     0.020 A 
HETATM   18  C20 UNL     1      22.622  -1.765  55.304  1.00  0.00     0.116 A 
HETATM   19  N4  UNL     1      21.372  -1.630  54.887  1.00  0.00    -0.272 NA
HETATM   20  C21 UNL     1      21.044  -0.799  53.890  1.00  0.00     0.130 A 
ENDBRANCH  13  15
ENDBRANCH   7   9
ENDBRANCH   5   7
BRANCH   4  21
HETATM   21  N1  UNL     1      24.117   4.225  52.310  1.00  0.00    -0.321 N 
HETATM   22  C5  UNL     1      24.686   3.083  51.712  1.00  0.00     0.256 C 
HETATM   23  O1  UNL     1      24.360   2.941  50.484  1.00  0.00    -0.267 OA
HETATM   24  H4  UNL     1      24.337   4.417  53.328  1.00  0.00     0.169 HD
BRANCH  22  25
HETATM   25  C6  UNL     1      25.573   2.122  52.399  1.00  0.00     0.032 A 
HETATM   26  C7  UNL     1      26.055   1.141  51.576  1.00  0.00     0.020 A 
HETATM   27  C8  UNL     1      26.892   0.214  52.205  1.00  0.00     0.043 A 
HETATM   28  C9  UNL     1      27.192   0.305  53.552  1.00  0.00     0.116 A 
HETATM   29  F1  UNL     1      28.002  -0.608  54.127  1.00  0.00    -0.206 F 
HETATM   30  C10 UNL     1      26.638   1.347  54.271  1.00  0.00     0.043 A 
HETATM   31  C11 UNL     1      25.788   2.327  53.735  1.00  0.00     0.020 A 
ENDBRANCH  22  25
ENDBRANCH   4  21
TORSDOF 5
ENDMDL
MODEL 3
REMARK VINA RESULT:      -9.2      2.791      6.198
REMARK  5 active torsions:
REMARK  status: ('A' for Active; 'I' for Inactive)
REMARK    1  A    between atoms: C4_4  and  N1_5 
REMARK       I    between atoms: N1_5  and  C5_6 
REMARK    2  A    between atoms: C5_6  and  C6_8 
REMARK    3  A    between atoms: C12_15  and  N2_16 
REMARK    4  A    between atoms: N2_16  and  C13_17 
REMARK    5  A    between atoms: C16_21  and  C17_22 
ROOT
HETATM    1  C1  UNL     1      19.648  -0.485  53.545  1.00  0.00     0.023 C 
HETATM    2  C2  UNL     1      20.830  -0.169  53.041  1.00  0.00    -0.041 A 
HETATM    3  C3  UNL     1      22.161  -0.621  53.398  1.00  0.00     0.042 A 
HETATM    4  C4  UNL     1      23.083  -0.026  52.610  1.00  0.00     0.063 A 
HETATM    5  C12 UNL     1      22.291   0.833  51.733  1.00  0.00     0.076 A 
HETATM    6  C22 UNL     1      21.003   0.787  51.939  1.00  0.00     0.043 A 
ENDROOT
BRANCH   5   7
HETATM    7  N2  UNL     1      23.012   1.588  50.781  1.00  0.00    -0.186 N 
HETATM    8  H9  UNL     1      23.475   1.310  49.894  1.00  0.00     0.184 HD
BRANCH   7   9
HETATM    9  C13 UNL     1      23.203   2.997  50.972  1.00  0.00     0.727 A 
HETATM   10  N3  UNL     1      22.431   3.858  51.665  1.00  0.00    -0.075 NA
HETATM   11  C14 UNL     1      22.792   5.138  51.705  1.00  0.00     0.139 A 
HETATM   12  C15 UNL     1      23.929   5.582  51.053  1.00  0.00     0.053 A 
HETATM   13  C16 UNL     1      24.709   4.713  50.351  1.00  0.00     0.089 A 
HETATM   14  N5  UNL     1      24.314   3.429  50.333  1.00  0.00    -0.062 NA
BRANCH  13  15
HETATM   15  C17 UNL     1      25.902   5.122  49.634  1.00  0.00     0.011 A 
HETATM   16  C18 UNL     1      26.117   6.422  49.230  1.00  0.00     0.017 A 
HETATM   17  C19 UNL     1      27.257   6.801  48.536  1.00  0.00     0.020 A 
HETATM   18  C20 UNL     1      28.240   5.865  48.218  1.00  0.00     0.116 A 
HETATM   19  N4  UNL     1      28.023   4.618  48.610  1.00  0.00    -0.272 NA
HETATM   20  C21 UNL     1      26.918   4.269  49.280  1.00  0.00     0.130 A 
ENDBRANCH  13  15
ENDBRANCH   7   9
ENDBRANCH   5   7
BRANCH   4  21
HETATM   21  N1  UNL     1      24.425  -0.388  52.865  1.00  0.00    -0.321 N 
HETATM   22  C5  UNL     1      25.475   0.484  53.215  1.00  0.00     0.256 C 
HETATM   23  O1  UNL     1      25.112   1.706  53.294  1.00  0.00    -0.267 OA
HETATM   24  H4  UNL     1      24.641  -1.421  52.777  1.00  0.00     0.169 HD
BRANCH  22  25
HETATM   25  C6  UNL     1      26.869   0.066  53.473  1.00  0.00     0.032 A 
HETATM   26  C7  UNL     1      27.206  -1.110  52.859  1.00  0.00     0.020 A 
HETATM   27  C8  UNL     1      28.519  -1.532  53.093  1.00  0.00     0.043 A 
HETATM   28  C9  UNL     1      29.385  -0.801  53.884  1.00  0.00     0.116 A 
HETATM   29  F1  UNL     1      30.644  -1.238  54.090  1.00  0.00    -0.206 F 
HETATM   30  C10 UNL     1      28.917   0.372  54.446  1.00  0.00     0.043 A 
HETATM   31  C11 UNL     1      27.621   0.880  54.274  1.00  0.00     0.020 A 
ENDBRANCH  22  25
ENDBRANCH   4  21
TORSDOF 5
ENDMDL
MODEL 4
REMARK VINA RESULT:      -9.1      2.721      6.324
REMARK  5 active torsions:
REMARK  status: ('A' for Active; 'I' for Inactive)
REMARK    1  A    between atoms: C4_4  and  N1_5 
REMARK       I    between atoms: N1_5  and  C5_6 
REMARK    2  A    between atoms: C5_6  and  C6_8 
REMARK    3  A    between atoms: C12_15  and  N2_16 
REMARK    4  A    between atoms: N2_16  and  C13_17 
REMARK    5  A    between atoms: C16_21  and  C17_22 
ROOT
HETATM    1  C1  UNL     1      25.165   7.176  48.450  1.00  0.00     0.023 C 
HETATM    2  C2  UNL     1      25.021   5.924  48.853  1.00  0.00    -0.041 A 
HETATM    3  C3  UNL     1      25.961   5.024  49.493  1.00  0.00     0.042 A 
HETATM    4  C4  UNL     1      25.377   3.828  49.726  1.00  0.00     0.063 A 
HETATM    5  C12 UNL     1      24.023   3.993  49.205  1.00  0.00     0.076 A 
HETATM    6  C22 UNL     1      23.771   5.169  48.698  1.00  0.00     0.043 A 
ENDROOT
BRANCH   5   7
HETATM    7  N2  UNL     1      23.168   2.875  49.322  1.00  0.00    -0.186 N 
HETATM    8  H9  UNL     1      23.105   1.999  48.768  1.00  0.00     0.184 HD
BRANCH   7   9
HETATM    9  C13 UNL     1      22.168   2.835  50.351  1.00  0.00     0.727 A 
HETATM   10  N3  UNL     1      21.067   3.602  50.476  1.00  0.00    -0.075 NA
HETATM   11  C14 UNL     1      20.271   3.401  51.523  1.00  0.00     0.139 A 
HETATM   12  C15 UNL     1      20.562   2.430  52.466  1.00  0.00     0.053 A 
HETATM   13  C16 UNL     1      21.675   1.655  52.342  1.00  0.00     0.089 A 
HETATM   14  N5  UNL     1      22.454   1.887  51.272  1.00  0.00    -0.062 NA
BRANCH  13  15
HETATM   15  C17 UNL     1      22.040   0.635  53.306  1.00  0.00     0.011 A 
HETATM   16  C18 UNL     1      23.329   0.163  53.438  1.00  0.00     0.017 A 
HETATM   17  C19 UNL     1      23.665  -0.821  54.357  1.00  0.00     0.020 A 
HETATM   18  C20 UNL     1      22.696  -1.375  55.192  1.00  0.00     0.116 A 
HETATM   19  N4  UNL     1      21.461  -0.915  55.057  1.00  0.00    -0.272 NA
HETATM   20  C21 UNL     1      21.153   0.035  54.165  1.00  0.00     0.130 A 
ENDBRANCH  13  15
ENDBRANCH   7   9
ENDBRANCH   5   7
BRANCH   4  21
HETATM   21  N1  UNL     1      26.199   2.861  50.348  1.00  0.00    -0.321 N 
HETATM   22  C5  UNL     1      26.108   2.421  51.683  1.00  0.00     0.256 C 
HETATM   23  O1  UNL     1      25.172   2.989  52.341  1.00  0.00    -0.267 OA
HETATM   24  H4  UNL     1      26.950   2.440  49.733  1.00  0.00     0.169 HD
BRANCH  22  25
HETATM   25  C6  UNL     1      26.989   1.406  52.299  1.00  0.00     0.032 A 
HETATM   26  C7  UNL     1      26.586   0.120  52.063  1.00  0.00     0.020 A 
HETATM   27  C8  UNL     1      27.399  -0.860  52.642  1.00  0.00     0.043 A 
HETATM   28  C9  UNL     1      28.515  -0.528  53.387  1.00  0.00     0.116 A 
HETATM   29  F1  UNL     1      29.276  -1.498  53.932  1.00  0.00    -0.206 F 
HETATM   30  C10 UNL     1      28.811   0.813  53.550  1.00  0.00     0.043 A 
HETATM   31  C11 UNL     1      28.061   1.869  53.012  1.00  0.00     0.020 A 
ENDBRANCH  22  25
ENDBRANCH   4  21
TORSDOF 5
ENDMDL
MODEL 5
REMARK VINA RESULT:      -8.9      2.320      5.294
REMARK  5 active torsions:
REMARK  status: ('A' for Active; 'I' for Inactive)
REMARK    1  A    between atoms: C4_4  and  N1_5 
REMARK       I    between atoms: N1_5  and  C5_6 
REMARK    2  A    between atoms: C5_6  and  C6_8 
REMARK    3  A    between atoms: C12_15  and  N2_16 
REMARK    4  A    between atoms: N2_16  and  C13_17 
REMARK    5  A    between atoms: C16_21  and  C17_22 
ROOT
HETATM    1  C1  UNL     1      27.371   7.039  48.135  1.00  0.00     0.023 C 
HETATM    2  C2  UNL     1      26.750   6.000  48.670  1.00  0.00    -0.041 A 
HETATM    3  C3  UNL     1      25.389   5.856  49.148  1.00  0.00     0.042 A 
HETATM    4  C4  UNL     1      25.190   4.606  49.621  1.00  0.00     0.063 A 
HETATM    5  C12 UNL     1      26.482   3.951  49.431  1.00  0.00     0.076 A 
HETATM    6  C22 UNL     1      27.403   4.703  48.892  1.00  0.00     0.043 A 
ENDROOT
BRANCH   5   7
HETATM    7  N2  UNL     1      26.565   2.602  49.842  1.00  0.00    -0.186 N 
HETATM    8  H9  UNL     1      26.607   1.720  49.294  1.00  0.00     0.184 HD
BRANCH   7   9
HETATM    9  C13 UNL     1      26.601   2.274  51.238  1.00  0.00     0.727 A 
HETATM   10  N3  UNL     1      27.611   2.454  52.113  1.00  0.00    -0.075 NA
HETATM   11  C14 UNL     1      27.432   2.065  53.372  1.00  0.00     0.139 A 
HETATM   12  C15 UNL     1      26.243   1.488  53.782  1.00  0.00     0.053 A 
HETATM   13  C16 UNL     1      25.222   1.304  52.898  1.00  0.00     0.089 A 
HETATM   14  N5  UNL     1      25.438   1.709  51.636  1.00  0.00    -0.062 NA
BRANCH  13  15
HETATM   15  C17 UNL     1      23.960   0.690  53.265  1.00  0.00     0.011 A 
HETATM   16  C18 UNL     1      22.742   1.275  52.991  1.00  0.00     0.017 A 
HETATM   17  C19 UNL     1      21.540   0.683  53.356  1.00  0.00     0.020 A 
HETATM   18  C20 UNL     1      21.523  -0.542  54.021  1.00  0.00     0.116 A 
HETATM   19  N4  UNL     1      22.700  -1.094  54.279  1.00  0.00    -0.272 NA
HETATM   20  C21 UNL     1      23.850  -0.511  53.921  1.00  0.00     0.130 A 
ENDBRANCH  13  15
ENDBRANCH   7   9
ENDBRANCH   5   7
BRANCH   4  21
HETATM   21  N1  UNL     1      23.894   4.344  50.119  1.00  0.00    -0.321 N 
HETATM   22  C5  UNL     1      22.992   3.375  49.637  1.00  0.00     0.256 C 
HETATM   23  O1  UNL     1      23.451   2.703  48.652  1.00  0.00    -0.267 OA
HETATM   24  H4  UNL     1      23.592   4.946  50.936  1.00  0.00     0.169 HD
BRANCH  22  25
HETATM   25  C6  UNL     1      21.642   3.132  50.185  1.00  0.00     0.032 A 
HETATM   26  C7  UNL     1      21.239   4.084  51.082  1.00  0.00     0.020 A 
HETATM   27  C8  UNL     1      19.966   3.872  51.622  1.00  0.00     0.043 A 
HETATM   28  C9  UNL     1      19.198   2.780  51.261  1.00  0.00     0.116 A 
HETATM   29  F1  UNL     1      17.976   2.606  51.803  1.00  0.00    -0.206 F 
HETATM   30  C10 UNL     1      19.725   1.892  50.343  1.00  0.00     0.043 A 
HETATM   31  C11 UNL     1      20.989   2.014  49.745  1.00  0.00     0.020 A 
ENDBRANCH  22  25
ENDBRANCH   4  21
TORSDOF 5
ENDMDL
MODEL 6
REMARK VINA RESULT:      -8.8      2.849      5.966
REMARK  5 active torsions:
REMARK  status: ('A' for Active; 'I' for Inactive)
REMARK    1  A    between atoms: C4_4  and  N1_5 
REMARK       I    between atoms: N1_5  and  C5_6 
REMARK    2  A    between atoms: C5_6  and  C6_8 
REMARK    3  A    between atoms: C12_15  and  N2_16 
REMARK    4  A    between atoms: N2_16  and  C13_17 
REMARK    5  A    between atoms: C16_21  and  C17_22 
ROOT
HETATM    1  C1  UNL     1      24.748   5.424  48.904  1.00  0.00     0.023 C 
HETATM    2  C2  UNL     1      24.805   4.516  49.865  1.00  0.00    -0.041 A 
HETATM    3  C3  UNL     1      25.734   3.422  50.077  1.00  0.00     0.042 A 
HETATM    4  C4  UNL     1      25.405   2.742  51.198  1.00  0.00     0.063 A 
HETATM    5  C12 UNL     1      24.223   3.441  51.696  1.00  0.00     0.076 A 
HETATM    6  C22 UNL     1      23.842   4.457  50.972  1.00  0.00     0.043 A 
ENDROOT
BRANCH   5   7
HETATM    7  N2  UNL     1      23.655   2.936  52.887  1.00  0.00    -0.186 N 
HETATM    8  H9  UNL     1      23.505   3.378  53.816  1.00  0.00     0.184 HD
BRANCH   7   9
HETATM    9  C13 UNL     1      23.169   1.588  52.941  1.00  0.00     0.727 A 
HETATM   10  N3  UNL     1      23.795   0.492  53.418  1.00  0.00    -0.075 NA
HETATM   11  C14 UNL     1      23.157  -0.674  53.362  1.00  0.00     0.139 A 
HETATM   12  C15 UNL     1      21.884  -0.769  52.829  1.00  0.00     0.053 A 
HETATM   13  C16 UNL     1      21.251   0.337  52.346  1.00  0.00     0.089 A 
HETATM   14  N5  UNL     1      21.925   1.496  52.419  1.00  0.00    -0.062 NA
BRANCH  13  15
HETATM   15  C17 UNL     1      19.924   0.296  51.760  1.00  0.00     0.011 A 
HETATM   16  C18 UNL     1      18.884  -0.410  52.325  1.00  0.00     0.017 A 
HETATM   17  C19 UNL     1      17.621  -0.450  51.751  1.00  0.00     0.020 A 
HETATM   18  C20 UNL     1      17.357   0.233  50.564  1.00  0.00     0.116 A 
HETATM   19  N4  UNL     1      18.365   0.907  50.030  1.00  0.00    -0.272 NA
HETATM   20  C21 UNL     1      19.577   0.936  50.596  1.00  0.00     0.130 A 
ENDBRANCH  13  15
ENDBRANCH   7   9
ENDBRANCH   5   7
BRANCH   4  21
HETATM   21  N1  UNL     1      26.241   1.647  51.511  1.00  0.00    -0.321 N 
HETATM   22  C5  UNL     1      26.942   1.448  52.716  1.00  0.00     0.256 C 
HETATM   23  O1  UNL     1      26.764   2.385  53.566  1.00  0.00    -0.267 OA
HETATM   24  H4  UNL     1      26.335   0.915  50.751  1.00  0.00     0.169 HD
BRANCH  22  25
HETATM   25  C6  UNL     1      27.810   0.287  53.006  1.00  0.00     0.032 A 
HETATM   26  C7  UNL     1      27.239  -0.914  52.680  1.00  0.00     0.020 A 
HETATM   27  C8  UNL     1      28.037  -2.029  52.952  1.00  0.00     0.043 A 
HETATM   28  C9  UNL     1      29.298  -1.902  53.506  1.00  0.00     0.116 A 
HETATM   29  F1  UNL     1      30.040  -2.999  53.756  1.00  0.00    -0.206 F 
HETATM   30  C10 UNL     1      29.756  -0.628  53.788  1.00  0.00     0.043 A 
HETATM   31  C11 UNL     1      29.035   0.552  53.554  1.00  0.00     0.020 A 
ENDBRANCH  22  25
ENDBRANCH   4  21
TORSDOF 5
ENDMDL
MODEL 7
REMARK VINA RESULT:      -8.8      3.723      6.581
REMARK  5 active torsions:
REMARK  status: ('A' for Active; 'I' for Inactive)
REMARK    1  A    between atoms: C4_4  and  N1_5 
REMARK       I    between atoms: N1_5  and  C5_6 
REMARK    2  A    between atoms: C5_6  and  C6_8 
REMARK    3  A    between atoms: C12_15  and  N2_16 
REMARK    4  A    between atoms: N2_16  and  C13_17 
REMARK    5  A    between atoms: C16_21  and  C17_22 
ROOT
HETATM    1  C1  UNL     1      26.624  -1.051  52.344  1.00  0.00     0.023 C 
HETATM    2  C2  UNL     1      26.349   0.241  52.263  1.00  0.00    -0.041 A 
HETATM    3  C3  UNL     1      26.901   1.273  51.407  1.00  0.00     0.042 A 
HETATM    4  C4  UNL     1      26.318   2.462  51.674  1.00  0.00     0.063 A 
HETATM    5  C12 UNL     1      25.370   2.154  52.741  1.00  0.00     0.076 A 
HETATM    6  C22 UNL     1      25.349   0.903  53.112  1.00  0.00     0.043 A 
ENDROOT
BRANCH   5   7
HETATM    7  N2  UNL     1      24.600   3.236  53.224  1.00  0.00    -0.186 N 
HETATM    8  H9  UNL     1      24.756   3.889  54.017  1.00  0.00     0.184 HD
BRANCH   7   9
HETATM    9  C13 UNL     1      23.363   3.584  52.585  1.00  0.00     0.727 A 
HETATM   10  N3  UNL     1      23.032   4.744  51.982  1.00  0.00    -0.075 NA
HETATM   11  C14 UNL     1      21.815   4.857  51.457  1.00  0.00     0.139 A 
HETATM   12  C15 UNL     1      20.905   3.817  51.525  1.00  0.00     0.053 A 
HETATM   13  C16 UNL     1      21.238   2.645  52.136  1.00  0.00     0.089 A 
HETATM   14  N5  UNL     1      22.475   2.567  52.654  1.00  0.00    -0.062 NA
BRANCH  13  15
HETATM   15  C17 UNL     1      20.322   1.527  52.254  1.00  0.00     0.011 A 
HETATM   16  C18 UNL     1      19.301   1.305  51.356  1.00  0.00     0.017 A 
HETATM   17  C19 UNL     1      18.423   0.237  51.484  1.00  0.00     0.020 A 
HETATM   18  C20 UNL     1      18.547  -0.662  52.542  1.00  0.00     0.116 A 
HETATM   19  N4  UNL     1      19.532  -0.438  53.400  1.00  0.00    -0.272 NA
HETATM   20  C21 UNL     1      20.370   0.596  53.262  1.00  0.00     0.130 A 
ENDBRANCH  13  15
ENDBRANCH   7   9
ENDBRANCH   5   7
BRANCH   4  21
HETATM   21  N1  UNL     1      26.777   3.552  50.900  1.00  0.00    -0.321 N 
HETATM   22  C5  UNL     1      26.161   4.077  49.747  1.00  0.00     0.256 C 
HETATM   23  O1  UNL     1      25.088   3.464  49.423  1.00  0.00    -0.267 OA
HETATM   24  H4  UNL     1      27.674   4.002  51.237  1.00  0.00     0.169 HD
BRANCH  22  25
HETATM   25  C6  UNL     1      26.674   5.219  48.962  1.00  0.00     0.032 A 
HETATM   26  C7  UNL     1      28.002   5.112  48.648  1.00  0.00     0.020 A 
HETATM   27  C8  UNL     1      28.514   6.185  47.912  1.00  0.00     0.043 A 
HETATM   28  C9  UNL     1      27.721   7.255  47.543  1.00  0.00     0.116 A 
HETATM   29  F1  UNL     1      28.248   8.274  46.834  1.00  0.00    -0.206 F 
HETATM   30  C10 UNL     1      26.393   7.240  47.926  1.00  0.00     0.043 A 
HETATM   31  C11 UNL     1      25.784   6.214  48.664  1.00  0.00     0.020 A 
ENDBRANCH  22  25
ENDBRANCH   4  21
TORSDOF 5
ENDMDL
MODEL 8
REMARK VINA RESULT:      -8.7      3.035      7.827
REMARK  5 active torsions:
REMARK  status: ('A' for Active; 'I' for Inactive)
REMARK    1  A    between atoms: C4_4  and  N1_5 
REMARK       I    between atoms: N1_5  and  C5_6 
REMARK    2  A    between atoms: C5_6  and  C6_8 
REMARK    3  A    between atoms: C12_15  and  N2_16 
REMARK    4  A    between atoms: N2_16  and  C13_17 
REMARK    5  A    between atoms: C16_21  and  C17_22 
ROOT
HETATM    1  C1  UNL     1      17.470   3.921  51.463  1.00  0.00     0.023 C 
HETATM    2  C2  UNL     1      18.621   3.323  51.201  1.00  0.00    -0.041 A 
HETATM    3  C3  UNL     1      19.847   3.843  50.627  1.00  0.00     0.042 A 
HETATM    4  C4  UNL     1      20.774   2.863  50.540  1.00  0.00     0.063 A 
HETATM    5  C12 UNL     1      20.093   1.689  51.079  1.00  0.00     0.076 A 
HETATM    6  C22 UNL     1      18.865   1.899  51.469  1.00  0.00     0.043 A 
ENDROOT
BRANCH   5   7
HETATM    7  N2  UNL     1      20.843   0.493  51.115  1.00  0.00    -0.186 N 
HETATM    8  H9  UNL     1      21.147  -0.149  50.357  1.00  0.00     0.184 HD
BRANCH   7   9
HETATM    9  C13 UNL     1      21.321  -0.022  52.366  1.00  0.00     0.727 A 
HETATM   10  N3  UNL     1      20.606  -0.548  53.381  1.00  0.00    -0.075 NA
HETATM   11  C14 UNL     1      21.257  -0.961  54.465  1.00  0.00     0.139 A 
HETATM   12  C15 UNL     1      22.634  -0.857  54.557  1.00  0.00     0.053 A 
HETATM   13  C16 UNL     1      23.358  -0.325  53.532  1.00  0.00     0.089 A 
HETATM   14  N5  UNL     1      22.667   0.081  52.454  1.00  0.00    -0.062 NA
BRANCH  13  15
HETATM   15  C17 UNL     1      24.800  -0.174  53.577  1.00  0.00     0.011 A 
HETATM   16  C18 UNL     1      25.533   0.284  52.504  1.00  0.00     0.017 A 
HETATM   17  C19 UNL     1      26.914   0.415  52.555  1.00  0.00     0.020 A 
HETATM   18  C20 UNL     1      27.618   0.082  53.711  1.00  0.00     0.116 A 
HETATM   19  N4  UNL     1      26.903  -0.359  54.736  1.00  0.00    -0.272 NA
HETATM   20  C21 UNL     1      25.572  -0.479  54.671  1.00  0.00     0.130 A 
ENDBRANCH  13  15
ENDBRANCH   7   9
ENDBRANCH   5   7
BRANCH   4  21
HETATM   21  N1  UNL     1      22.017   3.250  49.992  1.00  0.00    -0.321 N 
HETATM   22  C5  UNL     1      23.198   3.528  50.709  1.00  0.00     0.256 C 
HETATM   23  O1  UNL     1      23.064   3.400  51.973  1.00  0.00    -0.267 OA
HETATM   24  H4  UNL     1      22.042   3.334  48.936  1.00  0.00     0.169 HD
BRANCH  22  25
HETATM   25  C6  UNL     1      24.481   3.932  50.098  1.00  0.00     0.032 A 
HETATM   26  C7  UNL     1      24.444   5.174  49.525  1.00  0.00     0.020 A 
HETATM   27  C8  UNL     1      25.645   5.577  48.933  1.00  0.00     0.043 A 
HETATM   28  C9  UNL     1      26.765   4.766  48.939  1.00  0.00     0.116 A 
HETATM   29  F1  UNL     1      27.907   5.186  48.357  1.00  0.00    -0.206 F 
HETATM   30  C10 UNL     1      26.668   3.531  49.553  1.00  0.00     0.043 A 
HETATM   31  C11 UNL     1      25.511   3.035  50.174  1.00  0.00     0.020 A 
ENDBRANCH  22  25
ENDBRANCH   4  21
TORSDOF 5
ENDMDL
MODEL 9
REMARK VINA RESULT:      -8.3      2.894      6.287
REMARK  5 active torsions:
REMARK  status: ('A' for Active; 'I' for Inactive)
REMARK    1  A    between atoms: C4_4  and  N1_5 
REMARK       I    between atoms: N1_5  and  C5_6 
REMARK    2  A    between atoms: C5_6  and  C6_8 
REMARK    3  A    between atoms: C12_15  and  N2_16 
REMARK    4  A    between atoms: N2_16  and  C13_17 
REMARK    5  A    between atoms: C16_21  and  C17_22 
ROOT
HETATM    1  C1  UNL     1      18.828  -0.229  52.345  1.00  0.00     0.023 C 
HETATM    2  C2  UNL     1      19.929   0.499  52.439  1.00  0.00    -0.041 A 
HETATM    3  C3  UNL     1      21.284   0.120  52.791  1.00  0.00     0.042 A 
HETATM    4  C4  UNL     1      22.093   1.202  52.761  1.00  0.00     0.063 A 
HETATM    5  C12 UNL     1      21.202   2.295  52.380  1.00  0.00     0.076 A 
HETATM    6  C22 UNL     1      19.960   1.945  52.186  1.00  0.00     0.043 A 
ENDROOT
BRANCH   5   7
HETATM    7  N2  UNL     1      21.793   3.573  52.266  1.00  0.00    -0.186 N 
HETATM    8  H9  UNL     1      22.200   4.207  52.981  1.00  0.00     0.184 HD
BRANCH   7   9
HETATM    9  C13 UNL     1      21.902   4.205  50.983  1.00  0.00     0.727 A 
HETATM   10  N3  UNL     1      20.911   4.587  50.152  1.00  0.00    -0.075 NA
HETATM   11  C14 UNL     1      21.240   5.154  48.994  1.00  0.00     0.139 A 
HETATM   12  C15 UNL     1      22.564   5.349  48.643  1.00  0.00     0.053 A 
HETATM   13  C16 UNL     1      23.567   4.963  49.481  1.00  0.00     0.089 A 
HETATM   14  N5  UNL     1      23.197   4.394  50.640  1.00  0.00    -0.062 NA
BRANCH  13  15
HETATM   15  C17 UNL     1      24.972   5.126  49.160  1.00  0.00     0.011 A 
HETATM   16  C18 UNL     1      25.891   4.109  49.307  1.00  0.00     0.017 A 
HETATM   17  C19 UNL     1      27.235   4.279  49.007  1.00  0.00     0.020 A 
HETATM   18  C20 UNL     1      27.710   5.503  48.539  1.00  0.00     0.116 A 
HETATM   19  N4  UNL     1      26.819   6.474  48.402  1.00  0.00    -0.272 NA
HETATM   20  C21 UNL     1      25.525   6.293  48.696  1.00  0.00     0.130 A 
ENDBRANCH  13  15
ENDBRANCH   7   9
ENDBRANCH   5   7
BRANCH   4  21
HETATM   21  N1  UNL     1      23.446   0.959  53.089  1.00  0.00    -0.321 N 
HETATM   22  C5  UNL     1      24.556   1.120  52.236  1.00  0.00     0.256 C 
HETATM   23  O1  UNL     1      24.240   1.529  51.068  1.00  0.00    -0.267 OA
HETATM   24  H4  UNL     1      23.620   0.622  54.078  1.00  0.00     0.169 HD
BRANCH  22  25
HETATM   25  C6  UNL     1      25.958   0.853  52.617  1.00  0.00     0.032 A 
HETATM   26  C7  UNL     1      26.706   1.989  52.771  1.00  0.00     0.020 A 
HETATM   27  C8  UNL     1      28.041   1.763  53.124  1.00  0.00     0.043 A 
HETATM   28  C9  UNL     1      28.538   0.485  53.297  1.00  0.00     0.116 A 
HETATM   29  F1  UNL     1      29.831   0.304  53.636  1.00  0.00    -0.206 F 
HETATM   30  C10 UNL     1      27.675  -0.578  53.110  1.00  0.00     0.043 A 
HETATM   31  C11 UNL     1      26.322  -0.458  52.756  1.00  0.00     0.020 A 
ENDBRANCH  22  25
ENDBRANCH   4  21
TORSDOF 5
ENDMDL
