MODEL 1
REMARK VINA RESULT:      -7.9      0.000      0.000
REMARK  1 active torsions:
REMARK  status: ('A' for Active; 'I' for Inactive)
REMARK    1  A    between atoms: C2_3  and  C3_4 
ROOT
HETATM    1  C3  UNL     1      25.683   1.378  52.488  1.00  0.00    -0.032 C 
HETATM    2  C4  UNL     1      24.660   2.031  52.926  1.00  0.00    -0.028 C 
HETATM    3  C5  UNL     1      23.871   0.839  52.763  1.00  0.00     0.125 C 
HETATM    4  N2  UNL     1      22.750   1.324  53.035  1.00  0.00    -0.259 NA
HETATM    5  C6  UNL     1      21.469   0.823  53.089  1.00  0.00     0.073 A 
HETATM    6  C7  UNL     1      20.374   0.366  53.747  1.00  0.00     0.033 A 
HETATM    7  C8  UNL     1      19.231  -0.020  53.083  1.00  0.00     0.002 A 
HETATM    8  C9  UNL     1      19.224   0.071  51.708  1.00  0.00     0.002 A 
HETATM    9  C10 UNL     1      20.346   0.540  51.023  1.00  0.00     0.021 A 
HETATM   10  C11 UNL     1      21.531   0.941  51.660  1.00  0.00     0.031 A 
HETATM   11  S1  UNL     1      22.685   1.421  50.364  1.00  0.00    -0.098 SA
HETATM   12  C12 UNL     1      22.784   3.167  50.067  1.00  0.00     0.139 C 
HETATM   13  C13 UNL     1      22.476   3.370  48.619  1.00  0.00     0.084 C 
HETATM   14  N3  UNL     1      22.256   3.521  47.491  1.00  0.00    -0.195 NA
HETATM   15  C14 UNL     1      21.726   3.965  50.787  1.00  0.00     0.187 C 
HETATM   16  N4  UNL     1      22.133   4.302  52.136  1.00  0.00    -0.295 NA
HETATM   17  C15 UNL     1      23.375   4.040  52.467  1.00  0.00     0.013 C 
HETATM   18  C16 UNL     1      24.265   3.333  53.461  1.00  0.00     0.095 C 
HETATM   19  C17 UNL     1      24.232   4.666  51.422  1.00  0.00     0.082 C 
HETATM   20  C18 UNL     1      24.197   3.690  50.263  1.00  0.00     0.116 C 
HETATM   21  N5  UNL     1      25.175   2.729  50.202  1.00  0.00    -0.414 N 
HETATM   22  C19 UNL     1      26.466   2.700  50.682  1.00  0.00     0.119 C 
HETATM   23  C20 UNL     1      26.565   2.565  52.201  1.00  0.00     0.060 C 
HETATM   24  H17 UNL     1      25.091   2.159  49.335  1.00  0.00     0.153 HD
ENDROOT
BRANCH   1  25
HETATM   25  C2  UNL     1      26.152   0.111  52.020  1.00  0.00     0.117 C 
HETATM   26  N1  UNL     1      26.646  -0.737  52.847  1.00  0.00    -0.306 NA
HETATM   27  C1  UNL     1      27.113  -1.999  52.373  1.00  0.00     0.177 C 
ENDBRANCH   1  25
TORSDOF 1
ENDMDL
MODEL 2
REMARK VINA RESULT:      -7.7      1.943      5.378
REMARK  1 active torsions:
REMARK  status: ('A' for Active; 'I' for Inactive)
REMARK    1  A    between atoms: C2_3  and  C3_4 
ROOT
HETATM    1  C3  UNL     1      19.815   0.745  50.599  1.00  0.00    -0.032 C 
HETATM    2  C4  UNL     1      20.991   0.909  50.093  1.00  0.00    -0.028 C 
HETATM    3  C5  UNL     1      21.542   0.771  51.415  1.00  0.00     0.125 C 
HETATM    4  N2  UNL     1      22.735   1.036  51.143  1.00  0.00    -0.259 NA
HETATM    5  C6  UNL     1      23.895   1.126  51.878  1.00  0.00     0.073 A 
HETATM    6  C7  UNL     1      25.092   0.660  52.314  1.00  0.00     0.033 A 
HETATM    7  C8  UNL     1      25.892   1.387  53.167  1.00  0.00     0.002 A 
HETATM    8  C9  UNL     1      25.440   2.623  53.578  1.00  0.00     0.002 A 
HETATM    9  C10 UNL     1      24.210   3.110  53.134  1.00  0.00     0.021 A 
HETATM   10  C11 UNL     1      23.364   2.403  52.266  1.00  0.00     0.031 A 
HETATM   11  S1  UNL     1      21.896   3.418  52.021  1.00  0.00    -0.098 SA
HETATM   12  C12 UNL     1      21.893   4.370  50.525  1.00  0.00     0.139 C 
HETATM   13  C13 UNL     1      21.709   5.797  50.931  1.00  0.00     0.084 C 
HETATM   14  N3  UNL     1      21.546   6.900  51.248  1.00  0.00    -0.195 NA
HETATM   15  C14 UNL     1      23.212   4.358  49.796  1.00  0.00     0.187 C 
HETATM   16  N4  UNL     1      23.329   3.213  48.915  1.00  0.00    -0.295 NA
HETATM   17  C15 UNL     1      22.253   2.483  48.742  1.00  0.00     0.013 C 
HETATM   18  C16 UNL     1      21.683   1.087  48.818  1.00  0.00     0.095 C 
HETATM   19  C17 UNL     1      21.164   3.420  48.346  1.00  0.00     0.082 C 
HETATM   20  C18 UNL     1      20.697   4.035  49.650  1.00  0.00     0.116 C 
HETATM   21  N5  UNL     1      19.658   3.428  50.312  1.00  0.00    -0.414 N 
HETATM   22  C19 UNL     1      18.613   2.651  49.863  1.00  0.00     0.119 C 
HETATM   23  C20 UNL     1      19.023   1.247  49.421  1.00  0.00     0.060 C 
HETATM   24  H17 UNL     1      19.379   3.969  51.156  1.00  0.00     0.153 HD
ENDROOT
BRANCH   1  25
HETATM   25  C2  UNL     1      19.080   0.503  51.802  1.00  0.00     0.117 C 
HETATM   26  N1  UNL     1      18.310  -0.520  51.889  1.00  0.00    -0.306 NA
HETATM   27  C1  UNL     1      17.579  -0.756  53.092  1.00  0.00     0.177 C 
ENDBRANCH   1  25
TORSDOF 1
ENDMDL
MODEL 3
REMARK VINA RESULT:      -7.5      2.699      5.611
REMARK  1 active torsions:
REMARK  status: ('A' for Active; 'I' for Inactive)
REMARK    1  A    between atoms: C2_3  and  C3_4 
ROOT
HETATM    1  C3  UNL     1      21.179   1.041  51.144  1.00  0.00    -0.032 C 
HETATM    2  C4  UNL     1      21.741   1.345  50.023  1.00  0.00    -0.028 C 
HETATM    3  C5  UNL     1      22.798   1.980  50.764  1.00  0.00     0.125 C 
HETATM    4  N2  UNL     1      23.423   2.476  49.800  1.00  0.00    -0.259 NA
HETATM    5  C6  UNL     1      24.555   3.249  49.679  1.00  0.00     0.073 A 
HETATM    6  C7  UNL     1      25.869   3.438  49.399  1.00  0.00     0.033 A 
HETATM    7  C8  UNL     1      26.461   4.679  49.473  1.00  0.00     0.002 A 
HETATM    8  C9  UNL     1      25.674   5.747  49.846  1.00  0.00     0.002 A 
HETATM    9  C10 UNL     1      24.321   5.562  50.136  1.00  0.00     0.021 A 
HETATM   10  C11 UNL     1      23.679   4.315  50.075  1.00  0.00     0.031 A 
HETATM   11  S1  UNL     1      21.968   4.582  50.570  1.00  0.00    -0.098 SA
HETATM   12  C12 UNL     1      20.821   4.736  49.226  1.00  0.00     0.139 C 
HETATM   13  C13 UNL     1      20.131   6.050  49.404  1.00  0.00     0.084 C 
HETATM   14  N3  UNL     1      19.585   7.061  49.557  1.00  0.00    -0.195 NA
HETATM   15  C14 UNL     1      21.481   4.843  47.875  1.00  0.00     0.187 C 
HETATM   16  N4  UNL     1      21.769   3.538  47.312  1.00  0.00    -0.295 NA
HETATM   17  C15 UNL     1      21.273   2.498  47.938  1.00  0.00     0.013 C 
HETATM   18  C16 UNL     1      21.601   1.170  48.578  1.00  0.00     0.095 C 
HETATM   19  C17 UNL     1      19.815   2.758  48.104  1.00  0.00     0.082 C 
HETATM   20  C18 UNL     1      19.726   3.685  49.300  1.00  0.00     0.116 C 
HETATM   21  N5  UNL     1      19.561   3.120  50.541  1.00  0.00    -0.414 N 
HETATM   22  C19 UNL     1      18.991   1.931  50.940  1.00  0.00     0.119 C 
HETATM   23  C20 UNL     1      19.820   0.694  50.595  1.00  0.00     0.060 C 
HETATM   24  H17 UNL     1      19.447   3.848  51.276  1.00  0.00     0.153 HD
ENDROOT
BRANCH   1  25
HETATM   25  C2  UNL     1      21.288   1.115  52.568  1.00  0.00     0.117 C 
HETATM   26  N1  UNL     1      21.013   0.089  53.288  1.00  0.00    -0.306 NA
HETATM   27  C1  UNL     1      21.123   0.171  54.709  1.00  0.00     0.177 C 
ENDBRANCH   1  25
TORSDOF 1
ENDMDL
MODEL 4
REMARK VINA RESULT:      -7.5      2.657      5.822
REMARK  1 active torsions:
REMARK  status: ('A' for Active; 'I' for Inactive)
REMARK    1  A    between atoms: C2_3  and  C3_4 
ROOT
HETATM    1  C3  UNL     1      24.015   2.322  51.276  1.00  0.00    -0.032 C 
HETATM    2  C4  UNL     1      24.125   2.782  50.075  1.00  0.00    -0.028 C 
HETATM    3  C5  UNL     1      25.267   3.543  50.507  1.00  0.00     0.125 C 
HETATM    4  N2  UNL     1      25.461   4.193  49.455  1.00  0.00    -0.259 NA
HETATM    5  C6  UNL     1      26.368   5.152  49.067  1.00  0.00     0.073 A 
HETATM    6  C7  UNL     1      27.474   5.577  48.406  1.00  0.00     0.033 A 
HETATM    7  C8  UNL     1      27.876   6.894  48.426  1.00  0.00     0.002 A 
HETATM    8  C9  UNL     1      27.115   7.789  49.145  1.00  0.00     0.002 A 
HETATM    9  C10 UNL     1      25.976   7.362  49.828  1.00  0.00     0.021 A 
HETATM   10  C11 UNL     1      25.531   6.030  49.836  1.00  0.00     0.031 A 
HETATM   11  S1  UNL     1      24.062   5.974  50.876  1.00  0.00    -0.098 SA
HETATM   12  C12 UNL     1      22.525   6.010  49.992  1.00  0.00     0.139 C 
HETATM   13  C13 UNL     1      21.755   7.175  50.525  1.00  0.00     0.084 C 
HETATM   14  N3  UNL     1      21.154   8.068  50.954  1.00  0.00    -0.195 NA
HETATM   15  C14 UNL     1      22.678   6.306  48.522  1.00  0.00     0.187 C 
HETATM   16  N4  UNL     1      22.943   5.104  47.756  1.00  0.00    -0.295 NA
HETATM   17  C15 UNL     1      22.835   3.960  48.388  1.00  0.00     0.013 C 
HETATM   18  C16 UNL     1      23.540   2.672  48.739  1.00  0.00     0.095 C 
HETATM   19  C17 UNL     1      21.493   3.959  49.036  1.00  0.00     0.082 C 
HETATM   20  C18 UNL     1      21.676   4.786  50.294  1.00  0.00     0.116 C 
HETATM   21  N5  UNL     1      22.012   4.129  51.452  1.00  0.00    -0.414 N 
HETATM   22  C19 UNL     1      21.781   2.839  51.877  1.00  0.00     0.119 C 
HETATM   23  C20 UNL     1      22.614   1.783  51.152  1.00  0.00     0.060 C 
HETATM   24  H17 UNL     1      22.048   4.783  52.261  1.00  0.00     0.153 HD
ENDROOT
BRANCH   1  25
HETATM   25  C2  UNL     1      24.578   2.331  52.590  1.00  0.00     0.117 C 
HETATM   26  N1  UNL     1      25.406   1.415  52.940  1.00  0.00    -0.306 NA
HETATM   27  C1  UNL     1      25.964   1.429  54.254  1.00  0.00     0.177 C 
ENDBRANCH   1  25
TORSDOF 1
ENDMDL
MODEL 5
REMARK VINA RESULT:      -7.3      3.010      4.980
REMARK  1 active torsions:
REMARK  status: ('A' for Active; 'I' for Inactive)
REMARK    1  A    between atoms: C2_3  and  C3_4 
ROOT
HETATM    1  C3  UNL     1      25.738   6.883  49.333  1.00  0.00    -0.032 C 
HETATM    2  C4  UNL     1      24.820   6.741  50.228  1.00  0.00    -0.028 C 
HETATM    3  C5  UNL     1      25.236   5.373  50.388  1.00  0.00     0.125 C 
HETATM    4  N2  UNL     1      24.336   5.001  51.174  1.00  0.00    -0.259 NA
HETATM    5  C6  UNL     1      24.025   3.810  51.790  1.00  0.00     0.073 A 
HETATM    6  C7  UNL     1      23.985   2.972  52.856  1.00  0.00     0.033 A 
HETATM    7  C8  UNL     1      23.422   1.718  52.779  1.00  0.00     0.002 A 
HETATM    8  C9  UNL     1      22.888   1.324  51.571  1.00  0.00     0.002 A 
HETATM    9  C10 UNL     1      22.925   2.180  50.469  1.00  0.00     0.021 A 
HETATM   10  C11 UNL     1      23.490   3.464  50.503  1.00  0.00     0.031 A 
HETATM   11  S1  UNL     1      23.331   4.151  48.846  1.00  0.00    -0.098 SA
HETATM   12  C12 UNL     1      21.956   5.251  48.627  1.00  0.00     0.139 C 
HETATM   13  C13 UNL     1      21.147   4.699  47.499  1.00  0.00     0.084 C 
HETATM   14  N3  UNL     1      20.532   4.278  46.611  1.00  0.00    -0.195 NA
HETATM   15  C14 UNL     1      21.003   5.270  49.795  1.00  0.00     0.187 C 
HETATM   16  N4  UNL     1      21.424   6.206  50.817  1.00  0.00    -0.295 NA
HETATM   17  C15 UNL     1      22.424   7.003  50.521  1.00  0.00     0.013 C 
HETATM   18  C16 UNL     1      23.789   7.484  50.951  1.00  0.00     0.095 C 
HETATM   19  C17 UNL     1      22.073   7.660  49.231  1.00  0.00     0.082 C 
HETATM   20  C18 UNL     1      22.408   6.629  48.172  1.00  0.00     0.116 C 
HETATM   21  N5  UNL     1      23.663   6.663  47.615  1.00  0.00    -0.414 N 
HETATM   22  C19 UNL     1      24.562   7.692  47.440  1.00  0.00     0.119 C 
HETATM   23  C20 UNL     1      25.228   8.167  48.731  1.00  0.00     0.060 C 
HETATM   24  H17 UNL     1      23.760   5.955  46.858  1.00  0.00     0.153 HD
ENDROOT
BRANCH   1  25
HETATM   25  C2  UNL     1      26.807   6.236  48.637  1.00  0.00     0.117 C 
HETATM   26  N1  UNL     1      27.957   6.800  48.558  1.00  0.00    -0.306 NA
HETATM   27  C1  UNL     1      29.019   6.150  47.861  1.00  0.00     0.177 C 
ENDBRANCH   1  25
TORSDOF 1
ENDMDL
MODEL 6
REMARK VINA RESULT:      -7.1      2.563      5.452
REMARK  1 active torsions:
REMARK  status: ('A' for Active; 'I' for Inactive)
REMARK    1  A    between atoms: C2_3  and  C3_4 
ROOT
HETATM    1  C3  UNL     1      22.750   1.475  51.530  1.00  0.00    -0.032 C 
HETATM    2  C4  UNL     1      22.230   1.655  50.363  1.00  0.00    -0.028 C 
HETATM    3  C5  UNL     1      22.714   3.009  50.394  1.00  0.00     0.125 C 
HETATM    4  N2  UNL     1      22.177   3.418  49.340  1.00  0.00    -0.259 NA
HETATM    5  C6  UNL     1      22.148   4.623  48.676  1.00  0.00     0.073 A 
HETATM    6  C7  UNL     1      22.527   5.471  47.687  1.00  0.00     0.033 A 
HETATM    7  C8  UNL     1      22.011   6.742  47.576  1.00  0.00     0.002 A 
HETATM    8  C9  UNL     1      21.082   7.144  48.511  1.00  0.00     0.002 A 
HETATM    9  C10 UNL     1      20.686   6.279  49.532  1.00  0.00     0.021 A 
HETATM   10  C11 UNL     1      21.187   4.977  49.683  1.00  0.00     0.031 A 
HETATM   11  S1  UNL     1      20.410   4.282  51.151  1.00  0.00    -0.098 SA
HETATM   12  C12 UNL     1      19.021   3.228  50.828  1.00  0.00     0.139 C 
HETATM   13  C13 UNL     1      17.869   3.797  51.591  1.00  0.00     0.084 C 
HETATM   14  N3  UNL     1      16.983   4.231  52.199  1.00  0.00    -0.195 NA
HETATM   15  C14 UNL     1      18.564   3.249  49.392  1.00  0.00     0.187 C 
HETATM   16  N4  UNL     1      19.306   2.308  48.577  1.00  0.00    -0.295 NA
HETATM   17  C15 UNL     1      20.103   1.476  49.205  1.00  0.00     0.013 C 
HETATM   18  C16 UNL     1      21.516   0.953  49.297  1.00  0.00     0.095 C 
HETATM   19  C17 UNL     1      19.283   0.821  50.262  1.00  0.00     0.082 C 
HETATM   20  C18 UNL     1      19.234   1.832  51.390  1.00  0.00     0.116 C 
HETATM   21  N5  UNL     1      20.195   1.751  52.369  1.00  0.00    -0.414 N 
HETATM   22  C19 UNL     1      20.937   0.691  52.842  1.00  0.00     0.119 C 
HETATM   23  C20 UNL     1      22.018   0.205  51.877  1.00  0.00     0.060 C 
HETATM   24  H17 UNL     1      20.027   2.449  53.122  1.00  0.00     0.153 HD
ENDROOT
BRANCH   1  25
HETATM   25  C2  UNL     1      23.505   2.080  52.583  1.00  0.00     0.117 C 
HETATM   26  N1  UNL     1      24.724   1.731  52.782  1.00  0.00    -0.306 NA
HETATM   27  C1  UNL     1      25.472   2.338  53.835  1.00  0.00     0.177 C 
ENDBRANCH   1  25
TORSDOF 1
ENDMDL
MODEL 7
REMARK VINA RESULT:      -7.1      8.313     10.476
REMARK  1 active torsions:
REMARK  status: ('A' for Active; 'I' for Inactive)
REMARK    1  A    between atoms: C2_3  and  C3_4 
ROOT
HETATM    1  C3  UNL     1      32.362   5.066  48.189  1.00  0.00    -0.032 C 
HETATM    2  C4  UNL     1      31.792   6.075  48.757  1.00  0.00    -0.028 C 
HETATM    3  C5  UNL     1      30.569   5.715  48.092  1.00  0.00     0.125 C 
HETATM    4  N2  UNL     1      29.879   6.701  48.435  1.00  0.00    -0.259 NA
HETATM    5  C6  UNL     1      28.586   7.106  48.192  1.00  0.00     0.073 A 
HETATM    6  C7  UNL     1      27.285   7.277  48.537  1.00  0.00     0.033 A 
HETATM    7  C8  UNL     1      26.375   7.863  47.687  1.00  0.00     0.002 A 
HETATM    8  C9  UNL     1      26.822   8.280  46.452  1.00  0.00     0.002 A 
HETATM    9  C10 UNL     1      28.159   8.108  46.088  1.00  0.00     0.021 A 
HETATM   10  C11 UNL     1      29.119   7.515  46.924  1.00  0.00     0.031 A 
HETATM   11  S1  UNL     1      30.667   7.484  46.003  1.00  0.00    -0.098 SA
HETATM   12  C12 UNL     1      31.790   8.799  46.397  1.00  0.00     0.139 C 
HETATM   13  C13 UNL     1      32.087   9.503  45.113  1.00  0.00     0.084 C 
HETATM   14  N3  UNL     1      32.330  10.034  44.112  1.00  0.00    -0.195 NA
HETATM   15  C14 UNL     1      31.191   9.866  47.277  1.00  0.00     0.187 C 
HETATM   16  N4  UNL     1      31.297   9.527  48.682  1.00  0.00    -0.295 NA
HETATM   17  C15 UNL     1      32.027   8.481  48.989  1.00  0.00     0.013 C 
HETATM   18  C16 UNL     1      32.042   7.155  49.711  1.00  0.00     0.095 C 
HETATM   19  C17 UNL     1      33.349   8.680  48.331  1.00  0.00     0.082 C 
HETATM   20  C18 UNL     1      33.125   8.266  46.890  1.00  0.00     0.116 C 
HETATM   21  N5  UNL     1      33.380   6.960  46.550  1.00  0.00    -0.414 N 
HETATM   22  C19 UNL     1      34.232   6.020  47.087  1.00  0.00     0.119 C 
HETATM   23  C20 UNL     1      33.789   5.477  48.445  1.00  0.00     0.060 C 
HETATM   24  H17 UNL     1      33.255   6.804  45.528  1.00  0.00     0.153 HD
ENDROOT
BRANCH   1  25
HETATM   25  C2  UNL     1      32.170   3.950  47.316  1.00  0.00     0.117 C 
HETATM   26  N1  UNL     1      32.723   2.823  47.583  1.00  0.00    -0.306 NA
HETATM   27  C1  UNL     1      32.528   1.713  46.708  1.00  0.00     0.177 C 
ENDBRANCH   1  25
TORSDOF 1
ENDMDL
MODEL 8
REMARK VINA RESULT:      -6.9      2.696      5.987
REMARK  1 active torsions:
REMARK  status: ('A' for Active; 'I' for Inactive)
REMARK    1  A    between atoms: C2_3  and  C3_4 
ROOT
HETATM    1  C3  UNL     1      19.196   3.739  50.020  1.00  0.00    -0.032 C 
HETATM    2  C4  UNL     1      20.311   3.235  49.611  1.00  0.00    -0.028 C 
HETATM    3  C5  UNL     1      20.612   2.883  50.973  1.00  0.00     0.125 C 
HETATM    4  N2  UNL     1      21.779   2.465  50.798  1.00  0.00    -0.259 NA
HETATM    5  C6  UNL     1      22.757   1.960  51.624  1.00  0.00     0.073 A 
HETATM    6  C7  UNL     1      23.491   0.951  52.156  1.00  0.00     0.033 A 
HETATM    7  C8  UNL     1      24.493   1.180  53.072  1.00  0.00     0.002 A 
HETATM    8  C9  UNL     1      24.739   2.484  53.445  1.00  0.00     0.002 A 
HETATM    9  C10 UNL     1      23.989   3.528  52.903  1.00  0.00     0.021 A 
HETATM   10  C11 UNL     1      22.958   3.339  51.969  1.00  0.00     0.031 A 
HETATM   11  S1  UNL     1      22.274   4.965  51.607  1.00  0.00    -0.098 SA
HETATM   12  C12 UNL     1      22.879   5.711  50.116  1.00  0.00     0.139 C 
HETATM   13  C13 UNL     1      23.452   7.035  50.506  1.00  0.00     0.084 C 
HETATM   14  N3  UNL     1      23.878   8.069  50.810  1.00  0.00    -0.195 NA
HETATM   15  C14 UNL     1      24.037   4.972  49.496  1.00  0.00     0.187 C 
HETATM   16  N4  UNL     1      23.589   3.903  48.627  1.00  0.00    -0.295 NA
HETATM   17  C15 UNL     1      22.305   3.845  48.367  1.00  0.00     0.013 C 
HETATM   18  C16 UNL     1      21.078   2.966  48.396  1.00  0.00     0.095 C 
HETATM   19  C17 UNL     1      21.909   5.198  47.885  1.00  0.00     0.082 C 
HETATM   20  C18 UNL     1      21.751   6.022  49.147  1.00  0.00     0.116 C 
HETATM   21  N5  UNL     1      20.505   6.085  49.722  1.00  0.00    -0.414 N 
HETATM   22  C19 UNL     1      19.241   5.959  49.190  1.00  0.00     0.119 C 
HETATM   23  C20 UNL     1      18.873   4.533  48.782  1.00  0.00     0.060 C 
HETATM   24  H17 UNL     1      20.499   6.727  50.541  1.00  0.00     0.153 HD
ENDROOT
BRANCH   1  25
HETATM   25  C2  UNL     1      18.363   3.973  51.159  1.00  0.00     0.117 C 
HETATM   26  N1  UNL     1      17.086   3.915  51.045  1.00  0.00    -0.306 NA
HETATM   27  C1  UNL     1      16.261   4.151  52.185  1.00  0.00     0.177 C 
ENDBRANCH   1  25
TORSDOF 1
ENDMDL
MODEL 9
REMARK VINA RESULT:      -6.8      8.238     10.291
REMARK  1 active torsions:
REMARK  status: ('A' for Active; 'I' for Inactive)
REMARK    1  A    between atoms: C2_3  and  C3_4 
ROOT
HETATM    1  C3  UNL     1      31.871   7.142  47.486  1.00  0.00    -0.032 C 
HETATM    2  C4  UNL     1      31.060   7.727  48.302  1.00  0.00    -0.028 C 
HETATM    3  C5  UNL     1      29.987   6.951  47.739  1.00  0.00     0.125 C 
HETATM    4  N2  UNL     1      29.036   7.490  48.347  1.00  0.00    -0.259 NA
HETATM    5  C6  UNL     1      27.670   7.317  48.349  1.00  0.00     0.073 A 
HETATM    6  C7  UNL     1      26.507   6.863  48.880  1.00  0.00     0.033 A 
HETATM    7  C8  UNL     1      25.291   7.090  48.277  1.00  0.00     0.002 A 
HETATM    8  C9  UNL     1      25.279   7.803  47.098  1.00  0.00     0.002 A 
HETATM    9  C10 UNL     1      26.471   8.275  46.544  1.00  0.00     0.021 A 
HETATM   10  C11 UNL     1      27.732   8.064  47.125  1.00  0.00     0.031 A 
HETATM   11  S1  UNL     1      28.945   8.820  46.030  1.00  0.00    -0.098 SA
HETATM   12  C12 UNL     1      29.486  10.436  46.522  1.00  0.00     0.139 C 
HETATM   13  C13 UNL     1      29.213  11.345  45.369  1.00  0.00     0.084 C 
HETATM   14  N3  UNL     1      29.017  12.044  44.465  1.00  0.00    -0.195 NA
HETATM   15  C14 UNL     1      28.686  11.023  47.657  1.00  0.00     0.187 C 
HETATM   16  N4  UNL     1      29.192  10.600  48.947  1.00  0.00    -0.295 NA
HETATM   17  C15 UNL     1      30.330   9.949  48.956  1.00  0.00     0.013 C 
HETATM   18  C16 UNL     1      31.027   8.686  49.405  1.00  0.00     0.095 C 
HETATM   19  C17 UNL     1      31.299  10.780  48.188  1.00  0.00     0.082 C 
HETATM   20  C18 UNL     1      30.990  10.483  46.735  1.00  0.00     0.116 C 
HETATM   21  N5  UNL     1      31.685   9.469  46.123  1.00  0.00    -0.414 N 
HETATM   22  C19 UNL     1      32.934   8.938  46.360  1.00  0.00     0.119 C 
HETATM   23  C20 UNL     1      33.024   8.099  47.635  1.00  0.00     0.060 C 
HETATM   24  H17 UNL     1      31.439   9.397  45.114  1.00  0.00     0.153 HD
ENDROOT
BRANCH   1  25
HETATM   25  C2  UNL     1      31.987   6.165  46.448  1.00  0.00     0.117 C 
HETATM   26  N1  UNL     1      32.871   5.239  46.533  1.00  0.00    -0.306 NA
HETATM   27  C1  UNL     1      32.982   4.268  45.493  1.00  0.00     0.177 C 
ENDBRANCH   1  25
TORSDOF 1
ENDMDL
