MODEL 1
REMARK VINA RESULT:      -7.7      0.000      0.000
REMARK  6 active torsions:
REMARK  status: ('A' for Active; 'I' for Inactive)
REMARK    1  A    between atoms: C11_15  and  O1_16 
REMARK    2  A    between atoms: C15_21  and  C16_22 
REMARK    3  A    between atoms: C16_22  and  C17_23 
REMARK    4  A    between atoms: C17_23  and  O2_24 
REMARK    5  A    between atoms: C17_23  and  C18_25 
REMARK    6  A    between atoms: C18_25  and  N4_26 
ROOT
HETATM    1  C1  UNL     1      21.560   0.753  49.455  1.00  0.00     0.074 A 
HETATM    2  C2  UNL     1      22.266   1.771  49.774  1.00  0.00    -0.029 A 
HETATM    3  C3  UNL     1      23.013   2.961  50.102  1.00  0.00     0.119 C 
HETATM    4  F1  UNL     1      22.341   3.706  49.191  1.00  0.00    -0.206 F 
HETATM    5  C4  UNL     1      24.008   3.483  50.735  1.00  0.00     0.040 C 
HETATM    6  C5  UNL     1      24.956   2.753  51.589  1.00  0.00     0.003 C 
HETATM    7  C6  UNL     1      25.489   1.689  52.219  1.00  0.00     0.132 C 
HETATM    8  N1  UNL     1      25.284   0.258  52.401  1.00  0.00    -0.364 N 
HETATM    9  C7  UNL     1      24.423  -0.285  53.438  1.00  0.00     0.138 A 
HETATM   10  N2  UNL     1      25.065  -0.740  54.510  1.00  0.00    -0.224 NA
HETATM   11  C8  UNL     1      24.446  -1.273  55.578  1.00  0.00     0.235 A 
HETATM   12  N3  UNL     1      23.108  -1.378  55.625  1.00  0.00    -0.241 NA
HETATM   13  C9  UNL     1      22.424  -0.921  54.547  1.00  0.00     0.074 A 
HETATM   14  C10 UNL     1      21.033  -1.025  54.573  1.00  0.00     0.070 A 
HETATM   15  C11 UNL     1      20.226  -0.591  53.514  1.00  0.00     0.078 A 
HETATM   16  C12 UNL     1      20.777  -0.033  52.379  1.00  0.00    -0.003 A 
HETATM   17  C13 UNL     1      22.127  -0.007  52.518  1.00  0.00     0.032 A 
HETATM   18  C14 UNL     1      23.049  -0.376  53.451  1.00  0.00     0.039 A 
HETATM   19  P1  UNL     1      19.962   0.579  50.887  1.00  0.00    -0.103 P 
HETATM   20  C15 UNL     1      20.805   2.097  50.169  1.00  0.00     0.043 A 
HETATM   21  H6  UNL     1      25.675  -0.586  51.882  1.00  0.00     0.162 HD
HETATM   22  H11 UNL     1      18.570   0.777  50.966  1.00  0.00     0.059 HD
ENDROOT
BRANCH  20  23
HETATM   23  C16 UNL     1      20.932   3.090  51.369  1.00  0.00     0.047 C 
BRANCH  23  24
HETATM   24  C17 UNL     1      19.799   4.060  51.431  1.00  0.00     0.146 C 
BRANCH  24  25
HETATM   25  O2  UNL     1      18.735   3.650  52.217  1.00  0.00    -0.394 OA
HETATM   26  H16 UNL     1      17.868   3.962  51.893  1.00  0.00     0.210 HD
ENDBRANCH  24  25
BRANCH  24  27
HETATM   27  C18 UNL     1      19.325   4.488  50.053  1.00  0.00     0.298 C 
BRANCH  27  28
HETATM   28  N4  UNL     1      18.050   5.148  50.092  1.00  0.00     0.080 N 
HETATM   29  H19 UNL     1      18.184   6.108  50.501  1.00  0.00     0.312 HD
HETATM   30  H20 UNL     1      17.417   4.588  50.678  1.00  0.00     0.312 HD
ENDBRANCH  27  28
ENDBRANCH  24  27
ENDBRANCH  23  24
ENDBRANCH  20  23
BRANCH  15  31
HETATM   31  O1  UNL     1      18.820  -0.681  53.505  1.00  0.00    -0.360 OA
HETATM   32  H9  UNL     1      18.386  -0.468  54.395  1.00  0.00     0.217 HD
ENDBRANCH  15  31
TORSDOF 6
ENDMDL
MODEL 2
REMARK VINA RESULT:      -7.6      2.523      3.469
REMARK  6 active torsions:
REMARK  status: ('A' for Active; 'I' for Inactive)
REMARK    1  A    between atoms: C11_15  and  O1_16 
REMARK    2  A    between atoms: C15_21  and  C16_22 
REMARK    3  A    between atoms: C16_22  and  C17_23 
REMARK    4  A    between atoms: C17_23  and  O2_24 
REMARK    5  A    between atoms: C17_23  and  C18_25 
REMARK    6  A    between atoms: C18_25  and  N4_26 
ROOT
HETATM    1  C1  UNL     1      23.445   2.803  49.059  1.00  0.00     0.074 A 
HETATM    2  C2  UNL     1      24.523   3.001  49.718  1.00  0.00    -0.029 A 
HETATM    3  C3  UNL     1      25.743   3.290  50.435  1.00  0.00     0.119 C 
HETATM    4  F1  UNL     1      26.038   4.337  49.627  1.00  0.00    -0.206 F 
HETATM    5  C4  UNL     1      26.597   2.918  51.326  1.00  0.00     0.040 C 
HETATM    6  C5  UNL     1      26.516   1.688  52.127  1.00  0.00     0.003 C 
HETATM    7  C6  UNL     1      25.989   0.530  52.568  1.00  0.00     0.132 C 
HETATM    8  N1  UNL     1      24.836  -0.339  52.372  1.00  0.00    -0.364 N 
HETATM    9  C7  UNL     1      23.590  -0.162  53.098  1.00  0.00     0.138 A 
HETATM   10  N2  UNL     1      23.423  -0.994  54.123  1.00  0.00    -0.224 NA
HETATM   11  C8  UNL     1      22.340  -0.984  54.921  1.00  0.00     0.235 A 
HETATM   12  N3  UNL     1      21.340  -0.110  54.723  1.00  0.00    -0.241 NA
HETATM   13  C9  UNL     1      21.481   0.752  53.686  1.00  0.00     0.074 A 
HETATM   14  C10 UNL     1      20.450   1.665  53.460  1.00  0.00     0.070 A 
HETATM   15  C11 UNL     1      20.487   2.597  52.415  1.00  0.00     0.078 A 
HETATM   16  C12 UNL     1      21.558   2.657  51.549  1.00  0.00    -0.003 A 
HETATM   17  C13 UNL     1      22.461   1.710  51.908  1.00  0.00     0.032 A 
HETATM   18  C14 UNL     1      22.583   0.748  52.866  1.00  0.00     0.039 A 
HETATM   19  P1  UNL     1      21.831   3.742  50.130  1.00  0.00    -0.103 P 
HETATM   20  C15 UNL     1      23.630   4.247  49.935  1.00  0.00     0.043 A 
HETATM   21  H6  UNL     1      24.683  -1.183  51.740  1.00  0.00     0.162 HD
HETATM   22  H11 UNL     1      20.988   4.865  50.026  1.00  0.00     0.059 HD
ENDROOT
BRANCH  20  23
HETATM   23  C16 UNL     1      24.046   4.793  51.339  1.00  0.00     0.047 C 
BRANCH  23  24
HETATM   24  C17 UNL     1      23.920   6.276  51.437  1.00  0.00     0.146 C 
BRANCH  24  25
HETATM   25  O2  UNL     1      22.616   6.737  51.515  1.00  0.00    -0.394 OA
HETATM   26  H16 UNL     1      22.385   7.110  52.387  1.00  0.00     0.210 HD
ENDBRANCH  24  25
BRANCH  24  27
HETATM   27  C18 UNL     1      24.688   6.998  50.344  1.00  0.00     0.298 C 
BRANCH  27  28
HETATM   28  N4  UNL     1      26.007   7.382  50.764  1.00  0.00     0.080 N 
HETATM   29  H19 UNL     1      26.696   7.056  50.039  1.00  0.00     0.312 HD
HETATM   30  H20 UNL     1      26.197   6.940  51.672  1.00  0.00     0.312 HD
ENDBRANCH  27  28
ENDBRANCH  24  27
ENDBRANCH  23  24
ENDBRANCH  20  23
BRANCH  15  31
HETATM   31  O1  UNL     1      19.466   3.533  52.157  1.00  0.00    -0.360 OA
HETATM   32  H9  UNL     1      18.684   3.482  52.799  1.00  0.00     0.217 HD
ENDBRANCH  15  31
TORSDOF 6
ENDMDL
MODEL 3
REMARK VINA RESULT:      -7.4      2.662      4.266
REMARK  6 active torsions:
REMARK  status: ('A' for Active; 'I' for Inactive)
REMARK    1  A    between atoms: C11_15  and  O1_16 
REMARK    2  A    between atoms: C15_21  and  C16_22 
REMARK    3  A    between atoms: C16_22  and  C17_23 
REMARK    4  A    between atoms: C17_23  and  O2_24 
REMARK    5  A    between atoms: C17_23  and  C18_25 
REMARK    6  A    between atoms: C18_25  and  N4_26 
ROOT
HETATM    1  C1  UNL     1      20.341   3.707  51.921  1.00  0.00     0.074 A 
HETATM    2  C2  UNL     1      19.656   2.691  51.554  1.00  0.00    -0.029 A 
HETATM    3  C3  UNL     1      18.872   1.576  51.078  1.00  0.00     0.119 C 
HETATM    4  F1  UNL     1      18.326   2.311  50.079  1.00  0.00    -0.206 F 
HETATM    5  C4  UNL     1      18.453   0.374  51.281  1.00  0.00     0.040 C 
HETATM    6  C5  UNL     1      18.790  -0.466  52.439  1.00  0.00     0.003 C 
HETATM    7  C6  UNL     1      19.384  -0.788  53.604  1.00  0.00     0.132 C 
HETATM    8  N1  UNL     1      20.293  -0.242  54.603  1.00  0.00    -0.364 N 
HETATM    9  C7  UNL     1      21.737  -0.361  54.497  1.00  0.00     0.138 A 
HETATM   10  N2  UNL     1      22.271  -1.319  55.250  1.00  0.00    -0.224 NA
HETATM   11  C8  UNL     1      23.588  -1.591  55.285  1.00  0.00     0.235 A 
HETATM   12  N3  UNL     1      24.462  -0.893  54.542  1.00  0.00    -0.241 NA
HETATM   13  C9  UNL     1      23.948   0.090  53.762  1.00  0.00     0.074 A 
HETATM   14  C10 UNL     1      24.840   0.832  52.985  1.00  0.00     0.070 A 
HETATM   15  C11 UNL     1      24.421   1.873  52.148  1.00  0.00     0.078 A 
HETATM   16  C12 UNL     1      23.090   2.221  52.051  1.00  0.00    -0.003 A 
HETATM   17  C13 UNL     1      22.368   1.408  52.863  1.00  0.00     0.032 A 
HETATM   18  C14 UNL     1      22.604   0.375  53.720  1.00  0.00     0.039 A 
HETATM   19  P1  UNL     1      22.309   3.521  51.068  1.00  0.00    -0.103 P 
HETATM   20  C15 UNL     1      20.629   3.016  50.396  1.00  0.00     0.043 A 
HETATM   21  H6  UNL     1      20.115   0.288  55.510  1.00  0.00     0.162 HD
HETATM   22  H11 UNL     1      23.095   4.100  50.054  1.00  0.00     0.059 HD
ENDROOT
BRANCH  20  23
HETATM   23  C16 UNL     1      20.877   1.644  49.691  1.00  0.00     0.047 C 
BRANCH  23  24
HETATM   24  C17 UNL     1      21.087   1.785  48.220  1.00  0.00     0.146 C 
BRANCH  24  25
HETATM   25  O2  UNL     1      22.407   1.680  47.816  1.00  0.00    -0.394 OA
HETATM   26  H16 UNL     1      22.663   0.776  47.549  1.00  0.00     0.210 HD
ENDBRANCH  24  25
BRANCH  24  27
HETATM   27  C18 UNL     1      20.445   3.043  47.661  1.00  0.00     0.298 C 
BRANCH  27  28
HETATM   28  N4  UNL     1      19.208   2.772  46.983  1.00  0.00     0.080 N 
HETATM   29  H19 UNL     1      18.487   2.504  47.700  1.00  0.00     0.312 HD
HETATM   30  H20 UNL     1      19.367   2.002  46.321  1.00  0.00     0.312 HD
ENDBRANCH  27  28
ENDBRANCH  24  27
ENDBRANCH  23  24
ENDBRANCH  20  23
BRANCH  15  31
HETATM   31  O1  UNL     1      25.292   2.642  51.351  1.00  0.00    -0.360 OA
HETATM   32  H9  UNL     1      25.015   3.612  51.251  1.00  0.00     0.217 HD
ENDBRANCH  15  31
TORSDOF 6
ENDMDL
MODEL 4
REMARK VINA RESULT:      -7.3      2.054      3.043
REMARK  6 active torsions:
REMARK  status: ('A' for Active; 'I' for Inactive)
REMARK    1  A    between atoms: C11_15  and  O1_16 
REMARK    2  A    between atoms: C15_21  and  C16_22 
REMARK    3  A    between atoms: C16_22  and  C17_23 
REMARK    4  A    between atoms: C17_23  and  O2_24 
REMARK    5  A    between atoms: C17_23  and  C18_25 
REMARK    6  A    between atoms: C18_25  and  N4_26 
ROOT
HETATM    1  C1  UNL     1      22.187   1.708  48.410  1.00  0.00     0.074 A 
HETATM    2  C2  UNL     1      22.473   2.955  48.424  1.00  0.00    -0.029 A 
HETATM    3  C3  UNL     1      22.727   4.376  48.428  1.00  0.00     0.119 C 
HETATM    4  F1  UNL     1      21.551   4.647  47.813  1.00  0.00    -0.206 F 
HETATM    5  C4  UNL     1      23.566   5.332  48.639  1.00  0.00     0.040 C 
HETATM    6  C5  UNL     1      24.951   5.168  49.100  1.00  0.00     0.003 C 
HETATM    7  C6  UNL     1      26.049   4.505  49.513  1.00  0.00     0.132 C 
HETATM    8  N1  UNL     1      26.522   3.155  49.789  1.00  0.00    -0.364 N 
HETATM    9  C7  UNL     1      26.352   2.514  51.082  1.00  0.00     0.138 A 
HETATM   10  N2  UNL     1      27.437   2.523  51.852  1.00  0.00    -0.224 NA
HETATM   11  C8  UNL     1      27.479   1.986  53.085  1.00  0.00     0.235 A 
HETATM   12  N3  UNL     1      26.399   1.398  53.623  1.00  0.00    -0.241 NA
HETATM   13  C9  UNL     1      25.276   1.374  52.862  1.00  0.00     0.074 A 
HETATM   14  C10 UNL     1      24.144   0.761  53.401  1.00  0.00     0.070 A 
HETATM   15  C11 UNL     1      22.932   0.674  52.704  1.00  0.00     0.078 A 
HETATM   16  C12 UNL     1      22.800   1.196  51.434  1.00  0.00    -0.003 A 
HETATM   17  C13 UNL     1      23.984   1.749  51.066  1.00  0.00     0.032 A 
HETATM   18  C14 UNL     1      25.225   1.918  51.602  1.00  0.00     0.039 A 
HETATM   19  P1  UNL     1      21.367   1.195  50.333  1.00  0.00    -0.103 P 
HETATM   20  C15 UNL     1      21.226   2.771  49.322  1.00  0.00     0.043 A 
HETATM   21  H6  UNL     1      27.033   2.445  49.181  1.00  0.00     0.162 HD
HETATM   22  H11 UNL     1      20.128   0.866  50.915  1.00  0.00     0.059 HD
ENDROOT
BRANCH  20  23
HETATM   23  C16 UNL     1      21.317   3.928  50.368  1.00  0.00     0.047 C 
BRANCH  23  24
HETATM   24  C17 UNL     1      19.977   4.368  50.855  1.00  0.00     0.146 C 
BRANCH  24  25
HETATM   25  O2  UNL     1      19.575   3.780  52.042  1.00  0.00    -0.394 OA
HETATM   26  H16 UNL     1      18.832   4.242  52.475  1.00  0.00     0.210 HD
ENDBRANCH  24  25
BRANCH  24  27
HETATM   27  C18 UNL     1      18.902   4.235  49.791  1.00  0.00     0.298 C 
BRANCH  27  28
HETATM   28  N4  UNL     1      17.723   4.995  50.104  1.00  0.00     0.080 N 
HETATM   29  H19 UNL     1      17.128   5.059  49.239  1.00  0.00     0.312 HD
HETATM   30  H20 UNL     1      18.017   5.930  50.414  1.00  0.00     0.312 HD
ENDBRANCH  27  28
ENDBRANCH  24  27
ENDBRANCH  23  24
ENDBRANCH  20  23
BRANCH  15  31
HETATM   31  O1  UNL     1      21.770   0.064  53.215  1.00  0.00    -0.360 OA
HETATM   32  H9  UNL     1      21.085   0.716  53.579  1.00  0.00     0.217 HD
ENDBRANCH  15  31
TORSDOF 6
ENDMDL
MODEL 5
REMARK VINA RESULT:      -7.3     11.788     14.588
REMARK  6 active torsions:
REMARK  status: ('A' for Active; 'I' for Inactive)
REMARK    1  A    between atoms: C11_15  and  O1_16 
REMARK    2  A    between atoms: C15_21  and  C16_22 
REMARK    3  A    between atoms: C16_22  and  C17_23 
REMARK    4  A    between atoms: C17_23  and  O2_24 
REMARK    5  A    between atoms: C17_23  and  C18_25 
REMARK    6  A    between atoms: C18_25  and  N4_26 
ROOT
HETATM    1  C1  UNL     1      35.183   7.668  48.111  1.00  0.00     0.074 A 
HETATM    2  C2  UNL     1      35.071   6.399  48.228  1.00  0.00    -0.029 A 
HETATM    3  C3  UNL     1      34.927   4.977  48.426  1.00  0.00     0.119 C 
HETATM    4  F1  UNL     1      34.965   5.102  49.775  1.00  0.00    -0.206 F 
HETATM    5  C4  UNL     1      34.910   3.800  47.901  1.00  0.00     0.040 C 
HETATM    6  C5  UNL     1      35.077   3.499  46.472  1.00  0.00     0.003 C 
HETATM    7  C6  UNL     1      35.257   3.762  45.164  1.00  0.00     0.132 C 
HETATM    8  N1  UNL     1      35.428   4.880  44.245  1.00  0.00    -0.364 N 
HETATM    9  C7  UNL     1      34.305   5.576  43.641  1.00  0.00     0.138 A 
HETATM   10  N2  UNL     1      34.044   5.223  42.385  1.00  0.00    -0.224 NA
HETATM   11  C8  UNL     1      33.041   5.748  41.657  1.00  0.00     0.235 A 
HETATM   12  N3  UNL     1      32.225   6.682  42.171  1.00  0.00    -0.241 NA
HETATM   13  C9  UNL     1      32.465   7.062  43.450  1.00  0.00     0.074 A 
HETATM   14  C10 UNL     1      31.631   8.037  44.001  1.00  0.00     0.070 A 
HETATM   15  C11 UNL     1      31.790   8.509  45.310  1.00  0.00     0.078 A 
HETATM   16  C12 UNL     1      32.792   8.027  46.127  1.00  0.00    -0.003 A 
HETATM   17  C13 UNL     1      33.502   7.096  45.441  1.00  0.00     0.032 A 
HETATM   18  C14 UNL     1      33.487   6.532  44.200  1.00  0.00     0.039 A 
HETATM   19  P1  UNL     1      33.210   8.482  47.825  1.00  0.00    -0.103 P 
HETATM   20  C15 UNL     1      33.796   7.019  48.847  1.00  0.00     0.043 A 
HETATM   21  H6  UNL     1      36.301   5.358  43.865  1.00  0.00     0.162 HD
HETATM   22  H11 UNL     1      32.247   9.227  48.532  1.00  0.00     0.059 HD
ENDROOT
BRANCH  20  23
HETATM   23  C16 UNL     1      32.693   5.929  48.654  1.00  0.00     0.047 C 
BRANCH  23  24
HETATM   24  C17 UNL     1      31.468   6.204  49.462  1.00  0.00     0.146 C 
BRANCH  24  25
HETATM   25  O2  UNL     1      31.372   5.464  50.628  1.00  0.00    -0.394 OA
HETATM   26  H16 UNL     1      31.554   5.982  51.435  1.00  0.00     0.210 HD
ENDBRANCH  24  25
BRANCH  24  27
HETATM   27  C18 UNL     1      30.195   6.094  48.640  1.00  0.00     0.298 C 
BRANCH  27  28
HETATM   28  N4  UNL     1      29.225   7.091  48.997  1.00  0.00     0.080 N 
HETATM   29  H19 UNL     1      29.625   7.685  49.768  1.00  0.00     0.312 HD
HETATM   30  H20 UNL     1      28.372   6.611  49.313  1.00  0.00     0.312 HD
ENDBRANCH  27  28
ENDBRANCH  24  27
ENDBRANCH  23  24
ENDBRANCH  20  23
BRANCH  15  31
HETATM   31  O1  UNL     1      30.969   9.490  45.899  1.00  0.00    -0.360 OA
HETATM   32  H9  UNL     1      30.749  10.268  45.289  1.00  0.00     0.217 HD
ENDBRANCH  15  31
TORSDOF 6
ENDMDL
MODEL 6
REMARK VINA RESULT:      -7.2      2.697      4.508
REMARK  6 active torsions:
REMARK  status: ('A' for Active; 'I' for Inactive)
REMARK    1  A    between atoms: C11_15  and  O1_16 
REMARK    2  A    between atoms: C15_21  and  C16_22 
REMARK    3  A    between atoms: C16_22  and  C17_23 
REMARK    4  A    between atoms: C17_23  and  O2_24 
REMARK    5  A    between atoms: C17_23  and  C18_25 
REMARK    6  A    between atoms: C18_25  and  N4_26 
ROOT
HETATM    1  C1  UNL     1      21.691   3.622  52.199  1.00  0.00     0.074 A 
HETATM    2  C2  UNL     1      21.152   2.476  52.014  1.00  0.00    -0.029 A 
HETATM    3  C3  UNL     1      20.504   1.213  51.756  1.00  0.00     0.119 C 
HETATM    4  F1  UNL     1      19.472   1.808  51.109  1.00  0.00    -0.206 F 
HETATM    5  C4  UNL     1      20.463  -0.056  51.979  1.00  0.00     0.040 C 
HETATM    6  C5  UNL     1      21.392  -0.803  52.839  1.00  0.00     0.003 C 
HETATM    7  C6  UNL     1      22.442  -0.988  53.662  1.00  0.00     0.132 C 
HETATM    8  N1  UNL     1      23.525  -0.251  54.300  1.00  0.00    -0.364 N 
HETATM    9  C7  UNL     1      24.807  -0.026  53.653  1.00  0.00     0.138 A 
HETATM   10  N2  UNL     1      25.781  -0.838  54.055  1.00  0.00    -0.224 NA
HETATM   11  C8  UNL     1      27.036  -0.791  53.571  1.00  0.00     0.235 A 
HETATM   12  N3  UNL     1      27.384   0.100  52.629  1.00  0.00    -0.241 NA
HETATM   13  C9  UNL     1      26.412   0.942  52.199  1.00  0.00     0.074 A 
HETATM   14  C10 UNL     1      26.755   1.880  51.224  1.00  0.00     0.070 A 
HETATM   15  C11 UNL     1      25.834   2.801  50.710  1.00  0.00     0.078 A 
HETATM   16  C12 UNL     1      24.527   2.825  51.149  1.00  0.00    -0.003 A 
HETATM   17  C13 UNL     1      24.366   1.857  52.087  1.00  0.00     0.032 A 
HETATM   18  C14 UNL     1      25.129   0.902  52.688  1.00  0.00     0.039 A 
HETATM   19  P1  UNL     1      23.170   3.914  50.662  1.00  0.00    -0.103 P 
HETATM   20  C15 UNL     1      21.511   3.033  50.616  1.00  0.00     0.043 A 
HETATM   21  H6  UNL     1      23.600   0.213  55.256  1.00  0.00     0.162 HD
HETATM   22  H11 UNL     1      23.361   4.672  49.491  1.00  0.00     0.059 HD
ENDROOT
BRANCH  20  23
HETATM   23  C16 UNL     1      21.757   1.765  49.736  1.00  0.00     0.047 C 
BRANCH  23  24
HETATM   24  C17 UNL     1      21.380   1.977  48.308  1.00  0.00     0.146 C 
BRANCH  24  25
HETATM   25  O2  UNL     1      22.452   2.183  47.456  1.00  0.00    -0.394 OA
HETATM   26  H16 UNL     1      22.307   2.903  46.813  1.00  0.00     0.210 HD
ENDBRANCH  24  25
BRANCH  24  27
HETATM   27  C18 UNL     1      20.334   3.064  48.139  1.00  0.00     0.298 C 
BRANCH  27  28
HETATM   28  N4  UNL     1      19.035   2.533  47.831  1.00  0.00     0.080 N 
HETATM   29  H19 UNL     1      18.311   3.115  48.323  1.00  0.00     0.312 HD
HETATM   30  H20 UNL     1      19.002   1.558  48.157  1.00  0.00     0.312 HD
ENDBRANCH  27  28
ENDBRANCH  24  27
ENDBRANCH  23  24
ENDBRANCH  20  23
BRANCH  15  31
HETATM   31  O1  UNL     1      26.144   3.761  49.726  1.00  0.00    -0.360 OA
HETATM   32  H9  UNL     1      25.408   3.912  49.047  1.00  0.00     0.217 HD
ENDBRANCH  15  31
TORSDOF 6
ENDMDL
MODEL 7
REMARK VINA RESULT:      -7.2      1.993      2.303
REMARK  6 active torsions:
REMARK  status: ('A' for Active; 'I' for Inactive)
REMARK    1  A    between atoms: C11_15  and  O1_16 
REMARK    2  A    between atoms: C15_21  and  C16_22 
REMARK    3  A    between atoms: C16_22  and  C17_23 
REMARK    4  A    between atoms: C17_23  and  O2_24 
REMARK    5  A    between atoms: C17_23  and  C18_25 
REMARK    6  A    between atoms: C18_25  and  N4_26 
ROOT
HETATM    1  C1  UNL     1      22.378   1.956  48.597  1.00  0.00     0.074 A 
HETATM    2  C2  UNL     1      23.113   2.974  48.845  1.00  0.00    -0.029 A 
HETATM    3  C3  UNL     1      23.889   4.164  49.101  1.00  0.00     0.119 C 
HETATM    4  F1  UNL     1      23.091   4.925  48.314  1.00  0.00    -0.206 F 
HETATM    5  C4  UNL     1      24.958   4.679  49.605  1.00  0.00     0.040 C 
HETATM    6  C5  UNL     1      26.021   3.938  50.297  1.00  0.00     0.003 C 
HETATM    7  C6  UNL     1      26.645   2.863  50.817  1.00  0.00     0.132 C 
HETATM    8  N1  UNL     1      26.478   1.425  50.983  1.00  0.00    -0.364 N 
HETATM    9  C7  UNL     1      25.774   0.844  52.114  1.00  0.00     0.138 A 
HETATM   10  N2  UNL     1      26.563   0.367  53.073  1.00  0.00    -0.224 NA
HETATM   11  C8  UNL     1      26.102  -0.203  54.201  1.00  0.00     0.235 A 
HETATM   12  N3  UNL     1      24.785  -0.325  54.429  1.00  0.00    -0.241 NA
HETATM   13  C9  UNL     1      23.954   0.153  53.470  1.00  0.00     0.074 A 
HETATM   14  C10 UNL     1      22.581   0.031  53.686  1.00  0.00     0.070 A 
HETATM   15  C11 UNL     1      21.631   0.485  52.761  1.00  0.00     0.078 A 
HETATM   16  C12 UNL     1      22.015   1.081  51.578  1.00  0.00    -0.003 A 
HETATM   17  C13 UNL     1      23.371   1.119  51.529  1.00  0.00     0.032 A 
HETATM   18  C14 UNL     1      24.416   0.736  52.315  1.00  0.00     0.039 A 
HETATM   19  P1  UNL     1      20.996   1.724  50.231  1.00  0.00    -0.103 P 
HETATM   20  C15 UNL     1      21.719   3.271  49.448  1.00  0.00     0.043 A 
HETATM   21  H6  UNL     1      26.801   0.601  50.391  1.00  0.00     0.162 HD
HETATM   22  H11 UNL     1      19.627   1.903  50.508  1.00  0.00     0.059 HD
ENDROOT
BRANCH  20  23
HETATM   23  C16 UNL     1      22.002   4.232  50.647  1.00  0.00     0.047 C 
BRANCH  23  24
HETATM   24  C17 UNL     1      20.972   5.303  50.778  1.00  0.00     0.146 C 
BRANCH  24  25
HETATM   25  O2  UNL     1      19.958   5.243  49.837  1.00  0.00    -0.394 OA
HETATM   26  H16 UNL     1      19.145   4.815  50.167  1.00  0.00     0.210 HD
ENDBRANCH  24  25
BRANCH  24  27
HETATM   27  C18 UNL     1      21.584   6.692  50.832  1.00  0.00     0.298 C 
BRANCH  27  28
HETATM   28  N4  UNL     1      22.817   6.720  51.568  1.00  0.00     0.080 N 
HETATM   29  H19 UNL     1      22.594   6.677  52.595  1.00  0.00     0.312 HD
HETATM   30  H20 UNL     1      23.309   7.594  51.338  1.00  0.00     0.312 HD
ENDBRANCH  27  28
ENDBRANCH  24  27
ENDBRANCH  23  24
ENDBRANCH  20  23
BRANCH  15  31
HETATM   31  O1  UNL     1      20.239   0.379  52.945  1.00  0.00    -0.360 OA
HETATM   32  H9  UNL     1      19.693   0.617  52.125  1.00  0.00     0.217 HD
ENDBRANCH  15  31
TORSDOF 6
ENDMDL
MODEL 8
REMARK VINA RESULT:      -7.0      1.888      2.107
REMARK  6 active torsions:
REMARK  status: ('A' for Active; 'I' for Inactive)
REMARK    1  A    between atoms: C11_15  and  O1_16 
REMARK    2  A    between atoms: C15_21  and  C16_22 
REMARK    3  A    between atoms: C16_22  and  C17_23 
REMARK    4  A    between atoms: C17_23  and  O2_24 
REMARK    5  A    between atoms: C17_23  and  C18_25 
REMARK    6  A    between atoms: C18_25  and  N4_26 
ROOT
HETATM    1  C1  UNL     1      22.250   1.755  48.427  1.00  0.00     0.074 A 
HETATM    2  C2  UNL     1      22.976   2.590  49.070  1.00  0.00    -0.029 A 
HETATM    3  C3  UNL     1      23.767   3.584  49.755  1.00  0.00     0.119 C 
HETATM    4  F1  UNL     1      23.592   4.492  48.764  1.00  0.00    -0.206 F 
HETATM    5  C4  UNL     1      24.563   3.859  50.731  1.00  0.00     0.040 C 
HETATM    6  C5  UNL     1      25.015   2.911  51.759  1.00  0.00     0.003 C 
HETATM    7  C6  UNL     1      25.101   1.733  52.405  1.00  0.00     0.132 C 
HETATM    8  N1  UNL     1      24.593   0.369  52.349  1.00  0.00    -0.364 N 
HETATM    9  C7  UNL     1      23.347  -0.030  52.982  1.00  0.00     0.138 A 
HETATM   10  N2  UNL     1      23.493  -0.656  54.146  1.00  0.00    -0.224 NA
HETATM   11  C8  UNL     1      22.461  -1.097  54.888  1.00  0.00     0.235 A 
HETATM   12  N3  UNL     1      21.192  -0.924  54.486  1.00  0.00    -0.241 NA
HETATM   13  C9  UNL     1      21.010  -0.288  53.302  1.00  0.00     0.074 A 
HETATM   14  C10 UNL     1      19.699  -0.103  52.863  1.00  0.00     0.070 A 
HETATM   15  C11 UNL     1      19.394   0.536  51.654  1.00  0.00     0.078 A 
HETATM   16  C12 UNL     1      20.389   1.018  50.830  1.00  0.00    -0.003 A 
HETATM   17  C13 UNL     1      21.592   0.758  51.403  1.00  0.00     0.032 A 
HETATM   18  C14 UNL     1      22.058   0.165  52.537  1.00  0.00     0.039 A 
HETATM   19  P1  UNL     1      20.256   1.853  49.232  1.00  0.00    -0.103 P 
HETATM   20  C15 UNL     1      21.552   3.193  49.002  1.00  0.00     0.043 A 
HETATM   21  H6  UNL     1      24.979  -0.514  51.894  1.00  0.00     0.162 HD
HETATM   22  H11 UNL     1      18.981   2.330  48.877  1.00  0.00     0.059 HD
ENDROOT
BRANCH  20  23
HETATM   23  C16 UNL     1      21.438   4.083  50.281  1.00  0.00     0.047 C 
BRANCH  23  24
HETATM   24  C17 UNL     1      20.662   5.335  50.041  1.00  0.00     0.146 C 
BRANCH  24  25
HETATM   25  O2  UNL     1      20.315   5.550  48.718  1.00  0.00    -0.394 OA
HETATM   26  H16 UNL     1      21.076   5.769  48.145  1.00  0.00     0.210 HD
ENDBRANCH  24  25
BRANCH  24  27
HETATM   27  C18 UNL     1      21.338   6.559  50.633  1.00  0.00     0.298 C 
BRANCH  27  28
HETATM   28  N4  UNL     1      22.150   6.240  51.774  1.00  0.00     0.080 N 
HETATM   29  H19 UNL     1      23.157   6.220  51.471  1.00  0.00     0.312 HD
HETATM   30  H20 UNL     1      21.858   5.319  52.128  1.00  0.00     0.312 HD
ENDBRANCH  27  28
ENDBRANCH  24  27
ENDBRANCH  23  24
ENDBRANCH  20  23
BRANCH  15  31
HETATM   31  O1  UNL     1      18.083   0.740  51.179  1.00  0.00    -0.360 OA
HETATM   32  H9  UNL     1      17.807   0.105  50.439  1.00  0.00     0.217 HD
ENDBRANCH  15  31
TORSDOF 6
ENDMDL
MODEL 9
REMARK VINA RESULT:      -6.9     10.232     12.603
REMARK  6 active torsions:
REMARK  status: ('A' for Active; 'I' for Inactive)
REMARK    1  A    between atoms: C11_15  and  O1_16 
REMARK    2  A    between atoms: C15_21  and  C16_22 
REMARK    3  A    between atoms: C16_22  and  C17_23 
REMARK    4  A    between atoms: C17_23  and  O2_24 
REMARK    5  A    between atoms: C17_23  and  C18_25 
REMARK    6  A    between atoms: C18_25  and  N4_26 
ROOT
HETATM    1  C1  UNL     1      28.581   8.115  46.105  1.00  0.00     0.074 A 
HETATM    2  C2  UNL     1      28.652   9.351  46.428  1.00  0.00    -0.029 A 
HETATM    3  C3  UNL     1      28.665  10.741  46.816  1.00  0.00     0.119 C 
HETATM    4  F1  UNL     1      27.312  10.797  46.881  1.00  0.00    -0.206 F 
HETATM    5  C4  UNL     1      29.350  11.822  46.975  1.00  0.00     0.040 C 
HETATM    6  C5  UNL     1      30.792  11.964  46.730  1.00  0.00     0.003 C 
HETATM    7  C6  UNL     1      32.036  11.571  46.393  1.00  0.00     0.132 C 
HETATM    8  N1  UNL     1      32.775  10.391  45.963  1.00  0.00    -0.364 N 
HETATM    9  C7  UNL     1      33.350   9.442  46.901  1.00  0.00     0.138 A 
HETATM   10  N2  UNL     1      34.658   9.583  47.101  1.00  0.00    -0.224 NA
HETATM   11  C8  UNL     1      35.371   8.806  47.937  1.00  0.00     0.235 A 
HETATM   12  N3  UNL     1      34.788   7.820  48.635  1.00  0.00    -0.241 NA
HETATM   13  C9  UNL     1      33.455   7.651  48.453  1.00  0.00     0.074 A 
HETATM   14  C10 UNL     1      32.830   6.626  49.166  1.00  0.00     0.070 A 
HETATM   15  C11 UNL     1      31.460   6.358  49.052  1.00  0.00     0.078 A 
HETATM   16  C12 UNL     1      30.653   7.104  48.219  1.00  0.00    -0.003 A 
HETATM   17  C13 UNL     1      31.413   8.048  47.608  1.00  0.00     0.032 A 
HETATM   18  C14 UNL     1      32.719   8.439  47.602  1.00  0.00     0.039 A 
HETATM   19  P1  UNL     1      28.883   6.946  47.887  1.00  0.00    -0.103 P 
HETATM   20  C15 UNL     1      28.040   8.606  47.639  1.00  0.00     0.043 A 
HETATM   21  H6  UNL     1      33.024  10.025  44.994  1.00  0.00     0.162 HD
HETATM   22  H11 UNL     1      28.146   6.144  48.779  1.00  0.00     0.059 HD
ENDROOT
BRANCH  20  23
HETATM   23  C16 UNL     1      28.458   9.457  48.881  1.00  0.00     0.047 C 
BRANCH  23  24
HETATM   24  C17 UNL     1      27.369   9.561  49.897  1.00  0.00     0.146 C 
BRANCH  24  25
HETATM   25  O2  UNL     1      27.809   9.565  51.210  1.00  0.00    -0.394 OA
HETATM   26  H16 UNL     1      28.224   8.724  51.484  1.00  0.00     0.210 HD
ENDBRANCH  24  25
BRANCH  24  27
HETATM   27  C18 UNL     1      26.281   8.522  49.689  1.00  0.00     0.298 C 
BRANCH  27  28
HETATM   28  N4  UNL     1      26.181   7.606  50.791  1.00  0.00     0.080 N 
HETATM   29  H19 UNL     1      25.172   7.332  50.906  1.00  0.00     0.312 HD
HETATM   30  H20 UNL     1      26.528   8.081  51.635  1.00  0.00     0.312 HD
ENDBRANCH  27  28
ENDBRANCH  24  27
ENDBRANCH  23  24
ENDBRANCH  20  23
BRANCH  15  31
HETATM   31  O1  UNL     1      30.796   5.334  49.756  1.00  0.00    -0.360 OA
HETATM   32  H9  UNL     1      29.788   5.351  49.660  1.00  0.00     0.217 HD
ENDBRANCH  15  31
TORSDOF 6
ENDMDL
