MODEL 1
REMARK VINA RESULT:      -7.8      0.000      0.000
REMARK  5 active torsions:
REMARK  status: ('A' for Active; 'I' for Inactive)
REMARK    1  A    between atoms: O1_2  and  C2_3 
REMARK    2  A    between atoms: C6_9  and  O2_10 
REMARK    3  A    between atoms: O2_10  and  C7_11 
REMARK    4  A    between atoms: C10_14  and  N3_15 
REMARK       I    between atoms: N3_15  and  C11_16 
REMARK       I    between atoms: C11_16  and  N4_18 
REMARK    5  A    between atoms: C16_24  and  O4_25 
ROOT
HETATM    1  C2  UNL     1      27.291   0.048  53.684  1.00  0.00     0.103 A 
HETATM    2  C3  UNL     1      27.641   0.943  52.673  1.00  0.00     0.072 A 
HETATM    3  C4  UNL     1      26.709   1.805  52.118  1.00  0.00     0.075 A 
HETATM    4  N1  UNL     1      27.039   2.669  51.145  1.00  0.00    -0.241 NA
HETATM    5  C5  UNL     1      26.107   3.506  50.615  1.00  0.00     0.236 A 
HETATM    6  N2  UNL     1      24.840   3.467  51.071  1.00  0.00    -0.217 NA
HETATM    7  C6  UNL     1      24.465   2.617  52.045  1.00  0.00     0.183 A 
HETATM    8  C14 UNL     1      25.407   1.766  52.586  1.00  0.00     0.049 A 
HETATM    9  C15 UNL     1      25.106   0.871  53.581  1.00  0.00     0.057 A 
HETATM   10  C16 UNL     1      25.999  -0.005  54.163  1.00  0.00     0.102 A 
ENDROOT
BRANCH   7  11
HETATM   11  O2  UNL     1      23.183   2.530  52.556  1.00  0.00    -0.291 OA
BRANCH  11  12
HETATM   12  C7  UNL     1      22.057   2.240  51.791  1.00  0.00     0.078 A 
HETATM   13  C8  UNL     1      20.903   2.986  51.872  1.00  0.00     0.039 A 
HETATM   14  C9  UNL     1      19.840   2.622  51.074  1.00  0.00     0.032 A 
HETATM   15  C10 UNL     1      19.978   1.539  50.239  1.00  0.00     0.036 A 
HETATM   16  C12 UNL     1      21.131   0.779  50.144  1.00  0.00     0.032 A 
HETATM   17  C13 UNL     1      22.195   1.152  50.950  1.00  0.00     0.039 A 
BRANCH  15  18
HETATM   18  N3  UNL     1      18.822   1.223  49.437  1.00  0.00    -0.307 N 
HETATM   19  C11 UNL     1      17.996   0.262  50.060  1.00  0.00     0.348 C 
HETATM   20  O3  UNL     1      18.405  -0.145  51.188  1.00  0.00    -0.245 OA
HETATM   21  N4  UNL     1      16.788  -0.238  49.498  1.00  0.00    -0.173 N 
HETATM   22  F1  UNL     1      16.017  -1.161  50.122  1.00  0.00    -0.097 F 
HETATM   23  H9  UNL     1      16.479   0.128  48.549  1.00  0.00     0.204 HD
HETATM   24  H8  UNL     1      18.505   1.582  48.489  1.00  0.00     0.170 HD
ENDBRANCH  15  18
ENDBRANCH  11  12
ENDBRANCH   7  11
BRANCH  10  25
HETATM   25  O4  UNL     1      25.693  -0.900  55.160  1.00  0.00    -0.353 OA
HETATM   26  C17 UNL     1      24.382  -1.281  55.494  1.00  0.00     0.210 C 
ENDBRANCH  10  25
BRANCH   1  27
HETATM   27  O1  UNL     1      28.231  -0.803  54.225  1.00  0.00    -0.353 OA
HETATM   28  C1  UNL     1      29.569  -0.879  53.834  1.00  0.00     0.210 C 
ENDBRANCH   1  27
TORSDOF 5
ENDMDL
MODEL 2
REMARK VINA RESULT:      -7.6      5.963      8.044
REMARK  5 active torsions:
REMARK  status: ('A' for Active; 'I' for Inactive)
REMARK    1  A    between atoms: O1_2  and  C2_3 
REMARK    2  A    between atoms: C6_9  and  O2_10 
REMARK    3  A    between atoms: O2_10  and  C7_11 
REMARK    4  A    between atoms: C10_14  and  N3_15 
REMARK       I    between atoms: N3_15  and  C11_16 
REMARK       I    between atoms: C11_16  and  N4_18 
REMARK    5  A    between atoms: C16_24  and  O4_25 
ROOT
HETATM    1  C2  UNL     1      32.726   6.169  48.827  1.00  0.00     0.103 A 
HETATM    2  C3  UNL     1      32.356   7.468  49.177  1.00  0.00     0.072 A 
HETATM    3  C4  UNL     1      31.050   7.908  49.039  1.00  0.00     0.075 A 
HETATM    4  N1  UNL     1      30.686   9.156  49.374  1.00  0.00    -0.241 NA
HETATM    5  C5  UNL     1      29.398   9.565  49.229  1.00  0.00     0.236 A 
HETATM    6  N2  UNL     1      28.476   8.710  48.744  1.00  0.00    -0.217 NA
HETATM    7  C6  UNL     1      28.796   7.450  48.395  1.00  0.00     0.183 A 
HETATM    8  C14 UNL     1      30.102   7.029  48.540  1.00  0.00     0.049 A 
HETATM    9  C15 UNL     1      30.510   5.762  48.209  1.00  0.00     0.057 A 
HETATM   10  C16 UNL     1      31.797   5.280  48.330  1.00  0.00     0.102 A 
ENDROOT
BRANCH   7  11
HETATM   11  O2  UNL     1      27.899   6.525  47.893  1.00  0.00    -0.291 OA
BRANCH  11  12
HETATM   12  C7  UNL     1      27.029   5.777  48.680  1.00  0.00     0.078 A 
HETATM   13  C8  UNL     1      25.901   6.322  49.249  1.00  0.00     0.039 A 
HETATM   14  C9  UNL     1      25.100   5.500  50.014  1.00  0.00     0.032 A 
HETATM   15  C10 UNL     1      25.461   4.184  50.172  1.00  0.00     0.036 A 
HETATM   16  C12 UNL     1      26.591   3.619  49.606  1.00  0.00     0.032 A 
HETATM   17  C13 UNL     1      27.390   4.452  48.839  1.00  0.00     0.039 A 
BRANCH  15  18
HETATM   18  N3  UNL     1      24.572   3.390  50.984  1.00  0.00    -0.307 N 
HETATM   19  C11 UNL     1      23.616   2.705  50.203  1.00  0.00     0.348 C 
HETATM   20  O3  UNL     1      23.704   2.902  48.954  1.00  0.00    -0.245 OA
HETATM   21  N4  UNL     1      22.613   1.848  50.738  1.00  0.00    -0.173 N 
HETATM   22  F1  UNL     1      21.710   1.204  49.961  1.00  0.00    -0.097 F 
HETATM   23  H9  UNL     1      22.572   1.709  51.791  1.00  0.00     0.204 HD
HETATM   24  H8  UNL     1      24.522   3.245  52.035  1.00  0.00     0.170 HD
ENDBRANCH  15  18
ENDBRANCH  11  12
ENDBRANCH   7  11
BRANCH  10  25
HETATM   25  O4  UNL     1      32.200   4.009  47.996  1.00  0.00    -0.353 OA
HETATM   26  C17 UNL     1      32.058   3.456  46.713  1.00  0.00     0.210 C 
ENDBRANCH  10  25
BRANCH   1  27
HETATM   27  O1  UNL     1      34.031   5.748  48.972  1.00  0.00    -0.353 OA
HETATM   28  C1  UNL     1      35.154   6.424  48.492  1.00  0.00     0.210 C 
ENDBRANCH   1  27
TORSDOF 5
ENDMDL
MODEL 3
REMARK VINA RESULT:      -7.4      3.765      5.026
REMARK  5 active torsions:
REMARK  status: ('A' for Active; 'I' for Inactive)
REMARK    1  A    between atoms: O1_2  and  C2_3 
REMARK    2  A    between atoms: C6_9  and  O2_10 
REMARK    3  A    between atoms: O2_10  and  C7_11 
REMARK    4  A    between atoms: C10_14  and  N3_15 
REMARK       I    between atoms: N3_15  and  C11_16 
REMARK       I    between atoms: C11_16  and  N4_18 
REMARK    5  A    between atoms: C16_24  and  O4_25 
ROOT
HETATM    1  C2  UNL     1      27.004   0.611  53.814  1.00  0.00     0.103 A 
HETATM    2  C3  UNL     1      26.324  -0.129  54.781  1.00  0.00     0.072 A 
HETATM    3  C4  UNL     1      24.998  -0.491  54.613  1.00  0.00     0.075 A 
HETATM    4  N1  UNL     1      24.338  -1.204  55.539  1.00  0.00    -0.241 NA
HETATM    5  C5  UNL     1      23.036  -1.548  55.352  1.00  0.00     0.236 A 
HETATM    6  N2  UNL     1      22.401  -1.169  54.226  1.00  0.00    -0.217 NA
HETATM    7  C6  UNL     1      23.024  -0.454  53.270  1.00  0.00     0.183 A 
HETATM    8  C14 UNL     1      24.345  -0.102  53.455  1.00  0.00     0.049 A 
HETATM    9  C15 UNL     1      25.051   0.624  52.531  1.00  0.00     0.057 A 
HETATM   10  C16 UNL     1      26.371   1.007  52.654  1.00  0.00     0.102 A 
ENDROOT
BRANCH   7  11
HETATM   11  O2  UNL     1      22.429  -0.036  52.093  1.00  0.00    -0.291 OA
BRANCH  11  12
HETATM   12  C7  UNL     1      22.157   1.294  51.788  1.00  0.00     0.078 A 
HETATM   13  C8  UNL     1      21.477   2.121  52.653  1.00  0.00     0.039 A 
HETATM   14  C9  UNL     1      21.255   3.424  52.261  1.00  0.00     0.032 A 
HETATM   15  C10 UNL     1      21.719   3.837  51.035  1.00  0.00     0.036 A 
HETATM   16  C12 UNL     1      22.405   3.019  50.154  1.00  0.00     0.032 A 
HETATM   17  C13 UNL     1      22.624   1.711  50.555  1.00  0.00     0.039 A 
BRANCH  15  18
HETATM   18  N3  UNL     1      21.447   5.213  50.700  1.00  0.00    -0.307 N 
HETATM   19  C11 UNL     1      22.526   6.059  51.035  1.00  0.00     0.348 C 
HETATM   20  O3  UNL     1      23.522   5.476  51.559  1.00  0.00    -0.245 OA
HETATM   21  N4  UNL     1      22.536   7.466  50.817  1.00  0.00    -0.173 N 
HETATM   22  F1  UNL     1      23.589   8.251  51.149  1.00  0.00    -0.097 F 
HETATM   23  H9  UNL     1      21.682   7.918  50.375  1.00  0.00     0.204 HD
HETATM   24  H8  UNL     1      20.598   5.674  50.259  1.00  0.00     0.170 HD
ENDBRANCH  15  18
ENDBRANCH  11  12
ENDBRANCH   7  11
BRANCH  10  25
HETATM   25  O4  UNL     1      27.074   1.735  51.725  1.00  0.00    -0.353 OA
HETATM   26  C17 UNL     1      26.476   2.611  50.803  1.00  0.00     0.210 C 
ENDBRANCH  10  25
BRANCH   1  27
HETATM   27  O1  UNL     1      28.325   0.963  53.998  1.00  0.00    -0.353 OA
HETATM   28  C1  UNL     1      29.414   0.100  53.866  1.00  0.00     0.210 C 
ENDBRANCH   1  27
TORSDOF 5
ENDMDL
MODEL 4
REMARK VINA RESULT:      -7.4      4.230      6.220
REMARK  5 active torsions:
REMARK  status: ('A' for Active; 'I' for Inactive)
REMARK    1  A    between atoms: O1_2  and  C2_3 
REMARK    2  A    between atoms: C6_9  and  O2_10 
REMARK    3  A    between atoms: O2_10  and  C7_11 
REMARK    4  A    between atoms: C10_14  and  N3_15 
REMARK       I    between atoms: N3_15  and  C11_16 
REMARK       I    between atoms: C11_16  and  N4_18 
REMARK    5  A    between atoms: C16_24  and  O4_25 
ROOT
HETATM    1  C2  UNL     1      26.490   0.080  53.982  1.00  0.00     0.103 A 
HETATM    2  C3  UNL     1      25.315  -0.549  53.572  1.00  0.00     0.072 A 
HETATM    3  C4  UNL     1      24.226   0.178  53.122  1.00  0.00     0.075 A 
HETATM    4  N1  UNL     1      23.092  -0.421  52.725  1.00  0.00    -0.241 NA
HETATM    5  C5  UNL     1      22.036   0.314  52.287  1.00  0.00     0.236 A 
HETATM    6  N2  UNL     1      22.128   1.658  52.250  1.00  0.00    -0.217 NA
HETATM    7  C6  UNL     1      23.245   2.301  52.637  1.00  0.00     0.183 A 
HETATM    8  C14 UNL     1      24.320   1.560  53.083  1.00  0.00     0.049 A 
HETATM    9  C15 UNL     1      25.494   2.137  53.495  1.00  0.00     0.057 A 
HETATM   10  C16 UNL     1      26.603   1.455  53.951  1.00  0.00     0.102 A 
ENDROOT
BRANCH   7  11
HETATM   11  O2  UNL     1      23.402   3.675  52.623  1.00  0.00    -0.291 OA
BRANCH  11  12
HETATM   12  C7  UNL     1      23.715   4.411  51.484  1.00  0.00     0.078 A 
HETATM   13  C8  UNL     1      24.086   3.811  50.302  1.00  0.00     0.039 A 
HETATM   14  C9  UNL     1      24.378   4.625  49.228  1.00  0.00     0.032 A 
HETATM   15  C10 UNL     1      24.285   5.987  49.383  1.00  0.00     0.036 A 
HETATM   16  C12 UNL     1      23.913   6.606  50.564  1.00  0.00     0.032 A 
HETATM   17  C13 UNL     1      23.622   5.782  51.639  1.00  0.00     0.039 A 
BRANCH  15  18
HETATM   18  N3  UNL     1      24.605   6.768  48.214  1.00  0.00    -0.307 N 
HETATM   19  C11 UNL     1      25.982   7.078  48.149  1.00  0.00     0.348 C 
HETATM   20  O3  UNL     1      26.678   6.626  49.106  1.00  0.00    -0.245 OA
HETATM   21  N4  UNL     1      26.581   7.837  47.104  1.00  0.00    -0.173 N 
HETATM   22  F1  UNL     1      27.906   8.116  47.071  1.00  0.00    -0.097 F 
HETATM   23  H9  UNL     1      25.963   8.198  46.319  1.00  0.00     0.204 HD
HETATM   24  H8  UNL     1      23.996   7.134  47.425  1.00  0.00     0.170 HD
ENDBRANCH  15  18
ENDBRANCH  11  12
ENDBRANCH   7  11
BRANCH  10  25
HETATM   25  O4  UNL     1      27.777   2.038  54.362  1.00  0.00    -0.353 OA
HETATM   26  C17 UNL     1      28.750   2.542  53.483  1.00  0.00     0.210 C 
ENDBRANCH  10  25
BRANCH   1  27
HETATM   27  O1  UNL     1      27.566  -0.660  54.428  1.00  0.00    -0.353 OA
HETATM   28  C1  UNL     1      28.568  -1.195  53.617  1.00  0.00     0.210 C 
ENDBRANCH   1  27
TORSDOF 5
ENDMDL
MODEL 5
REMARK VINA RESULT:      -7.3      3.972      7.105
REMARK  5 active torsions:
REMARK  status: ('A' for Active; 'I' for Inactive)
REMARK    1  A    between atoms: O1_2  and  C2_3 
REMARK    2  A    between atoms: C6_9  and  O2_10 
REMARK    3  A    between atoms: O2_10  and  C7_11 
REMARK    4  A    between atoms: C10_14  and  N3_15 
REMARK       I    between atoms: N3_15  and  C11_16 
REMARK       I    between atoms: C11_16  and  N4_18 
REMARK    5  A    between atoms: C16_24  and  O4_25 
ROOT
HETATM    1  C2  UNL     1      19.067  -0.310  52.328  1.00  0.00     0.103 A 
HETATM    2  C3  UNL     1      19.561  -0.869  53.506  1.00  0.00     0.072 A 
HETATM    3  C4  UNL     1      20.914  -0.848  53.803  1.00  0.00     0.075 A 
HETATM    4  N1  UNL     1      21.396  -1.384  54.936  1.00  0.00    -0.241 NA
HETATM    5  C5  UNL     1      22.729  -1.352  55.206  1.00  0.00     0.236 A 
HETATM    6  N2  UNL     1      23.573  -0.776  54.328  1.00  0.00    -0.217 NA
HETATM    7  C6  UNL     1      23.134  -0.226  53.180  1.00  0.00     0.183 A 
HETATM    8  C14 UNL     1      21.783  -0.257  52.902  1.00  0.00     0.049 A 
HETATM    9  C15 UNL     1      21.254   0.281  51.756  1.00  0.00     0.057 A 
HETATM   10  C16 UNL     1      19.917   0.284  51.418  1.00  0.00     0.102 A 
ENDROOT
BRANCH   7  11
HETATM   11  O2  UNL     1      23.948   0.379  52.241  1.00  0.00    -0.291 OA
BRANCH  11  12
HETATM   12  C7  UNL     1      24.027   1.755  52.049  1.00  0.00     0.078 A 
HETATM   13  C8  UNL     1      23.953   2.646  53.095  1.00  0.00     0.039 A 
HETATM   14  C9  UNL     1      24.041   3.992  52.806  1.00  0.00     0.032 A 
HETATM   15  C10 UNL     1      24.199   4.379  51.497  1.00  0.00     0.036 A 
HETATM   16  C12 UNL     1      24.276   3.497  50.434  1.00  0.00     0.032 A 
HETATM   17  C13 UNL     1      24.187   2.147  50.733  1.00  0.00     0.039 A 
BRANCH  15  18
HETATM   18  N3  UNL     1      24.283   5.802  51.278  1.00  0.00    -0.307 N 
HETATM   19  C11 UNL     1      23.012   6.377  51.056  1.00  0.00     0.348 C 
HETATM   20  O3  UNL     1      22.043   5.561  51.088  1.00  0.00    -0.245 OA
HETATM   21  N4  UNL     1      22.793   7.762  50.812  1.00  0.00    -0.173 N 
HETATM   22  F1  UNL     1      21.561   8.282  50.603  1.00  0.00    -0.097 F 
HETATM   23  H9  UNL     1      23.633   8.414  50.793  1.00  0.00     0.204 HD
HETATM   24  H8  UNL     1      25.115   6.462  51.257  1.00  0.00     0.170 HD
ENDBRANCH  15  18
ENDBRANCH  11  12
ENDBRANCH   7  11
BRANCH  10  25
HETATM   25  O4  UNL     1      19.392   0.824  50.268  1.00  0.00    -0.353 OA
HETATM   26  C17 UNL     1      20.117   1.645  49.389  1.00  0.00     0.210 C 
ENDBRANCH  10  25
BRANCH   1  27
HETATM   27  O1  UNL     1      17.717  -0.340  52.048  1.00  0.00    -0.353 OA
HETATM   28  C1  UNL     1      16.753  -1.016  52.799  1.00  0.00     0.210 C 
ENDBRANCH   1  27
TORSDOF 5
ENDMDL
MODEL 6
REMARK VINA RESULT:      -7.2      3.645      4.483
REMARK  5 active torsions:
REMARK  status: ('A' for Active; 'I' for Inactive)
REMARK    1  A    between atoms: O1_2  and  C2_3 
REMARK    2  A    between atoms: C6_9  and  O2_10 
REMARK    3  A    between atoms: O2_10  and  C7_11 
REMARK    4  A    between atoms: C10_14  and  N3_15 
REMARK       I    between atoms: N3_15  and  C11_16 
REMARK       I    between atoms: C11_16  and  N4_18 
REMARK    5  A    between atoms: C16_24  and  O4_25 
ROOT
HETATM    1  C2  UNL     1      27.232  -0.266  53.614  1.00  0.00     0.103 A 
HETATM    2  C3  UNL     1      25.969  -0.840  53.760  1.00  0.00     0.072 A 
HETATM    3  C4  UNL     1      24.814  -0.114  53.521  1.00  0.00     0.075 A 
HETATM    4  N1  UNL     1      23.595  -0.659  53.660  1.00  0.00    -0.241 NA
HETATM    5  C5  UNL     1      22.476   0.074  53.420  1.00  0.00     0.236 A 
HETATM    6  N2  UNL     1      22.590   1.361  53.039  1.00  0.00    -0.217 NA
HETATM    7  C6  UNL     1      23.791   1.950  52.888  1.00  0.00     0.183 A 
HETATM    8  C14 UNL     1      24.931   1.210  53.130  1.00  0.00     0.049 A 
HETATM    9  C15 UNL     1      26.192   1.734  52.998  1.00  0.00     0.057 A 
HETATM   10  C16 UNL     1      27.368   1.050  53.224  1.00  0.00     0.102 A 
ENDROOT
BRANCH   7  11
HETATM   11  O2  UNL     1      23.976   3.264  52.500  1.00  0.00    -0.291 OA
BRANCH  11  12
HETATM   12  C7  UNL     1      23.690   3.748  51.227  1.00  0.00     0.078 A 
HETATM   13  C8  UNL     1      24.573   3.623  50.179  1.00  0.00     0.039 A 
HETATM   14  C9  UNL     1      24.200   4.134  48.954  1.00  0.00     0.032 A 
HETATM   15  C10 UNL     1      22.973   4.741  48.835  1.00  0.00     0.036 A 
HETATM   16  C12 UNL     1      22.073   4.876  49.878  1.00  0.00     0.032 A 
HETATM   17  C13 UNL     1      22.455   4.359  51.105  1.00  0.00     0.039 A 
BRANCH  15  18
HETATM   18  N3  UNL     1      22.657   5.250  47.523  1.00  0.00    -0.307 N 
HETATM   19  C11 UNL     1      22.153   4.240  46.674  1.00  0.00     0.348 C 
HETATM   20  O3  UNL     1      22.067   3.091  47.202  1.00  0.00    -0.245 OA
HETATM   21  N4  UNL     1      21.758   4.454  45.323  1.00  0.00    -0.173 N 
HETATM   22  F1  UNL     1      21.277   3.463  44.535  1.00  0.00    -0.097 F 
HETATM   23  H9  UNL     1      21.845   5.432  44.917  1.00  0.00     0.204 HD
HETATM   24  H8  UNL     1      22.740   6.224  47.108  1.00  0.00     0.170 HD
ENDBRANCH  15  18
ENDBRANCH  11  12
ENDBRANCH   7  11
BRANCH  10  25
HETATM   25  O4  UNL     1      28.629   1.579  53.091  1.00  0.00    -0.353 OA
HETATM   26  C17 UNL     1      29.296   2.278  54.111  1.00  0.00     0.210 C 
ENDBRANCH  10  25
BRANCH   1  27
HETATM   27  O1  UNL     1      28.371  -1.005  53.856  1.00  0.00    -0.353 OA
HETATM   28  C1  UNL     1      28.881  -1.998  53.018  1.00  0.00     0.210 C 
ENDBRANCH   1  27
TORSDOF 5
ENDMDL
MODEL 7
REMARK VINA RESULT:      -7.2      4.357      7.932
REMARK  5 active torsions:
REMARK  status: ('A' for Active; 'I' for Inactive)
REMARK    1  A    between atoms: O1_2  and  C2_3 
REMARK    2  A    between atoms: C6_9  and  O2_10 
REMARK    3  A    between atoms: O2_10  and  C7_11 
REMARK    4  A    between atoms: C10_14  and  N3_15 
REMARK       I    between atoms: N3_15  and  C11_16 
REMARK       I    between atoms: C11_16  and  N4_18 
REMARK    5  A    between atoms: C16_24  and  O4_25 
ROOT
HETATM    1  C2  UNL     1      23.080   5.988  48.588  1.00  0.00     0.103 A 
HETATM    2  C3  UNL     1      22.695   4.847  47.885  1.00  0.00     0.072 A 
HETATM    3  C4  UNL     1      22.460   3.645  48.532  1.00  0.00     0.075 A 
HETATM    4  N1  UNL     1      22.090   2.543  47.861  1.00  0.00    -0.241 NA
HETATM    5  C5  UNL     1      21.865   1.374  48.519  1.00  0.00     0.236 A 
HETATM    6  N2  UNL     1      22.017   1.321  49.856  1.00  0.00    -0.217 NA
HETATM    7  C6  UNL     1      22.387   2.401  50.569  1.00  0.00     0.183 A 
HETATM    8  C14 UNL     1      22.616   3.590  49.907  1.00  0.00     0.049 A 
HETATM    9  C15 UNL     1      22.995   4.735  50.559  1.00  0.00     0.057 A 
HETATM   10  C16 UNL     1      23.239   5.953  49.958  1.00  0.00     0.102 A 
ENDROOT
BRANCH   7  11
HETATM   11  O2  UNL     1      22.558   2.412  51.941  1.00  0.00    -0.291 OA
BRANCH  11  12
HETATM   12  C7  UNL     1      23.582   1.741  52.604  1.00  0.00     0.078 A 
HETATM   13  C8  UNL     1      23.560   0.379  52.800  1.00  0.00     0.039 A 
HETATM   14  C9  UNL     1      24.620  -0.195  53.468  1.00  0.00     0.032 A 
HETATM   15  C10 UNL     1      25.645   0.611  53.904  1.00  0.00     0.036 A 
HETATM   16  C12 UNL     1      25.683   1.981  53.714  1.00  0.00     0.032 A 
HETATM   17  C13 UNL     1      24.614   2.551  53.042  1.00  0.00     0.039 A 
BRANCH  15  18
HETATM   18  N3  UNL     1      26.716  -0.066  54.593  1.00  0.00    -0.307 N 
HETATM   19  C11 UNL     1      27.799  -0.350  53.732  1.00  0.00     0.348 C 
HETATM   20  O3  UNL     1      27.643   0.031  52.533  1.00  0.00    -0.245 OA
HETATM   21  N4  UNL     1      28.992  -1.011  54.140  1.00  0.00    -0.173 N 
HETATM   22  F1  UNL     1      30.013  -1.268  53.288  1.00  0.00    -0.097 F 
HETATM   23  H9  UNL     1      29.084  -1.314  55.154  1.00  0.00     0.204 HD
HETATM   24  H8  UNL     1      26.817  -0.373  55.604  1.00  0.00     0.170 HD
ENDBRANCH  15  18
ENDBRANCH  11  12
ENDBRANCH   7  11
BRANCH  10  25
HETATM   25  O4  UNL     1      23.619   7.098  50.616  1.00  0.00    -0.353 OA
HETATM   26  C17 UNL     1      24.957   7.484  50.805  1.00  0.00     0.210 C 
ENDBRANCH  10  25
BRANCH   1  27
HETATM   27  O1  UNL     1      23.310   7.177  47.928  1.00  0.00    -0.353 OA
HETATM   28  C1  UNL     1      24.435   7.464  47.153  1.00  0.00     0.210 C 
ENDBRANCH   1  27
TORSDOF 5
ENDMDL
MODEL 8
REMARK VINA RESULT:      -7.1      2.821      3.782
REMARK  5 active torsions:
REMARK  status: ('A' for Active; 'I' for Inactive)
REMARK    1  A    between atoms: O1_2  and  C2_3 
REMARK    2  A    between atoms: C6_9  and  O2_10 
REMARK    3  A    between atoms: O2_10  and  C7_11 
REMARK    4  A    between atoms: C10_14  and  N3_15 
REMARK       I    between atoms: N3_15  and  C11_16 
REMARK       I    between atoms: C11_16  and  N4_18 
REMARK    5  A    between atoms: C16_24  and  O4_25 
ROOT
HETATM    1  C2  UNL     1      27.166   1.763  52.727  1.00  0.00     0.103 A 
HETATM    2  C3  UNL     1      26.593   0.855  53.618  1.00  0.00     0.072 A 
HETATM    3  C4  UNL     1      25.276   0.448  53.487  1.00  0.00     0.075 A 
HETATM    4  N1  UNL     1      24.719  -0.425  54.341  1.00  0.00    -0.241 NA
HETATM    5  C5  UNL     1      23.422  -0.809  54.192  1.00  0.00     0.236 A 
HETATM    6  N2  UNL     1      22.690  -0.308  53.179  1.00  0.00    -0.217 NA
HETATM    7  C6  UNL     1      23.207   0.570  52.299  1.00  0.00     0.183 A 
HETATM    8  C14 UNL     1      24.522   0.963  52.445  1.00  0.00     0.049 A 
HETATM    9  C15 UNL     1      25.125   1.853  51.593  1.00  0.00     0.057 A 
HETATM   10  C16 UNL     1      26.432   2.286  51.684  1.00  0.00     0.102 A 
ENDROOT
BRANCH   7  11
HETATM   11  O2  UNL     1      22.510   1.119  51.239  1.00  0.00    -0.291 OA
BRANCH  11  12
HETATM   12  C7  UNL     1      21.260   1.719  51.357  1.00  0.00     0.078 A 
HETATM   13  C8  UNL     1      21.106   3.011  51.806  1.00  0.00     0.039 A 
HETATM   14  C9  UNL     1      19.826   3.519  51.889  1.00  0.00     0.032 A 
HETATM   15  C10 UNL     1      18.771   2.719  51.522  1.00  0.00     0.036 A 
HETATM   16  C12 UNL     1      18.908   1.419  51.068  1.00  0.00     0.032 A 
HETATM   17  C13 UNL     1      20.197   0.916  50.988  1.00  0.00     0.039 A 
BRANCH  15  18
HETATM   18  N3  UNL     1      17.466   3.323  51.636  1.00  0.00    -0.307 N 
HETATM   19  C11 UNL     1      17.041   3.893  50.416  1.00  0.00     0.348 C 
HETATM   20  O3  UNL     1      17.860   3.776  49.456  1.00  0.00    -0.245 OA
HETATM   21  N4  UNL     1      15.794   4.555  50.235  1.00  0.00    -0.173 N 
HETATM   22  F1  UNL     1      15.415   5.091  49.050  1.00  0.00    -0.097 F 
HETATM   23  H9  UNL     1      15.134   4.632  51.064  1.00  0.00     0.204 HD
HETATM   24  H8  UNL     1      16.800   3.405  52.459  1.00  0.00     0.170 HD
ENDBRANCH  15  18
ENDBRANCH  11  12
ENDBRANCH   7  11
BRANCH  10  25
HETATM   25  O4  UNL     1      27.031   3.177  50.826  1.00  0.00    -0.353 OA
HETATM   26  C17 UNL     1      26.394   3.730  49.702  1.00  0.00     0.210 C 
ENDBRANCH  10  25
BRANCH   1  27
HETATM   27  O1  UNL     1      28.480   2.157  52.873  1.00  0.00    -0.353 OA
HETATM   28  C1  UNL     1      29.261   1.951  54.011  1.00  0.00     0.210 C 
ENDBRANCH   1  27
TORSDOF 5
ENDMDL
MODEL 9
REMARK VINA RESULT:      -7.0      4.547      8.113
REMARK  5 active torsions:
REMARK  status: ('A' for Active; 'I' for Inactive)
REMARK    1  A    between atoms: O1_2  and  C2_3 
REMARK    2  A    between atoms: C6_9  and  O2_10 
REMARK    3  A    between atoms: O2_10  and  C7_11 
REMARK    4  A    between atoms: C10_14  and  N3_15 
REMARK       I    between atoms: N3_15  and  C11_16 
REMARK       I    between atoms: C11_16  and  N4_18 
REMARK    5  A    between atoms: C16_24  and  O4_25 
ROOT
HETATM    1  C2  UNL     1      17.310  -0.753  52.520  1.00  0.00     0.103 A 
HETATM    2  C3  UNL     1      18.206  -1.326  53.422  1.00  0.00     0.072 A 
HETATM    3  C4  UNL     1      19.560  -1.036  53.377  1.00  0.00     0.075 A 
HETATM    4  N1  UNL     1      20.428  -1.584  54.243  1.00  0.00    -0.241 NA
HETATM    5  C5  UNL     1      21.753  -1.284  54.179  1.00  0.00     0.236 A 
HETATM    6  N2  UNL     1      22.199  -0.429  53.238  1.00  0.00    -0.217 NA
HETATM    7  C6  UNL     1      21.365   0.144  52.350  1.00  0.00     0.183 A 
HETATM    8  C14 UNL     1      20.019  -0.157  52.411  1.00  0.00     0.049 A 
HETATM    9  C15 UNL     1      19.103   0.383  51.544  1.00  0.00     0.057 A 
HETATM   10  C16 UNL     1      17.748   0.125  51.551  1.00  0.00     0.102 A 
ENDROOT
BRANCH   7  11
HETATM   11  O2  UNL     1      21.759   1.028  51.363  1.00  0.00    -0.291 OA
BRANCH  11  12
HETATM   12  C7  UNL     1      22.284   2.292  51.614  1.00  0.00     0.078 A 
HETATM   13  C8  UNL     1      21.511   3.327  52.087  1.00  0.00     0.039 A 
HETATM   14  C9  UNL     1      22.121   4.544  52.305  1.00  0.00     0.032 A 
HETATM   15  C10 UNL     1      23.465   4.668  52.043  1.00  0.00     0.036 A 
HETATM   16  C12 UNL     1      24.257   3.638  51.569  1.00  0.00     0.032 A 
HETATM   17  C13 UNL     1      23.636   2.418  51.352  1.00  0.00     0.039 A 
BRANCH  15  18
HETATM   18  N3  UNL     1      24.029   5.971  52.297  1.00  0.00    -0.307 N 
HETATM   19  C11 UNL     1      24.045   6.773  51.135  1.00  0.00     0.348 C 
HETATM   20  O3  UNL     1      23.572   6.221  50.097  1.00  0.00    -0.245 OA
HETATM   21  N4  UNL     1      24.545   8.105  51.090  1.00  0.00    -0.173 N 
HETATM   22  F1  UNL     1      24.546   8.849  49.958  1.00  0.00    -0.097 F 
HETATM   23  H9  UNL     1      24.933   8.533  51.983  1.00  0.00     0.204 HD
HETATM   24  H8  UNL     1      24.419   6.407  53.183  1.00  0.00     0.170 HD
ENDBRANCH  15  18
ENDBRANCH  11  12
ENDBRANCH   7  11
BRANCH  10  25
HETATM   25  O4  UNL     1      16.835   0.670  50.681  1.00  0.00    -0.353 OA
HETATM   26  C17 UNL     1      16.482   0.087  49.452  1.00  0.00     0.210 C 
ENDBRANCH  10  25
BRANCH   1  27
HETATM   27  O1  UNL     1      15.965  -1.053  52.579  1.00  0.00    -0.353 OA
HETATM   28  C1  UNL     1      15.404  -2.298  52.290  1.00  0.00     0.210 C 
ENDBRANCH   1  27
TORSDOF 5
ENDMDL
