MODEL 1
REMARK VINA RESULT:     -10.4      0.000      0.000
REMARK  1 active torsions:
REMARK  status: ('A' for Active; 'I' for Inactive)
REMARK    1  A    between atoms: C4_5  and  C5_6 
ROOT
HETATM    1  C5  UNL     1      25.658   2.850  50.132  1.00  0.00     0.139 C 
HETATM    2  C6  UNL     1      24.370   3.231  50.829  1.00  0.00    -0.001 C 
HETATM    3  C7  UNL     1      23.265   2.699  51.337  1.00  0.00    -0.025 C 
HETATM    4  C8  UNL     1      22.603   1.363  51.538  1.00  0.00     0.053 C 
HETATM    5  C9  UNL     1      22.456   1.148  53.024  1.00  0.00    -0.027 C 
HETATM    6  C10 UNL     1      22.987   0.254  53.815  1.00  0.00    -0.025 C 
HETATM    7  C11 UNL     1      23.900  -0.762  53.217  1.00  0.00     0.082 C 
HETATM    8  C12 UNL     1      25.308  -0.500  53.697  1.00  0.00     0.022 C 
HETATM    9  N1  UNL     1      26.207  -0.499  54.653  1.00  0.00    -0.237 NA
HETATM   10  C13 UNL     1      27.226   0.461  54.313  1.00  0.00     0.161 A 
HETATM   11  N2  UNL     1      28.337   1.142  54.734  1.00  0.00    -0.222 NA
HETATM   12  C14 UNL     1      28.827   2.135  53.926  1.00  0.00     0.237 A 
HETATM   13  N3  UNL     1      28.359   2.570  52.714  1.00  0.00    -0.224 NA
HETATM   14  C15 UNL     1      27.281   1.979  52.196  1.00  0.00     0.136 A 
HETATM   15  C16 UNL     1      26.929   1.023  53.119  1.00  0.00     0.041 A 
HETATM   16  C17 UNL     1      25.957   0.064  52.507  1.00  0.00     0.101 C 
HETATM   17  N4  UNL     1      26.550   2.186  51.034  1.00  0.00    -0.362 N 
HETATM   18  H15 UNL     1      26.984   1.299  50.643  1.00  0.00     0.162 HD
ENDROOT
BRANCH   1  19
HETATM   19  C4  UNL     1      26.285   4.096  49.585  1.00  0.00    -0.032 A 
HETATM   20  C3  UNL     1      25.460   5.176  49.918  1.00  0.00     0.012 A 
HETATM   21  C2  UNL     1      25.817   6.466  49.534  1.00  0.00     0.043 A 
HETATM   22  C1  UNL     1      26.967   6.740  48.828  1.00  0.00     0.116 A 
HETATM   23  F1  UNL     1      27.361   7.956  48.434  1.00  0.00    -0.206 F 
HETATM   24  C19 UNL     1      27.747   5.656  48.523  1.00  0.00     0.043 A 
HETATM   25  C18 UNL     1      27.432   4.376  48.881  1.00  0.00     0.012 A 
ENDBRANCH   1  19
TORSDOF 1
ENDMDL
MODEL 2
REMARK VINA RESULT:      -9.9      3.545      5.815
REMARK  1 active torsions:
REMARK  status: ('A' for Active; 'I' for Inactive)
REMARK    1  A    between atoms: C4_5  and  C5_6 
ROOT
HETATM    1  C5  UNL     1      25.858   0.880  52.102  1.00  0.00     0.139 C 
HETATM    2  C6  UNL     1      25.598   2.346  52.371  1.00  0.00    -0.001 C 
HETATM    3  C7  UNL     1      24.795   3.343  52.016  1.00  0.00    -0.025 C 
HETATM    4  C8  UNL     1      23.627   3.630  51.111  1.00  0.00     0.053 C 
HETATM    5  C9  UNL     1      22.468   4.043  51.985  1.00  0.00    -0.027 C 
HETATM    6  C10 UNL     1      21.310   3.475  52.191  1.00  0.00    -0.025 C 
HETATM    7  C11 UNL     1      21.010   2.204  51.473  1.00  0.00     0.082 C 
HETATM    8  C12 UNL     1      20.972   1.072  52.474  1.00  0.00     0.022 C 
HETATM    9  N1  UNL     1      20.391   0.450  53.473  1.00  0.00    -0.237 NA
HETATM   10  C13 UNL     1      21.394  -0.308  54.177  1.00  0.00     0.161 A 
HETATM   11  N2  UNL     1      21.688  -1.057  55.285  1.00  0.00    -0.222 NA
HETATM   12  C14 UNL     1      22.995  -1.418  55.488  1.00  0.00     0.237 A 
HETATM   13  N3  UNL     1      24.097  -1.134  54.725  1.00  0.00    -0.224 NA
HETATM   14  C15 UNL     1      23.936  -0.412  53.616  1.00  0.00     0.136 A 
HETATM   15  C16 UNL     1      22.589  -0.143  53.565  1.00  0.00     0.041 A 
HETATM   16  C17 UNL     1      22.225   0.357  52.202  1.00  0.00     0.101 C 
HETATM   17  N4  UNL     1      24.820   0.066  52.656  1.00  0.00    -0.362 N 
HETATM   18  H15 UNL     1      24.448  -0.677  51.994  1.00  0.00     0.162 HD
ENDROOT
BRANCH   1  19
HETATM   19  C4  UNL     1      27.188   0.521  52.693  1.00  0.00    -0.032 A 
HETATM   20  C3  UNL     1      27.327  -0.869  52.630  1.00  0.00     0.012 A 
HETATM   21  C2  UNL     1      28.487  -1.473  53.110  1.00  0.00     0.043 A 
HETATM   22  C1  UNL     1      29.528  -0.755  53.654  1.00  0.00     0.116 A 
HETATM   23  F1  UNL     1      30.663  -1.280  54.129  1.00  0.00    -0.206 F 
HETATM   24  C19 UNL     1      29.352   0.603  53.697  1.00  0.00     0.043 A 
HETATM   25  C18 UNL     1      28.230   1.233  53.238  1.00  0.00     0.012 A 
ENDBRANCH   1  19
TORSDOF 1
ENDMDL
MODEL 3
REMARK VINA RESULT:      -9.7      2.960      5.888
REMARK  1 active torsions:
REMARK  status: ('A' for Active; 'I' for Inactive)
REMARK    1  A    between atoms: C4_5  and  C5_6 
ROOT
HETATM    1  C5  UNL     1      25.630   0.705  53.595  1.00  0.00     0.139 C 
HETATM    2  C6  UNL     1      24.551  -0.228  53.093  1.00  0.00    -0.001 C 
HETATM    3  C7  UNL     1      23.230  -0.348  53.019  1.00  0.00    -0.025 C 
HETATM    4  C8  UNL     1      21.973   0.388  53.397  1.00  0.00     0.053 C 
HETATM    5  C9  UNL     1      21.233   0.706  52.121  1.00  0.00    -0.027 C 
HETATM    6  C10 UNL     1      20.940   1.852  51.567  1.00  0.00    -0.025 C 
HETATM    7  C11 UNL     1      21.373   3.100  52.258  1.00  0.00     0.082 C 
HETATM    8  C12 UNL     1      22.458   3.763  51.441  1.00  0.00     0.022 C 
HETATM    9  N1  UNL     1      22.843   4.420  50.373  1.00  0.00    -0.237 NA
HETATM   10  C13 UNL     1      24.247   4.170  50.171  1.00  0.00     0.161 A 
HETATM   11  N2  UNL     1      25.322   4.315  49.335  1.00  0.00    -0.222 NA
HETATM   12  C14 UNL     1      26.484   3.667  49.664  1.00  0.00     0.237 A 
HETATM   13  N3  UNL     1      26.748   2.863  50.743  1.00  0.00    -0.224 NA
HETATM   14  C15 UNL     1      25.777   2.649  51.632  1.00  0.00     0.136 A 
HETATM   15  C16 UNL     1      24.703   3.363  51.156  1.00  0.00     0.041 A 
HETATM   16  C17 UNL     1      23.667   3.492  52.228  1.00  0.00     0.101 C 
HETATM   17  N4  UNL     1      25.700   1.887  52.790  1.00  0.00    -0.362 N 
HETATM   18  H15 UNL     1      25.744   2.791  53.347  1.00  0.00     0.162 HD
ENDROOT
BRANCH   1  19
HETATM   19  C4  UNL     1      26.936  -0.030  53.574  1.00  0.00    -0.032 A 
HETATM   20  C3  UNL     1      27.851   0.693  54.345  1.00  0.00     0.012 A 
HETATM   21  C2  UNL     1      29.153   0.222  54.501  1.00  0.00     0.043 A 
HETATM   22  C1  UNL     1      29.595  -0.946  53.922  1.00  0.00     0.116 A 
HETATM   23  F1  UNL     1      30.830  -1.446  54.037  1.00  0.00    -0.206 F 
HETATM   24  C19 UNL     1      28.668  -1.625  53.176  1.00  0.00     0.043 A 
HETATM   25  C18 UNL     1      27.383  -1.197  52.999  1.00  0.00     0.012 A 
ENDBRANCH   1  19
TORSDOF 1
ENDMDL
MODEL 4
REMARK VINA RESULT:      -8.8      1.773      2.219
REMARK  1 active torsions:
REMARK  status: ('A' for Active; 'I' for Inactive)
REMARK    1  A    between atoms: C4_5  and  C5_6 
ROOT
HETATM    1  C5  UNL     1      23.390   2.378  50.980  1.00  0.00     0.139 C 
HETATM    2  C6  UNL     1      22.244   2.669  51.925  1.00  0.00    -0.001 C 
HETATM    3  C7  UNL     1      21.283   2.062  52.612  1.00  0.00    -0.025 C 
HETATM    4  C8  UNL     1      20.735   0.686  52.879  1.00  0.00     0.053 C 
HETATM    5  C9  UNL     1      20.886   0.416  54.356  1.00  0.00    -0.027 C 
HETATM    6  C10 UNL     1      21.600  -0.473  54.992  1.00  0.00    -0.025 C 
HETATM    7  C11 UNL     1      22.427  -1.419  54.190  1.00  0.00     0.082 C 
HETATM    8  C12 UNL     1      23.888  -1.098  54.403  1.00  0.00     0.022 C 
HETATM    9  N1  UNL     1      24.953  -1.080  55.169  1.00  0.00    -0.237 NA
HETATM   10  C13 UNL     1      25.842  -0.057  54.682  1.00  0.00     0.161 A 
HETATM   11  N2  UNL     1      26.981   0.669  54.912  1.00  0.00    -0.222 NA
HETATM   12  C14 UNL     1      27.260   1.712  54.068  1.00  0.00     0.237 A 
HETATM   13  N3  UNL     1      26.548   2.160  52.986  1.00  0.00    -0.224 NA
HETATM   14  C15 UNL     1      25.419   1.529  52.659  1.00  0.00     0.136 A 
HETATM   15  C16 UNL     1      25.295   0.527  53.591  1.00  0.00     0.041 A 
HETATM   16  C17 UNL     1      24.268  -0.462  53.136  1.00  0.00     0.101 C 
HETATM   17  N4  UNL     1      24.468   1.735  51.667  1.00  0.00    -0.362 N 
HETATM   18  H15 UNL     1      24.860   0.885  51.164  1.00  0.00     0.162 HD
ENDROOT
BRANCH   1  19
HETATM   19  C4  UNL     1      23.842   3.673  50.376  1.00  0.00    -0.032 A 
HETATM   20  C3  UNL     1      23.727   4.668  51.353  1.00  0.00     0.012 A 
HETATM   21  C2  UNL     1      24.093   5.979  51.055  1.00  0.00     0.043 A 
HETATM   22  C1  UNL     1      24.575   6.354  49.821  1.00  0.00     0.116 A 
HETATM   23  F1  UNL     1      24.941   7.594  49.478  1.00  0.00    -0.206 F 
HETATM   24  C19 UNL     1      24.672   5.351  48.893  1.00  0.00     0.043 A 
HETATM   25  C18 UNL     1      24.323   4.054  49.146  1.00  0.00     0.012 A 
ENDBRANCH   1  19
TORSDOF 1
ENDMDL
MODEL 5
REMARK VINA RESULT:      -8.7      3.772      6.166
REMARK  1 active torsions:
REMARK  status: ('A' for Active; 'I' for Inactive)
REMARK    1  A    between atoms: C4_5  and  C5_6 
ROOT
HETATM    1  C5  UNL     1      24.443   1.526  52.131  1.00  0.00     0.139 C 
HETATM    2  C6  UNL     1      23.958   2.897  52.549  1.00  0.00    -0.001 C 
HETATM    3  C7  UNL     1      23.142   3.874  52.168  1.00  0.00    -0.025 C 
HETATM    4  C8  UNL     1      22.180   4.221  51.065  1.00  0.00     0.053 C 
HETATM    5  C9  UNL     1      20.815   4.382  51.688  1.00  0.00    -0.027 C 
HETATM    6  C10 UNL     1      19.715   3.697  51.523  1.00  0.00    -0.025 C 
HETATM    7  C11 UNL     1      19.735   2.550  50.571  1.00  0.00     0.082 C 
HETATM    8  C12 UNL     1      19.609   1.261  51.350  1.00  0.00     0.022 C 
HETATM    9  N1  UNL     1      18.898   0.430  52.075  1.00  0.00    -0.237 NA
HETATM   10  C13 UNL     1      19.801  -0.357  52.875  1.00  0.00     0.161 A 
HETATM   11  N2  UNL     1      19.928  -1.262  53.895  1.00  0.00    -0.222 NA
HETATM   12  C14 UNL     1      21.189  -1.548  54.348  1.00  0.00     0.237 A 
HETATM   13  N3  UNL     1      22.393  -1.049  53.922  1.00  0.00    -0.224 NA
HETATM   14  C15 UNL     1      22.398  -0.159  52.928  1.00  0.00     0.136 A 
HETATM   15  C16 UNL     1      21.074   0.007  52.599  1.00  0.00     0.041 A 
HETATM   16  C17 UNL     1      20.965   0.706  51.281  1.00  0.00     0.101 C 
HETATM   17  N4  UNL     1      23.410   0.548  52.291  1.00  0.00    -0.362 N 
HETATM   18  H15 UNL     1      23.285  -0.095  51.454  1.00  0.00     0.162 HD
ENDROOT
BRANCH   1  19
HETATM   19  C4  UNL     1      25.640   1.176  52.962  1.00  0.00    -0.032 A 
HETATM   20  C3  UNL     1      26.704   1.985  52.548  1.00  0.00     0.012 A 
HETATM   21  C2  UNL     1      27.946   1.869  53.167  1.00  0.00     0.043 A 
HETATM   22  C1  UNL     1      28.186   0.981  54.191  1.00  0.00     0.116 A 
HETATM   23  F1  UNL     1      29.355   0.827  54.822  1.00  0.00    -0.206 F 
HETATM   24  C19 UNL     1      27.119   0.208  54.567  1.00  0.00     0.043 A 
HETATM   25  C18 UNL     1      25.886   0.291  53.984  1.00  0.00     0.012 A 
ENDBRANCH   1  19
TORSDOF 1
ENDMDL
MODEL 6
REMARK VINA RESULT:      -8.6      2.284      4.268
REMARK  1 active torsions:
REMARK  status: ('A' for Active; 'I' for Inactive)
REMARK    1  A    between atoms: C4_5  and  C5_6 
ROOT
HETATM    1  C5  UNL     1      24.940   3.925  51.100  1.00  0.00     0.139 C 
HETATM    2  C6  UNL     1      26.013   2.936  50.701  1.00  0.00    -0.001 C 
HETATM    3  C7  UNL     1      26.792   1.986  51.206  1.00  0.00    -0.025 C 
HETATM    4  C8  UNL     1      27.090   1.297  52.510  1.00  0.00     0.053 C 
HETATM    5  C9  UNL     1      26.747  -0.163  52.340  1.00  0.00    -0.027 C 
HETATM    6  C10 UNL     1      25.841  -0.901  52.924  1.00  0.00    -0.025 C 
HETATM    7  C11 UNL     1      24.965  -0.263  53.947  1.00  0.00     0.082 C 
HETATM    8  C12 UNL     1      23.557  -0.177  53.404  1.00  0.00     0.022 C 
HETATM    9  N1  UNL     1      22.434  -0.753  53.045  1.00  0.00    -0.237 NA
HETATM   10  C13 UNL     1      21.770   0.103  52.096  1.00  0.00     0.161 A 
HETATM   11  N2  UNL     1      20.741   0.233  51.202  1.00  0.00    -0.222 NA
HETATM   12  C14 UNL     1      20.717   1.349  50.408  1.00  0.00     0.237 A 
HETATM   13  N3  UNL     1      21.597   2.399  50.367  1.00  0.00    -0.224 NA
HETATM   14  C15 UNL     1      22.642   2.388  51.196  1.00  0.00     0.136 A 
HETATM   15  C16 UNL     1      22.511   1.220  51.909  1.00  0.00     0.041 A 
HETATM   16  C17 UNL     1      23.413   1.252  53.102  1.00  0.00     0.101 C 
HETATM   17  N4  UNL     1      23.709   3.254  51.391  1.00  0.00    -0.362 N 
HETATM   18  H15 UNL     1      23.244   3.570  52.293  1.00  0.00     0.162 HD
ENDROOT
BRANCH   1  19
HETATM   19  C4  UNL     1      24.760   4.902  49.978  1.00  0.00    -0.032 A 
HETATM   20  C3  UNL     1      26.023   5.383  49.617  1.00  0.00     0.012 A 
HETATM   21  C2  UNL     1      26.144   6.308  48.583  1.00  0.00     0.043 A 
HETATM   22  C1  UNL     1      25.060   6.784  47.880  1.00  0.00     0.116 A 
HETATM   23  F1  UNL     1      25.116   7.670  46.880  1.00  0.00    -0.206 F 
HETATM   24  C19 UNL     1      23.842   6.288  48.264  1.00  0.00     0.043 A 
HETATM   25  C18 UNL     1      23.681   5.381  49.272  1.00  0.00     0.012 A 
ENDBRANCH   1  19
TORSDOF 1
ENDMDL
MODEL 7
REMARK VINA RESULT:      -8.6      1.690      2.540
REMARK  1 active torsions:
REMARK  status: ('A' for Active; 'I' for Inactive)
REMARK    1  A    between atoms: C4_5  and  C5_6 
ROOT
HETATM    1  C5  UNL     1      25.480   4.430  49.185  1.00  0.00     0.139 C 
HETATM    2  C6  UNL     1      24.535   5.391  49.872  1.00  0.00    -0.001 C 
HETATM    3  C7  UNL     1      23.271   5.507  50.263  1.00  0.00    -0.025 C 
HETATM    4  C8  UNL     1      21.978   4.736  50.264  1.00  0.00     0.053 C 
HETATM    5  C9  UNL     1      21.586   4.510  51.703  1.00  0.00    -0.027 C 
HETATM    6  C10 UNL     1      21.469   3.407  52.393  1.00  0.00    -0.025 C 
HETATM    7  C11 UNL     1      21.749   2.114  51.707  1.00  0.00     0.082 C 
HETATM    8  C12 UNL     1      23.019   1.522  52.273  1.00  0.00     0.022 C 
HETATM    9  N1  UNL     1      23.673   0.951  53.257  1.00  0.00    -0.237 NA
HETATM   10  C13 UNL     1      25.077   1.224  53.084  1.00  0.00     0.161 A 
HETATM   11  N2  UNL     1      26.329   1.151  53.634  1.00  0.00    -0.222 NA
HETATM   12  C14 UNL     1      27.356   1.780  52.980  1.00  0.00     0.237 A 
HETATM   13  N3  UNL     1      27.324   2.502  51.816  1.00  0.00    -0.224 NA
HETATM   14  C15 UNL     1      26.158   2.641  51.184  1.00  0.00     0.136 A 
HETATM   15  C16 UNL     1      25.254   1.958  51.961  1.00  0.00     0.041 A 
HETATM   16  C17 UNL     1      23.988   1.742  51.193  1.00  0.00     0.101 C 
HETATM   17  N4  UNL     1      25.777   3.313  50.029  1.00  0.00    -0.362 N 
HETATM   18  H15 UNL     1      25.705   2.370  49.545  1.00  0.00     0.162 HD
ENDROOT
BRANCH   1  19
HETATM   19  C4  UNL     1      26.731   5.174  48.828  1.00  0.00    -0.032 A 
HETATM   20  C3  UNL     1      26.428   6.539  48.798  1.00  0.00     0.012 A 
HETATM   21  C2  UNL     1      27.424   7.465  48.497  1.00  0.00     0.043 A 
HETATM   22  C1  UNL     1      28.722   7.098  48.223  1.00  0.00     0.116 A 
HETATM   23  F1  UNL     1      29.718   7.941  47.929  1.00  0.00    -0.206 F 
HETATM   24  C19 UNL     1      28.978   5.753  48.263  1.00  0.00     0.043 A 
HETATM   25  C18 UNL     1      28.029   4.813  48.553  1.00  0.00     0.012 A 
ENDBRANCH   1  19
TORSDOF 1
ENDMDL
MODEL 8
REMARK VINA RESULT:      -8.4      2.795      4.796
REMARK  1 active torsions:
REMARK  status: ('A' for Active; 'I' for Inactive)
REMARK    1  A    between atoms: C4_5  and  C5_6 
ROOT
HETATM    1  C5  UNL     1      24.654   3.193  51.447  1.00  0.00     0.139 C 
HETATM    2  C6  UNL     1      25.214   1.807  51.679  1.00  0.00    -0.001 C 
HETATM    3  C7  UNL     1      25.112   0.768  52.499  1.00  0.00    -0.025 C 
HETATM    4  C8  UNL     1      24.361   0.322  53.725  1.00  0.00     0.053 C 
HETATM    5  C9  UNL     1      23.552  -0.893  53.344  1.00  0.00    -0.027 C 
HETATM    6  C10 UNL     1      22.259  -1.079  53.302  1.00  0.00    -0.025 C 
HETATM    7  C11 UNL     1      21.371   0.054  53.687  1.00  0.00     0.082 C 
HETATM    8  C12 UNL     1      20.648   0.551  52.456  1.00  0.00     0.022 C 
HETATM    9  N1  UNL     1      19.749   0.385  51.515  1.00  0.00    -0.237 NA
HETATM   10  C13 UNL     1      20.121   1.199  50.387  1.00  0.00     0.161 A 
HETATM   11  N2  UNL     1      19.876   1.513  49.076  1.00  0.00    -0.222 NA
HETATM   12  C14 UNL     1      20.755   2.349  48.440  1.00  0.00     0.237 A 
HETATM   13  N3  UNL     1      21.889   2.944  48.930  1.00  0.00    -0.224 NA
HETATM   14  C15 UNL     1      22.231   2.716  50.199  1.00  0.00     0.136 A 
HETATM   15  C16 UNL     1      21.255   1.875  50.680  1.00  0.00     0.041 A 
HETATM   16  C17 UNL     1      21.325   1.822  52.173  1.00  0.00     0.101 C 
HETATM   17  N4  UNL     1      23.301   3.127  50.983  1.00  0.00    -0.362 N 
HETATM   18  H15 UNL     1      22.636   3.787  51.484  1.00  0.00     0.162 HD
ENDROOT
BRANCH   1  19
HETATM   19  C4  UNL     1      25.525   3.892  50.447  1.00  0.00    -0.032 A 
HETATM   20  C3  UNL     1      24.997   5.169  50.233  1.00  0.00     0.012 A 
HETATM   21  C2  UNL     1      25.625   6.040  49.346  1.00  0.00     0.043 A 
HETATM   22  C1  UNL     1      26.766   5.702  48.654  1.00  0.00     0.116 A 
HETATM   23  F1  UNL     1      27.412   6.495  47.792  1.00  0.00    -0.206 F 
HETATM   24  C19 UNL     1      27.251   4.443  48.892  1.00  0.00     0.043 A 
HETATM   25  C18 UNL     1      26.664   3.559  49.754  1.00  0.00     0.012 A 
ENDBRANCH   1  19
TORSDOF 1
ENDMDL
MODEL 9
REMARK VINA RESULT:      -8.1      6.749      9.415
REMARK  1 active torsions:
REMARK  status: ('A' for Active; 'I' for Inactive)
REMARK    1  A    between atoms: C4_5  and  C5_6 
ROOT
HETATM    1  C5  UNL     1      31.173   6.144  49.009  1.00  0.00     0.139 C 
HETATM    2  C6  UNL     1      30.057   5.693  48.093  1.00  0.00    -0.001 C 
HETATM    3  C7  UNL     1      28.733   5.691  47.988  1.00  0.00    -0.025 C 
HETATM    4  C8  UNL     1      27.506   6.146  48.732  1.00  0.00     0.053 C 
HETATM    5  C9  UNL     1      26.793   7.149  47.860  1.00  0.00    -0.027 C 
HETATM    6  C10 UNL     1      26.557   8.422  48.041  1.00  0.00    -0.025 C 
HETATM    7  C11 UNL     1      27.040   9.056  49.300  1.00  0.00     0.082 C 
HETATM    8  C12 UNL     1      28.161  10.014  48.969  1.00  0.00     0.022 C 
HETATM    9  N1  UNL     1      28.584  11.137  48.438  1.00  0.00    -0.237 NA
HETATM   10  C13 UNL     1      29.978  10.982  48.107  1.00  0.00     0.161 A 
HETATM   11  N2  UNL     1      31.066  11.520  47.473  1.00  0.00    -0.222 NA
HETATM   12  C14 UNL     1      32.194  10.750  47.367  1.00  0.00     0.237 A 
HETATM   13  N3  UNL     1      32.412   9.472  47.813  1.00  0.00    -0.224 NA
HETATM   14  C15 UNL     1      31.424   8.843  48.451  1.00  0.00     0.136 A 
HETATM   15  C16 UNL     1      30.388   9.745  48.471  1.00  0.00     0.041 A 
HETATM   16  C17 UNL     1      29.349   9.301  49.452  1.00  0.00     0.101 C 
HETATM   17  N4  UNL     1      31.303   7.570  48.994  1.00  0.00    -0.362 N 
HETATM   18  H15 UNL     1      31.382   8.010  49.958  1.00  0.00     0.162 HD
ENDROOT
BRANCH   1  19
HETATM   19  C4  UNL     1      32.444   5.490  48.560  1.00  0.00    -0.032 A 
HETATM   20  C3  UNL     1      32.106   4.357  47.814  1.00  0.00     0.012 A 
HETATM   21  C2  UNL     1      33.110   3.561  47.265  1.00  0.00     0.043 A 
HETATM   22  C1  UNL     1      34.448   3.841  47.422  1.00  0.00     0.116 A 
HETATM   23  F1  UNL     1      35.454   3.116  46.919  1.00  0.00    -0.206 F 
HETATM   24  C19 UNL     1      34.737   4.959  48.159  1.00  0.00     0.043 A 
HETATM   25  C18 UNL     1      33.783   5.764  48.714  1.00  0.00     0.012 A 
ENDBRANCH   1  19
TORSDOF 1
ENDMDL
