MODEL 1
REMARK VINA RESULT:      -6.8      0.000      0.000
REMARK  8 active torsions:
REMARK  status: ('A' for Active; 'I' for Inactive)
REMARK    1  A    between atoms: C3_3  and  N1_4 
REMARK    2  A    between atoms: C3_3  and  C11_16 
REMARK    3  A    between atoms: N1_4  and  C4_5 
REMARK    4  A    between atoms: C4_5  and  N2_7 
REMARK    5  A    between atoms: N2_7  and  C5_8 
REMARK    6  A    between atoms: C5_8  and  C6_9 
REMARK    7  A    between atoms: C6_9  and  N3_10 
REMARK    8  A    between atoms: C15_21  and  N5_22 
ROOT
HETATM    1  C1  UNL     1      26.884   4.131  49.446  1.00  0.00     0.038 C 
HETATM    2  C2  UNL     1      26.089   2.914  49.802  1.00  0.00    -0.006 C 
HETATM    3  C3  UNL     1      25.106   3.291  50.569  1.00  0.00     0.015 C 
ENDROOT
BRANCH   3   4
HETATM    4  N1  UNL     1      25.117   4.718  50.811  1.00  0.00    -0.337 N 
HETATM    5  H5  UNL     1      25.934   5.229  51.213  1.00  0.00     0.168 HD
BRANCH   4   6
HETATM    6  C4  UNL     1      23.986   5.537  50.505  1.00  0.00     0.172 C 
HETATM    7  S1  UNL     1      23.746   5.935  48.941  1.00  0.00    -0.041 SA
BRANCH   6   8
HETATM    8  N2  UNL     1      23.069   6.014  51.482  1.00  0.00    -0.365 N 
HETATM    9  H6  UNL     1      23.402   6.310  52.406  1.00  0.00     0.161 HD
BRANCH   8  10
HETATM   10  C5  UNL     1      21.626   6.107  51.222  1.00  0.00     0.152 C 
BRANCH  10  11
HETATM   11  C6  UNL     1      20.982   4.748  51.353  1.00  0.00     0.292 C 
BRANCH  11  12
HETATM   12  N3  UNL     1      20.560   4.244  50.074  1.00  0.00     0.094 N 
HETATM   13  C7  UNL     1      19.886   5.251  49.312  1.00  0.00     0.298 C 
HETATM   14  C8  UNL     1      18.384   5.007  49.279  1.00  0.00     0.198 C 
HETATM   15  O1  UNL     1      17.990   4.744  50.605  1.00  0.00    -0.388 OA
HETATM   16  C9  UNL     1      18.421   3.478  50.994  1.00  0.00     0.198 C 
HETATM   17  C10 UNL     1      19.679   3.100  50.230  1.00  0.00     0.298 C 
ENDBRANCH  11  12
ENDBRANCH  10  11
ENDBRANCH   8  10
ENDBRANCH   6   8
ENDBRANCH   4   6
ENDBRANCH   3   4
BRANCH   3  18
HETATM   18  C11 UNL     1      23.941   2.772  51.309  1.00  0.00     0.084 C 
HETATM   19  C12 UNL     1      23.130   1.793  50.533  1.00  0.00     0.162 C 
HETATM   20  N4  UNL     1      22.584   0.902  51.500  1.00  0.00    -0.296 NA
HETATM   21  C13 UNL     1      23.155   1.034  52.628  1.00  0.00     0.026 C 
HETATM   22  C14 UNL     1      22.835   0.254  53.880  1.00  0.00     0.067 C 
HETATM   23  C15 UNL     1      24.224   2.088  52.588  1.00  0.00     0.147 C 
BRANCH  23  24
HETATM   24  N5  UNL     1      25.473   1.392  52.695  1.00  0.00    -0.354 N 
HETATM   25  C16 UNL     1      25.635   0.061  52.233  1.00  0.00     0.090 A 
HETATM   26  C17 UNL     1      26.840  -0.457  52.407  1.00  0.00     0.033 A 
HETATM   27  C18 UNL     1      28.050   0.138  53.011  1.00  0.00     0.240 A 
HETATM   28  F1  UNL     1      28.347  -0.581  54.169  1.00  0.00    -0.239 F 
HETATM   29  C19 UNL     1      27.740   1.508  53.441  1.00  0.00     0.065 A 
HETATM   30 CL1  UNL     1      29.092   2.320  54.175  1.00  0.00    -0.084 Cl
HETATM   31  C20 UNL     1      26.569   2.107  53.309  1.00  0.00     0.114 A 
ENDBRANCH  23  24
ENDBRANCH   3  18
TORSDOF 8
ENDMDL
MODEL 2
REMARK VINA RESULT:      -6.8      3.097      4.621
REMARK  8 active torsions:
REMARK  status: ('A' for Active; 'I' for Inactive)
REMARK    1  A    between atoms: C3_3  and  N1_4 
REMARK    2  A    between atoms: C3_3  and  C11_16 
REMARK    3  A    between atoms: N1_4  and  C4_5 
REMARK    4  A    between atoms: C4_5  and  N2_7 
REMARK    5  A    between atoms: N2_7  and  C5_8 
REMARK    6  A    between atoms: C5_8  and  C6_9 
REMARK    7  A    between atoms: C6_9  and  N3_10 
REMARK    8  A    between atoms: C15_21  and  N5_22 
ROOT
HETATM    1  C1  UNL     1      25.837   4.267  49.820  1.00  0.00     0.038 C 
HETATM    2  C2  UNL     1      25.003   3.031  49.955  1.00  0.00    -0.006 C 
HETATM    3  C3  UNL     1      24.336   3.122  51.071  1.00  0.00     0.015 C 
ENDROOT
BRANCH   3   4
HETATM    4  N1  UNL     1      24.620   4.351  51.781  1.00  0.00    -0.337 N 
HETATM    5  H5  UNL     1      25.427   4.466  52.434  1.00  0.00     0.168 HD
BRANCH   4   6
HETATM    6  C4  UNL     1      23.799   5.510  51.627  1.00  0.00     0.172 C 
HETATM    7  S1  UNL     1      22.235   5.276  51.221  1.00  0.00    -0.041 SA
BRANCH   6   8
HETATM    8  N2  UNL     1      24.268   6.840  51.807  1.00  0.00    -0.365 N 
HETATM    9  H6  UNL     1      24.524   7.178  52.742  1.00  0.00     0.161 HD
BRANCH   8  10
HETATM   10  C5  UNL     1      24.409   7.780  50.687  1.00  0.00     0.152 C 
BRANCH  10  11
HETATM   11  C6  UNL     1      25.856   7.887  50.272  1.00  0.00     0.292 C 
BRANCH  11  12
HETATM   12  N3  UNL     1      26.235   9.254  50.041  1.00  0.00     0.094 N 
HETATM   13  C7  UNL     1      25.698   9.745  48.808  1.00  0.00     0.298 C 
HETATM   14  C8  UNL     1      26.774   9.851  47.739  1.00  0.00     0.198 C 
HETATM   15  O1  UNL     1      27.487   8.637  47.764  1.00  0.00    -0.388 OA
HETATM   16  C9  UNL     1      28.293   8.574  48.898  1.00  0.00     0.198 C 
HETATM   17  C10 UNL     1      27.679   9.397  50.018  1.00  0.00     0.298 C 
ENDBRANCH  11  12
ENDBRANCH  10  11
ENDBRANCH   8  10
ENDBRANCH   6   8
ENDBRANCH   4   6
ENDBRANCH   3   4
BRANCH   3  18
HETATM   18  C11 UNL     1      23.358   2.399  51.904  1.00  0.00     0.084 C 
HETATM   19  C12 UNL     1      22.569   1.382  51.154  1.00  0.00     0.162 C 
HETATM   20  N4  UNL     1      22.277   0.357  52.096  1.00  0.00    -0.296 NA
HETATM   21  C13 UNL     1      22.981   0.478  53.148  1.00  0.00     0.026 C 
HETATM   22  C14 UNL     1      22.937  -0.429  54.352  1.00  0.00     0.067 C 
HETATM   23  C15 UNL     1      23.898   1.664  53.067  1.00  0.00     0.147 C 
BRANCH  23  24
HETATM   24  N5  UNL     1      25.225   1.133  52.945  1.00  0.00    -0.354 N 
HETATM   25  C16 UNL     1      25.480  -0.122  52.336  1.00  0.00     0.090 A 
HETATM   26  C17 UNL     1      26.751  -0.489  52.304  1.00  0.00     0.033 A 
HETATM   27  C18 UNL     1      27.952   0.208  52.807  1.00  0.00     0.240 A 
HETATM   28  F1  UNL     1      28.490  -0.559  53.841  1.00  0.00    -0.239 F 
HETATM   29  C19 UNL     1      27.542   1.484  53.409  1.00  0.00     0.065 A 
HETATM   30 CL1  UNL     1      28.875   2.404  54.044  1.00  0.00    -0.084 Cl
HETATM   31  C20 UNL     1      26.300   1.932  53.486  1.00  0.00     0.114 A 
ENDBRANCH  23  24
ENDBRANCH   3  18
TORSDOF 8
ENDMDL
MODEL 3
REMARK VINA RESULT:      -6.5      1.821      2.104
REMARK  8 active torsions:
REMARK  status: ('A' for Active; 'I' for Inactive)
REMARK    1  A    between atoms: C3_3  and  N1_4 
REMARK    2  A    between atoms: C3_3  and  C11_16 
REMARK    3  A    between atoms: N1_4  and  C4_5 
REMARK    4  A    between atoms: C4_5  and  N2_7 
REMARK    5  A    between atoms: N2_7  and  C5_8 
REMARK    6  A    between atoms: C5_8  and  C6_9 
REMARK    7  A    between atoms: C6_9  and  N3_10 
REMARK    8  A    between atoms: C15_21  and  N5_22 
ROOT
HETATM    1  C1  UNL     1      27.186   4.232  49.198  1.00  0.00     0.038 C 
HETATM    2  C2  UNL     1      26.268   3.088  49.498  1.00  0.00    -0.006 C 
HETATM    3  C3  UNL     1      25.312   3.536  50.263  1.00  0.00     0.015 C 
ENDROOT
BRANCH   3   4
HETATM    4  N1  UNL     1      25.460   4.946  50.555  1.00  0.00    -0.337 N 
HETATM    5  H5  UNL     1      26.247   5.339  51.118  1.00  0.00     0.168 HD
BRANCH   4   6
HETATM    6  C4  UNL     1      24.520   5.910  50.077  1.00  0.00     0.172 C 
HETATM    7  S1  UNL     1      24.087   7.108  51.098  1.00  0.00    -0.041 SA
BRANCH   6   8
HETATM    8  N2  UNL     1      23.950   5.881  48.774  1.00  0.00    -0.365 N 
HETATM    9  H6  UNL     1      24.446   5.423  48.001  1.00  0.00     0.161 HD
BRANCH   8  10
HETATM   10  C5  UNL     1      22.648   6.491  48.475  1.00  0.00     0.152 C 
BRANCH  10  11
HETATM   11  C6  UNL     1      21.548   5.464  48.597  1.00  0.00     0.292 C 
BRANCH  11  12
HETATM   12  N3  UNL     1      20.831   5.316  47.360  1.00  0.00     0.094 N 
HETATM   13  C7  UNL     1      19.578   4.652  47.558  1.00  0.00     0.298 C 
HETATM   14  C8  UNL     1      19.627   3.218  47.055  1.00  0.00     0.198 C 
HETATM   15  O1  UNL     1      20.813   2.654  47.563  1.00  0.00    -0.388 OA
HETATM   16  C9  UNL     1      21.920   3.171  46.894  1.00  0.00     0.198 C 
HETATM   17  C10 UNL     1      21.613   4.572  46.390  1.00  0.00     0.298 C 
ENDBRANCH  11  12
ENDBRANCH  10  11
ENDBRANCH   8  10
ENDBRANCH   6   8
ENDBRANCH   4   6
ENDBRANCH   3   4
BRANCH   3  18
HETATM   18  C11 UNL     1      24.088   3.112  50.965  1.00  0.00     0.084 C 
HETATM   19  C12 UNL     1      23.245   2.167  50.179  1.00  0.00     0.162 C 
HETATM   20  N4  UNL     1      22.605   1.337  51.141  1.00  0.00    -0.296 NA
HETATM   21  C13 UNL     1      23.139   1.460  52.289  1.00  0.00     0.026 C 
HETATM   22  C14 UNL     1      22.720   0.733  53.543  1.00  0.00     0.067 C 
HETATM   23  C15 UNL     1      24.275   2.442  52.270  1.00  0.00     0.147 C 
BRANCH  23  24
HETATM   24  N5  UNL     1      25.471   1.670  52.443  1.00  0.00    -0.354 N 
HETATM   25  C16 UNL     1      25.565   0.321  52.012  1.00  0.00     0.090 A 
HETATM   26  C17 UNL     1      26.726  -0.269  52.246  1.00  0.00     0.033 A 
HETATM   27  C18 UNL     1      27.945   0.259  52.892  1.00  0.00     0.240 A 
HETATM   28  F1  UNL     1      28.146  -0.453  54.074  1.00  0.00    -0.239 F 
HETATM   29  C19 UNL     1      27.707   1.655  53.285  1.00  0.00     0.065 A 
HETATM   30 CL1  UNL     1      29.077   2.393  54.061  1.00  0.00    -0.084 Cl
HETATM   31  C20 UNL     1      26.583   2.325  53.091  1.00  0.00     0.114 A 
ENDBRANCH  23  24
ENDBRANCH   3  18
TORSDOF 8
ENDMDL
MODEL 4
REMARK VINA RESULT:      -6.4      4.416      7.839
REMARK  8 active torsions:
REMARK  status: ('A' for Active; 'I' for Inactive)
REMARK    1  A    between atoms: C3_3  and  N1_4 
REMARK    2  A    between atoms: C3_3  and  C11_16 
REMARK    3  A    between atoms: N1_4  and  C4_5 
REMARK    4  A    between atoms: C4_5  and  N2_7 
REMARK    5  A    between atoms: N2_7  and  C5_8 
REMARK    6  A    between atoms: C5_8  and  C6_9 
REMARK    7  A    between atoms: C6_9  and  N3_10 
REMARK    8  A    between atoms: C15_21  and  N5_22 
ROOT
HETATM    1  C1  UNL     1      26.140   3.227  49.392  1.00  0.00     0.038 C 
HETATM    2  C2  UNL     1      25.937   4.690  49.637  1.00  0.00    -0.006 C 
HETATM    3  C3  UNL     1      24.839   4.830  50.324  1.00  0.00     0.015 C 
ENDROOT
BRANCH   3   4
HETATM    4  N1  UNL     1      24.205   3.560  50.607  1.00  0.00    -0.337 N 
HETATM    5  H5  UNL     1      23.933   2.874  49.868  1.00  0.00     0.168 HD
BRANCH   4   6
HETATM    6  C4  UNL     1      23.907   3.155  51.945  1.00  0.00     0.172 C 
HETATM    7  S1  UNL     1      22.383   2.664  52.261  1.00  0.00    -0.041 SA
BRANCH   6   8
HETATM    8  N2  UNL     1      24.859   3.157  53.001  1.00  0.00    -0.365 N 
HETATM    9  H6  UNL     1      25.152   4.041  53.434  1.00  0.00     0.161 HD
BRANCH   8  10
HETATM   10  C5  UNL     1      25.460   1.920  53.517  1.00  0.00     0.152 C 
BRANCH  10  11
HETATM   11  C6  UNL     1      26.923   2.134  53.819  1.00  0.00     0.292 C 
BRANCH  11  12
HETATM   12  N3  UNL     1      27.758   1.395  52.911  1.00  0.00     0.094 N 
HETATM   13  C7  UNL     1      27.093   0.227  52.421  1.00  0.00     0.298 C 
HETATM   14  C8  UNL     1      27.640  -1.035  53.071  1.00  0.00     0.198 C 
HETATM   15  O1  UNL     1      27.695  -0.783  54.455  1.00  0.00    -0.388 OA
HETATM   16  C9  UNL     1      28.736   0.096  54.744  1.00  0.00     0.198 C 
HETATM   17  C10 UNL     1      28.999   1.000  53.551  1.00  0.00     0.298 C 
ENDBRANCH  11  12
ENDBRANCH  10  11
ENDBRANCH   8  10
ENDBRANCH   6   8
ENDBRANCH   4   6
ENDBRANCH   3   4
BRANCH   3  18
HETATM   18  C11 UNL     1      23.974   5.851  50.941  1.00  0.00     0.084 C 
HETATM   19  C12 UNL     1      24.527   7.232  50.856  1.00  0.00     0.162 C 
HETATM   20  N4  UNL     1      23.395   8.092  50.784  1.00  0.00    -0.296 NA
HETATM   21  C13 UNL     1      22.332   7.439  50.538  1.00  0.00     0.026 C 
HETATM   22  C14 UNL     1      20.948   8.023  50.393  1.00  0.00     0.067 C 
HETATM   23  C15 UNL     1      22.603   5.968  50.402  1.00  0.00     0.147 C 
BRANCH  23  24
HETATM   24  N5  UNL     1      22.417   5.657  49.014  1.00  0.00    -0.354 N 
HETATM   25  C16 UNL     1      23.102   6.356  47.988  1.00  0.00     0.090 A 
HETATM   26  C17 UNL     1      22.825   5.967  46.755  1.00  0.00     0.033 A 
HETATM   27  C18 UNL     1      21.906   4.914  46.276  1.00  0.00     0.240 A 
HETATM   28  F1  UNL     1      20.884   5.532  45.557  1.00  0.00    -0.239 F 
HETATM   29  C19 UNL     1      21.270   4.277  47.437  1.00  0.00     0.065 A 
HETATM   30 CL1  UNL     1      20.157   3.012  47.003  1.00  0.00    -0.084 Cl
HETATM   31  C20 UNL     1      21.485   4.598  48.702  1.00  0.00     0.114 A 
ENDBRANCH  23  24
ENDBRANCH   3  18
TORSDOF 8
ENDMDL
MODEL 5
REMARK VINA RESULT:      -6.4      4.361      7.701
REMARK  8 active torsions:
REMARK  status: ('A' for Active; 'I' for Inactive)
REMARK    1  A    between atoms: C3_3  and  N1_4 
REMARK    2  A    between atoms: C3_3  and  C11_16 
REMARK    3  A    between atoms: N1_4  and  C4_5 
REMARK    4  A    between atoms: C4_5  and  N2_7 
REMARK    5  A    between atoms: N2_7  and  C5_8 
REMARK    6  A    between atoms: C5_8  and  C6_9 
REMARK    7  A    between atoms: C6_9  and  N3_10 
REMARK    8  A    between atoms: C15_21  and  N5_22 
ROOT
HETATM    1  C1  UNL     1      23.519   4.567  52.945  1.00  0.00     0.038 C 
HETATM    2  C2  UNL     1      22.718   3.775  51.958  1.00  0.00    -0.006 C 
HETATM    3  C3  UNL     1      23.396   3.723  50.846  1.00  0.00     0.015 C 
ENDROOT
BRANCH   3   4
HETATM    4  N1  UNL     1      24.655   4.430  50.940  1.00  0.00    -0.337 N 
HETATM    5  H5  UNL     1      24.732   5.442  51.186  1.00  0.00     0.168 HD
BRANCH   4   6
HETATM    6  C4  UNL     1      25.901   3.772  50.698  1.00  0.00     0.172 C 
HETATM    7  S1  UNL     1      26.694   4.145  49.321  1.00  0.00    -0.041 SA
BRANCH   6   8
HETATM    8  N2  UNL     1      26.477   2.821  51.585  1.00  0.00    -0.365 N 
HETATM    9  H6  UNL     1      27.354   3.034  52.075  1.00  0.00     0.161 HD
BRANCH   8  10
HETATM   10  C5  UNL     1      25.860   1.513  51.840  1.00  0.00     0.152 C 
BRANCH  10  11
HETATM   11  C6  UNL     1      26.896   0.419  51.754  1.00  0.00     0.292 C 
BRANCH  11  12
HETATM   12  N3  UNL     1      26.674  -0.591  52.752  1.00  0.00     0.094 N 
HETATM   13  C7  UNL     1      25.794  -0.126  53.781  1.00  0.00     0.298 C 
HETATM   14  C8  UNL     1      26.554   0.182  55.062  1.00  0.00     0.198 C 
HETATM   15  O1  UNL     1      27.674   0.950  54.690  1.00  0.00    -0.388 OA
HETATM   16  C9  UNL     1      28.617   0.151  54.048  1.00  0.00     0.198 C 
HETATM   17  C10 UNL     1      27.926  -1.011  53.355  1.00  0.00     0.298 C 
ENDBRANCH  11  12
ENDBRANCH  10  11
ENDBRANCH   8  10
ENDBRANCH   6   8
ENDBRANCH   4   6
ENDBRANCH   3   4
BRANCH   3  18
HETATM   18  C11 UNL     1      23.343   3.185  49.476  1.00  0.00     0.084 C 
HETATM   19  C12 UNL     1      22.450   2.001  49.333  1.00  0.00     0.162 C 
HETATM   20  N4  UNL     1      21.942   2.066  48.005  1.00  0.00    -0.296 NA
HETATM   21  C13 UNL     1      22.164   3.201  47.477  1.00  0.00     0.026 C 
HETATM   22  C14 UNL     1      21.766   3.624  46.085  1.00  0.00     0.067 C 
HETATM   23  C15 UNL     1      22.894   4.116  48.418  1.00  0.00     0.147 C 
BRANCH  23  24
HETATM   24  N5  UNL     1      21.953   5.130  48.797  1.00  0.00    -0.354 N 
HETATM   25  C16 UNL     1      20.611   4.821  49.141  1.00  0.00     0.090 A 
HETATM   26  C17 UNL     1      19.855   5.858  49.459  1.00  0.00     0.033 A 
HETATM   27  C18 UNL     1      20.189   7.296  49.511  1.00  0.00     0.240 A 
HETATM   28  F1  UNL     1      19.438   7.946  48.532  1.00  0.00    -0.239 F 
HETATM   29  C19 UNL     1      21.599   7.469  49.134  1.00  0.00     0.065 A 
HETATM   30 CL1  UNL     1      22.118   9.129  49.156  1.00  0.00    -0.084 Cl
HETATM   31  C20 UNL     1      22.429   6.494  48.802  1.00  0.00     0.114 A 
ENDBRANCH  23  24
ENDBRANCH   3  18
TORSDOF 8
ENDMDL
MODEL 6
REMARK VINA RESULT:      -6.3      2.681      3.958
REMARK  8 active torsions:
REMARK  status: ('A' for Active; 'I' for Inactive)
REMARK    1  A    between atoms: C3_3  and  N1_4 
REMARK    2  A    between atoms: C3_3  and  C11_16 
REMARK    3  A    between atoms: N1_4  and  C4_5 
REMARK    4  A    between atoms: C4_5  and  N2_7 
REMARK    5  A    between atoms: N2_7  and  C5_8 
REMARK    6  A    between atoms: C5_8  and  C6_9 
REMARK    7  A    between atoms: C6_9  and  N3_10 
REMARK    8  A    between atoms: C15_21  and  N5_22 
ROOT
HETATM    1  C1  UNL     1      23.394   4.677  52.736  1.00  0.00     0.038 C 
HETATM    2  C2  UNL     1      23.958   3.367  53.192  1.00  0.00    -0.006 C 
HETATM    3  C3  UNL     1      24.975   3.085  52.428  1.00  0.00     0.015 C 
ENDROOT
BRANCH   3   4
HETATM    4  N1  UNL     1      25.207   4.104  51.426  1.00  0.00    -0.337 N 
HETATM    5  H5  UNL     1      25.298   5.120  51.647  1.00  0.00     0.168 HD
BRANCH   4   6
HETATM    6  C4  UNL     1      25.331   3.775  50.041  1.00  0.00     0.172 C 
HETATM    7  S1  UNL     1      26.714   4.200  49.287  1.00  0.00    -0.041 SA
BRANCH   6   8
HETATM    8  N2  UNL     1      24.323   3.103  49.295  1.00  0.00    -0.365 N 
HETATM    9  H6  UNL     1      24.422   2.107  49.068  1.00  0.00     0.161 HD
BRANCH   8  10
HETATM   10  C5  UNL     1      23.111   3.787  48.823  1.00  0.00     0.152 C 
BRANCH  10  11
HETATM   11  C6  UNL     1      21.888   3.201  49.486  1.00  0.00     0.292 C 
BRANCH  11  12
HETATM   12  N3  UNL     1      20.705   3.438  48.703  1.00  0.00     0.094 N 
HETATM   13  C7  UNL     1      20.535   4.831  48.422  1.00  0.00     0.298 C 
HETATM   14  C8  UNL     1      19.421   5.434  49.266  1.00  0.00     0.198 C 
HETATM   15  O1  UNL     1      19.641   5.002  50.588  1.00  0.00    -0.388 OA
HETATM   16  C9  UNL     1      19.322   3.652  50.715  1.00  0.00     0.198 C 
HETATM   17  C10 UNL     1      19.523   2.945  49.385  1.00  0.00     0.298 C 
ENDBRANCH  11  12
ENDBRANCH  10  11
ENDBRANCH   8  10
ENDBRANCH   6   8
ENDBRANCH   4   6
ENDBRANCH   3   4
BRANCH   3  18
HETATM   18  C11 UNL     1      26.016   2.065  52.205  1.00  0.00     0.084 C 
HETATM   19  C12 UNL     1      26.998   1.961  53.321  1.00  0.00     0.162 C 
HETATM   20  N4  UNL     1      27.408   0.598  53.340  1.00  0.00    -0.296 NA
HETATM   21  C13 UNL     1      26.643  -0.127  52.631  1.00  0.00     0.026 C 
HETATM   22  C14 UNL     1      26.775  -1.616  52.422  1.00  0.00     0.067 C 
HETATM   23  C15 UNL     1      25.547   0.679  51.994  1.00  0.00     0.147 C 
BRANCH  23  24
HETATM   24  N5  UNL     1      24.334   0.293  52.655  1.00  0.00    -0.354 N 
HETATM   25  C16 UNL     1      24.327  -0.224  53.976  1.00  0.00     0.090 A 
HETATM   26  C17 UNL     1      23.137  -0.549  54.452  1.00  0.00     0.033 A 
HETATM   27  C18 UNL     1      21.805  -0.457  53.819  1.00  0.00     0.240 A 
HETATM   28  F1  UNL     1      21.315  -1.753  53.665  1.00  0.00    -0.239 F 
HETATM   29  C19 UNL     1      21.961   0.090  52.464  1.00  0.00     0.065 A 
HETATM   30 CL1  UNL     1      20.454   0.247  51.609  1.00  0.00    -0.084 Cl
HETATM   31  C20 UNL     1      23.107   0.442  51.906  1.00  0.00     0.114 A 
ENDBRANCH  23  24
ENDBRANCH   3  18
TORSDOF 8
ENDMDL
MODEL 7
REMARK VINA RESULT:      -6.2      2.330      2.831
REMARK  8 active torsions:
REMARK  status: ('A' for Active; 'I' for Inactive)
REMARK    1  A    between atoms: C3_3  and  N1_4 
REMARK    2  A    between atoms: C3_3  and  C11_16 
REMARK    3  A    between atoms: N1_4  and  C4_5 
REMARK    4  A    between atoms: C4_5  and  N2_7 
REMARK    5  A    between atoms: N2_7  and  C5_8 
REMARK    6  A    between atoms: C5_8  and  C6_9 
REMARK    7  A    between atoms: C6_9  and  N3_10 
REMARK    8  A    between atoms: C15_21  and  N5_22 
ROOT
HETATM    1  C1  UNL     1      25.692   3.626  50.315  1.00  0.00     0.038 C 
HETATM    2  C2  UNL     1      24.979   2.331  50.550  1.00  0.00    -0.006 C 
HETATM    3  C3  UNL     1      24.331   2.433  51.677  1.00  0.00     0.015 C 
ENDROOT
BRANCH   3   4
HETATM    4  N1  UNL     1      24.517   3.726  52.300  1.00  0.00    -0.337 N 
HETATM    5  H5  UNL     1      25.363   3.981  52.858  1.00  0.00     0.168 HD
BRANCH   4   6
HETATM    6  C4  UNL     1      23.535   4.758  52.188  1.00  0.00     0.172 C 
HETATM    7  S1  UNL     1      21.974   4.300  52.061  1.00  0.00    -0.041 SA
BRANCH   6   8
HETATM    8  N2  UNL     1      23.845   6.146  52.182  1.00  0.00    -0.365 N 
HETATM    9  H6  UNL     1      23.699   6.714  53.024  1.00  0.00     0.161 HD
BRANCH   8  10
HETATM   10  C5  UNL     1      24.381   6.824  50.994  1.00  0.00     0.152 C 
BRANCH  10  11
HETATM   11  C6  UNL     1      23.326   6.904  49.917  1.00  0.00     0.292 C 
BRANCH  11  12
HETATM   12  N3  UNL     1      22.491   8.061  50.087  1.00  0.00     0.094 N 
HETATM   13  C7  UNL     1      21.119   7.695  50.260  1.00  0.00     0.298 C 
HETATM   14  C8  UNL     1      20.306   7.984  49.007  1.00  0.00     0.198 C 
HETATM   15  O1  UNL     1      21.043   7.469  47.923  1.00  0.00    -0.388 OA
HETATM   16  C9  UNL     1      22.153   8.271  47.669  1.00  0.00     0.198 C 
HETATM   17  C10 UNL     1      22.602   8.956  48.949  1.00  0.00     0.298 C 
ENDBRANCH  11  12
ENDBRANCH  10  11
ENDBRANCH   8  10
ENDBRANCH   6   8
ENDBRANCH   4   6
ENDBRANCH   3   4
BRANCH   3  18
HETATM   18  C11 UNL     1      23.444   1.680  52.580  1.00  0.00     0.084 C 
HETATM   19  C12 UNL     1      22.608   0.662  51.885  1.00  0.00     0.162 C 
HETATM   20  N4  UNL     1      22.417  -0.384  52.831  1.00  0.00    -0.296 NA
HETATM   21  C13 UNL     1      23.210  -0.268  53.818  1.00  0.00     0.026 C 
HETATM   22  C14 UNL     1      23.288  -1.195  55.006  1.00  0.00     0.067 C 
HETATM   23  C15 UNL     1      24.097   0.935  53.678  1.00  0.00     0.147 C 
BRANCH  23  24
HETATM   24  N5  UNL     1      25.416   0.429  53.429  1.00  0.00    -0.354 N 
HETATM   25  C16 UNL     1      25.638  -0.780  52.721  1.00  0.00     0.090 A 
HETATM   26  C17 UNL     1      26.905  -1.128  52.577  1.00  0.00     0.033 A 
HETATM   27  C18 UNL     1      28.134  -0.451  53.040  1.00  0.00     0.240 A 
HETATM   28  F1  UNL     1      28.749  -1.277  53.981  1.00  0.00    -0.239 F 
HETATM   29  C19 UNL     1      27.758   0.778  53.752  1.00  0.00     0.065 A 
HETATM   30 CL1  UNL     1      29.125   1.671  54.352  1.00  0.00    -0.084 Cl
HETATM   31  C20 UNL     1      26.521   1.205  53.945  1.00  0.00     0.114 A 
ENDBRANCH  23  24
ENDBRANCH   3  18
TORSDOF 8
ENDMDL
MODEL 8
REMARK VINA RESULT:      -6.2      4.810      8.352
REMARK  8 active torsions:
REMARK  status: ('A' for Active; 'I' for Inactive)
REMARK    1  A    between atoms: C3_3  and  N1_4 
REMARK    2  A    between atoms: C3_3  and  C11_16 
REMARK    3  A    between atoms: N1_4  and  C4_5 
REMARK    4  A    between atoms: C4_5  and  N2_7 
REMARK    5  A    between atoms: N2_7  and  C5_8 
REMARK    6  A    between atoms: C5_8  and  C6_9 
REMARK    7  A    between atoms: C6_9  and  N3_10 
REMARK    8  A    between atoms: C15_21  and  N5_22 
ROOT
HETATM    1  C1  UNL     1      22.585   3.912  48.371  1.00  0.00     0.038 C 
HETATM    2  C2  UNL     1      23.455   5.121  48.216  1.00  0.00    -0.006 C 
HETATM    3  C3  UNL     1      24.406   5.043  49.103  1.00  0.00     0.015 C 
ENDROOT
BRANCH   3   4
HETATM    4  N1  UNL     1      24.301   3.850  49.915  1.00  0.00    -0.337 N 
HETATM    5  H5  UNL     1      24.204   2.889  49.518  1.00  0.00     0.168 HD
BRANCH   4   6
HETATM    6  C4  UNL     1      24.327   3.913  51.342  1.00  0.00     0.172 C 
HETATM    7  S1  UNL     1      23.119   4.722  52.082  1.00  0.00    -0.041 SA
BRANCH   6   8
HETATM    8  N2  UNL     1      25.339   3.312  52.141  1.00  0.00    -0.365 N 
HETATM    9  H6  UNL     1      26.330   3.507  51.957  1.00  0.00     0.161 HD
BRANCH   8  10
HETATM   10  C5  UNL     1      25.024   2.400  53.250  1.00  0.00     0.152 C 
BRANCH  10  11
HETATM   11  C6  UNL     1      26.294   1.890  53.885  1.00  0.00     0.292 C 
BRANCH  11  12
HETATM   12  N3  UNL     1      27.220   1.414  52.894  1.00  0.00     0.094 N 
HETATM   13  C7  UNL     1      26.929   0.066  52.511  1.00  0.00     0.298 C 
HETATM   14  C8  UNL     1      27.931  -0.909  53.110  1.00  0.00     0.198 C 
HETATM   15  O1  UNL     1      28.054  -0.573  54.472  1.00  0.00    -0.388 OA
HETATM   16  C9  UNL     1      28.770   0.612  54.615  1.00  0.00     0.198 C 
HETATM   17  C10 UNL     1      28.585   1.482  53.383  1.00  0.00     0.298 C 
ENDBRANCH  11  12
ENDBRANCH  10  11
ENDBRANCH   8  10
ENDBRANCH   6   8
ENDBRANCH   4   6
ENDBRANCH   3   4
BRANCH   3  18
HETATM   18  C11 UNL     1      25.596   5.757  49.599  1.00  0.00     0.084 C 
HETATM   19  C12 UNL     1      26.676   5.895  48.582  1.00  0.00     0.162 C 
HETATM   20  N4  UNL     1      27.336   7.118  48.892  1.00  0.00    -0.296 NA
HETATM   21  C13 UNL     1      26.661   7.815  49.712  1.00  0.00     0.026 C 
HETATM   22  C14 UNL     1      27.053   9.165  50.260  1.00  0.00     0.067 C 
HETATM   23  C15 UNL     1      25.380   7.132  50.098  1.00  0.00     0.147 C 
BRANCH  23  24
HETATM   24  N5  UNL     1      24.326   7.890  49.488  1.00  0.00    -0.354 N 
HETATM   25  C16 UNL     1      23.080   8.100  50.133  1.00  0.00     0.090 A 
HETATM   26  C17 UNL     1      22.199   8.809  49.447  1.00  0.00     0.033 A 
HETATM   27  C18 UNL     1      22.310   9.419  48.106  1.00  0.00     0.240 A 
HETATM   28  F1  UNL     1      21.393   8.783  47.270  1.00  0.00    -0.239 F 
HETATM   29  C19 UNL     1      23.642   9.125  47.560  1.00  0.00     0.065 A 
HETATM   30 CL1  UNL     1      23.898   9.792  45.975  1.00  0.00    -0.084 Cl
HETATM   31  C20 UNL     1      24.584   8.426  48.172  1.00  0.00     0.114 A 
ENDBRANCH  23  24
ENDBRANCH   3  18
TORSDOF 8
ENDMDL
MODEL 9
REMARK VINA RESULT:      -6.1      3.650      7.039
REMARK  8 active torsions:
REMARK  status: ('A' for Active; 'I' for Inactive)
REMARK    1  A    between atoms: C3_3  and  N1_4 
REMARK    2  A    between atoms: C3_3  and  C11_16 
REMARK    3  A    between atoms: N1_4  and  C4_5 
REMARK    4  A    between atoms: C4_5  and  N2_7 
REMARK    5  A    between atoms: N2_7  and  C5_8 
REMARK    6  A    between atoms: C5_8  and  C6_9 
REMARK    7  A    between atoms: C6_9  and  N3_10 
REMARK    8  A    between atoms: C15_21  and  N5_22 
ROOT
HETATM    1  C1  UNL     1      24.241   3.641  53.441  1.00  0.00     0.038 C 
HETATM    2  C2  UNL     1      23.256   4.535  52.753  1.00  0.00    -0.006 C 
HETATM    3  C3  UNL     1      22.808   3.901  51.706  1.00  0.00     0.015 C 
ENDROOT
BRANCH   3   4
HETATM    4  N1  UNL     1      23.398   2.587  51.568  1.00  0.00    -0.337 N 
HETATM    5  H5  UNL     1      24.394   2.428  51.294  1.00  0.00     0.168 HD
BRANCH   4   6
HETATM    6  C4  UNL     1      22.641   1.399  51.804  1.00  0.00     0.172 C 
HETATM    7  S1  UNL     1      21.750   0.815  50.567  1.00  0.00    -0.041 SA
BRANCH   6   8
HETATM    8  N2  UNL     1      22.624   0.706  53.047  1.00  0.00    -0.365 N 
HETATM    9  H6  UNL     1      22.051   1.050  53.825  1.00  0.00     0.161 HD
BRANCH   8  10
HETATM   10  C5  UNL     1      23.412  -0.513  53.274  1.00  0.00     0.152 C 
BRANCH  10  11
HETATM   11  C6  UNL     1      24.791  -0.160  53.774  1.00  0.00     0.292 C 
BRANCH  11  12
HETATM   12  N3  UNL     1      25.745  -0.131  52.699  1.00  0.00     0.094 N 
HETATM   13  C7  UNL     1      26.477  -1.358  52.615  1.00  0.00     0.298 C 
HETATM   14  C8  UNL     1      27.896  -1.194  53.136  1.00  0.00     0.198 C 
HETATM   15  O1  UNL     1      27.797  -0.515  54.366  1.00  0.00    -0.388 OA
HETATM   16  C9  UNL     1      27.472   0.823  54.154  1.00  0.00     0.198 C 
HETATM   17  C10 UNL     1      26.681   0.967  52.864  1.00  0.00     0.298 C 
ENDBRANCH  11  12
ENDBRANCH  10  11
ENDBRANCH   8  10
ENDBRANCH   6   8
ENDBRANCH   4   6
ENDBRANCH   3   4
BRANCH   3  18
HETATM   18  C11 UNL     1      21.882   4.042  50.569  1.00  0.00     0.084 C 
HETATM   19  C12 UNL     1      20.804   5.045  50.797  1.00  0.00     0.162 C 
HETATM   20  N4  UNL     1      20.507   5.582  49.513  1.00  0.00    -0.296 NA
HETATM   21  C13 UNL     1      21.397   5.270  48.661  1.00  0.00     0.026 C 
HETATM   22  C14 UNL     1      21.408   5.666  47.205  1.00  0.00     0.067 C 
HETATM   23  C15 UNL     1      22.482   4.432  49.274  1.00  0.00     0.147 C 
BRANCH  23  24
HETATM   24  N5  UNL     1      23.649   5.263  49.320  1.00  0.00    -0.354 N 
HETATM   25  C16 UNL     1      23.576   6.650  49.612  1.00  0.00     0.090 A 
HETATM   26  C17 UNL     1      24.732   7.292  49.608  1.00  0.00     0.033 A 
HETATM   27  C18 UNL     1      26.095   6.789  49.345  1.00  0.00     0.240 A 
HETATM   28  F1  UNL     1      26.558   7.399  48.179  1.00  0.00    -0.239 F 
HETATM   29  C19 UNL     1      26.023   5.350  49.058  1.00  0.00     0.065 A 
HETATM   30 CL1  UNL     1      27.574   4.636  48.728  1.00  0.00    -0.084 Cl
HETATM   31  C20 UNL     1      24.916   4.627  49.040  1.00  0.00     0.114 A 
ENDBRANCH  23  24
ENDBRANCH   3  18
TORSDOF 8
ENDMDL
