MODEL 1
REMARK VINA RESULT:      -8.7      0.000      0.000
REMARK  4 active torsions:
REMARK  status: ('A' for Active; 'I' for Inactive)
REMARK    1  A    between atoms: C2_2  and  C3_3 
REMARK       I    between atoms: C3_3  and  N1_5 
REMARK    2  A    between atoms: N1_5  and  C4_6 
REMARK    3  A    between atoms: C5_7  and  C6_8 
REMARK    4  A    between atoms: C6_8  and  N2_9 
ROOT
HETATM    1  C4  UNL     1      24.041   1.598  51.825  1.00  0.00     0.095 C 
HETATM    2  C5  UNL     1      24.579   1.346  53.041  1.00  0.00     0.104 C 
HETATM    3  O3  UNL     1      23.763   0.455  53.744  1.00  0.00    -0.347 OA
HETATM    4  C11 UNL     1      23.040  -0.558  53.024  1.00  0.00     0.213 C 
HETATM    5  C12 UNL     1      21.941   0.077  52.256  1.00  0.00    -0.016 C 
HETATM    6  C13 UNL     1      20.639   0.089  52.166  1.00  0.00     0.054 C 
HETATM    7  C14 UNL     1      19.203  -0.068  52.256  1.00  0.00    -0.007 C 
HETATM    8  C15 UNL     1      18.407   0.627  51.401  1.00  0.00    -0.031 C 
HETATM    9  C16 UNL     1      16.979   0.444  51.548  1.00  0.00     0.036 C 
HETATM   10  C17 UNL     1      16.344   1.582  51.193  1.00  0.00     0.072 C 
HETATM   11 CL1  UNL     1      14.602   1.530  51.350  1.00  0.00    -0.081 Cl
HETATM   12  C18 UNL     1      16.957   2.699  50.496  1.00  0.00     0.136 C 
HETATM   13  F1  UNL     1      16.233   3.786  50.230  1.00  0.00    -0.205 F 
HETATM   14  C19 UNL     1      18.238   2.663  50.110  1.00  0.00     0.049 C 
HETATM   15  C20 UNL     1      19.023   1.480  50.369  1.00  0.00     0.168 C 
HETATM   16  N3  UNL     1      20.430   1.596  50.512  1.00  0.00    -0.269 NA
HETATM   17  C21 UNL     1      21.230   0.881  49.732  1.00  0.00     0.228 C 
HETATM   18  N4  UNL     1      22.416   1.353  50.283  1.00  0.00    -0.240 NA
HETATM   19  C22 UNL     1      22.781   0.985  51.465  1.00  0.00     0.092 C 
ENDROOT
BRANCH   2  20
HETATM   20  C6  UNL     1      25.796   1.778  53.773  1.00  0.00     0.342 C 
BRANCH  20  21
HETATM   21  N2  UNL     1      26.842   0.818  53.575  1.00  0.00     0.124 N 
HETATM   22  C7  UNL     1      27.431   0.396  54.856  1.00  0.00     0.302 C 
HETATM   23  C8  UNL     1      28.651  -0.330  54.327  1.00  0.00     0.201 C 
HETATM   24  O2  UNL     1      28.932   0.237  53.084  1.00  0.00    -0.356 OA
HETATM   25  C9  UNL     1      28.053   1.332  52.966  1.00  0.00     0.355 C 
HETATM   26  C10 UNL     1      28.686   2.471  53.691  1.00  0.00     0.073 C 
ENDBRANCH  20  21
ENDBRANCH   2  20
BRANCH   1  27
HETATM   27  N1  UNL     1      24.829   2.490  51.044  1.00  0.00    -0.320 N 
HETATM   28  C3  UNL     1      24.942   3.857  50.702  1.00  0.00     0.245 C 
HETATM   29  O1  UNL     1      24.111   4.605  51.231  1.00  0.00    -0.268 OA
HETATM   30  H4  UNL     1      25.643   2.115  50.474  1.00  0.00     0.169 HD
BRANCH  28  31
HETATM   31  C2  UNL     1      25.855   4.552  49.835  1.00  0.00     0.064 C 
HETATM   32  C1  UNL     1      26.638   3.565  49.490  1.00  0.00     0.017 C 
ENDBRANCH  28  31
ENDBRANCH   1  27
TORSDOF 4
ENDMDL
MODEL 2
REMARK VINA RESULT:      -8.7      3.060      4.862
REMARK  4 active torsions:
REMARK  status: ('A' for Active; 'I' for Inactive)
REMARK    1  A    between atoms: C2_2  and  C3_3 
REMARK       I    between atoms: C3_3  and  N1_5 
REMARK    2  A    between atoms: N1_5  and  C4_6 
REMARK    3  A    between atoms: C5_7  and  C6_8 
REMARK    4  A    between atoms: C6_8  and  N2_9 
ROOT
HETATM    1  C4  UNL     1      24.723   1.034  52.515  1.00  0.00     0.095 C 
HETATM    2  C5  UNL     1      25.906   0.470  52.177  1.00  0.00     0.104 C 
HETATM    3  O3  UNL     1      26.539   1.248  51.204  1.00  0.00    -0.347 OA
HETATM    4  C11 UNL     1      26.373   2.676  51.223  1.00  0.00     0.213 C 
HETATM    5  C12 UNL     1      24.990   3.013  50.806  1.00  0.00    -0.016 C 
HETATM    6  C13 UNL     1      24.336   3.646  49.870  1.00  0.00     0.054 C 
HETATM    7  C14 UNL     1      23.843   4.397  48.736  1.00  0.00    -0.007 C 
HETATM    8  C15 UNL     1      22.503   4.583  48.598  1.00  0.00    -0.031 C 
HETATM    9  C16 UNL     1      22.066   5.327  47.437  1.00  0.00     0.036 C 
HETATM   10  C17 UNL     1      20.849   4.883  47.054  1.00  0.00     0.072 C 
HETATM   11 CL1  UNL     1      20.195   5.666  45.632  1.00  0.00    -0.081 Cl
HETATM   12  C18 UNL     1      19.988   4.020  47.843  1.00  0.00     0.136 C 
HETATM   13  F1  UNL     1      18.820   3.620  47.341  1.00  0.00    -0.205 F 
HETATM   14  C19 UNL     1      20.339   3.615  49.070  1.00  0.00     0.049 C 
HETATM   15  C20 UNL     1      21.590   4.065  49.632  1.00  0.00     0.168 C 
HETATM   16  N3  UNL     1      22.246   3.262  50.600  1.00  0.00    -0.269 NA
HETATM   17  C21 UNL     1      22.544   3.776  51.786  1.00  0.00     0.228 C 
HETATM   18  N4  UNL     1      23.145   2.626  52.287  1.00  0.00    -0.240 NA
HETATM   19  C22 UNL     1      24.299   2.248  51.851  1.00  0.00     0.092 C 
ENDROOT
BRANCH   2  20
HETATM   20  C6  UNL     1      26.662  -0.739  52.589  1.00  0.00     0.342 C 
BRANCH  20  21
HETATM   21  N2  UNL     1      28.046  -0.406  52.755  1.00  0.00     0.124 N 
HETATM   22  C7  UNL     1      28.815  -1.551  53.268  1.00  0.00     0.302 C 
HETATM   23  C8  UNL     1      30.100  -0.832  53.625  1.00  0.00     0.201 C 
HETATM   24  O2  UNL     1      29.748   0.496  53.869  1.00  0.00    -0.356 OA
HETATM   25  C9  UNL     1      28.339   0.521  53.831  1.00  0.00     0.355 C 
HETATM   26  C10 UNL     1      27.866   0.090  55.178  1.00  0.00     0.073 C 
ENDBRANCH  20  21
ENDBRANCH   2  20
BRANCH   1  27
HETATM   27  N1  UNL     1      24.025   0.299  53.516  1.00  0.00    -0.320 N 
HETATM   28  C3  UNL     1      22.899  -0.537  53.692  1.00  0.00     0.245 C 
HETATM   29  O1  UNL     1      22.248  -0.769  52.667  1.00  0.00    -0.268 OA
HETATM   30  H4  UNL     1      24.375   0.309  54.518  1.00  0.00     0.169 HD
BRANCH  28  31
HETATM   31  C2  UNL     1      22.359  -1.177  54.861  1.00  0.00     0.064 C 
HETATM   32  C1  UNL     1      21.176  -1.506  54.414  1.00  0.00     0.017 C 
ENDBRANCH  28  31
ENDBRANCH   1  27
TORSDOF 4
ENDMDL
MODEL 3
REMARK VINA RESULT:      -8.3      4.340      7.522
REMARK  4 active torsions:
REMARK  status: ('A' for Active; 'I' for Inactive)
REMARK    1  A    between atoms: C2_2  and  C3_3 
REMARK       I    between atoms: C3_3  and  N1_5 
REMARK    2  A    between atoms: N1_5  and  C4_6 
REMARK    3  A    between atoms: C5_7  and  C6_8 
REMARK    4  A    between atoms: C6_8  and  N2_9 
ROOT
HETATM    1  C4  UNL     1      25.643   2.113  51.459  1.00  0.00     0.095 C 
HETATM    2  C5  UNL     1      24.510   1.618  52.010  1.00  0.00     0.104 C 
HETATM    3  O3  UNL     1      23.396   2.121  51.332  1.00  0.00    -0.347 OA
HETATM    4  C11 UNL     1      23.486   2.382  49.921  1.00  0.00     0.213 C 
HETATM    5  C12 UNL     1      24.346   3.569  49.697  1.00  0.00    -0.016 C 
HETATM    6  C13 UNL     1      24.301   4.781  49.213  1.00  0.00     0.054 C 
HETATM    7  C14 UNL     1      24.004   6.072  48.631  1.00  0.00    -0.007 C 
HETATM    8  C15 UNL     1      24.999   6.992  48.520  1.00  0.00    -0.031 C 
HETATM    9  C16 UNL     1      24.641   8.270  47.945  1.00  0.00     0.036 C 
HETATM   10  C17 UNL     1      25.417   9.235  48.484  1.00  0.00     0.072 C 
HETATM   11 CL1  UNL     1      25.080  10.854  47.912  1.00  0.00    -0.081 Cl
HETATM   12  C18 UNL     1      26.610   9.002  49.278  1.00  0.00     0.136 C 
HETATM   13  F1  UNL     1      27.275  10.040  49.787  1.00  0.00    -0.205 F 
HETATM   14  C19 UNL     1      27.063   7.764  49.513  1.00  0.00     0.049 C 
HETATM   15  C20 UNL     1      26.365   6.636  48.944  1.00  0.00     0.168 C 
HETATM   16  N3  UNL     1      26.434   5.376  49.592  1.00  0.00    -0.269 NA
HETATM   17  C21 UNL     1      26.869   4.317  48.923  1.00  0.00     0.228 C 
HETATM   18  N4  UNL     1      26.723   3.420  49.975  1.00  0.00    -0.240 NA
HETATM   19  C22 UNL     1      25.548   3.043  50.356  1.00  0.00     0.092 C 
ENDROOT
BRANCH   2  20
HETATM   20  C6  UNL     1      24.188   0.693  53.125  1.00  0.00     0.342 C 
BRANCH  20  21
HETATM   21  N2  UNL     1      22.868   0.164  52.944  1.00  0.00     0.124 N 
HETATM   22  C7  UNL     1      21.866   0.961  53.669  1.00  0.00     0.302 C 
HETATM   23  C8  UNL     1      20.686   0.019  53.555  1.00  0.00     0.201 C 
HETATM   24  O2  UNL     1      21.222  -1.260  53.407  1.00  0.00    -0.356 OA
HETATM   25  C9  UNL     1      22.610  -1.107  53.596  1.00  0.00     0.355 C 
HETATM   26  C10 UNL     1      22.848  -1.117  55.067  1.00  0.00     0.073 C 
ENDBRANCH  20  21
ENDBRANCH   2  20
BRANCH   1  27
HETATM   27  N1  UNL     1      26.823   1.630  52.093  1.00  0.00    -0.320 N 
HETATM   28  C3  UNL     1      27.577   1.767  53.281  1.00  0.00     0.245 C 
HETATM   29  O1  UNL     1      27.110   2.552  54.115  1.00  0.00    -0.268 OA
HETATM   30  H4  UNL     1      27.435   0.917  51.597  1.00  0.00     0.169 HD
BRANCH  28  31
HETATM   31  C2  UNL     1      28.807   1.157  53.707  1.00  0.00     0.064 C 
HETATM   32  C1  UNL     1      28.345   0.288  54.566  1.00  0.00     0.017 C 
ENDBRANCH  28  31
ENDBRANCH   1  27
TORSDOF 4
ENDMDL
MODEL 4
REMARK VINA RESULT:      -8.2      4.708      8.217
REMARK  4 active torsions:
REMARK  status: ('A' for Active; 'I' for Inactive)
REMARK    1  A    between atoms: C2_2  and  C3_3 
REMARK       I    between atoms: C3_3  and  N1_5 
REMARK    2  A    between atoms: N1_5  and  C4_6 
REMARK    3  A    between atoms: C5_7  and  C6_8 
REMARK    4  A    between atoms: C6_8  and  N2_9 
ROOT
HETATM    1  C4  UNL     1      25.490   3.130  51.329  1.00  0.00     0.095 C 
HETATM    2  C5  UNL     1      24.247   2.939  51.829  1.00  0.00     0.104 C 
HETATM    3  O3  UNL     1      23.303   3.538  50.990  1.00  0.00    -0.347 OA
HETATM    4  C11 UNL     1      23.539   3.572  49.572  1.00  0.00     0.213 C 
HETATM    5  C12 UNL     1      24.629   4.534  49.281  1.00  0.00    -0.016 C 
HETATM    6  C13 UNL     1      24.856   5.652  48.644  1.00  0.00     0.054 C 
HETATM    7  C14 UNL     1      24.860   6.878  47.876  1.00  0.00    -0.007 C 
HETATM    8  C15 UNL     1      26.022   7.571  47.743  1.00  0.00    -0.031 C 
HETATM    9  C16 UNL     1      25.963   8.798  46.978  1.00  0.00     0.036 C 
HETATM   10  C17 UNL     1      26.876   9.669  47.461  1.00  0.00     0.072 C 
HETATM   11 CL1  UNL     1      26.904  11.223  46.658  1.00  0.00    -0.081 Cl
HETATM   12  C18 UNL     1      27.943   9.334  48.388  1.00  0.00     0.136 C 
HETATM   13  F1  UNL     1      28.763  10.292  48.820  1.00  0.00    -0.205 F 
HETATM   14  C19 UNL     1      28.125   8.080  48.820  1.00  0.00     0.049 C 
HETATM   15  C20 UNL     1      27.259   7.032  48.336  1.00  0.00     0.168 C 
HETATM   16  N3  UNL     1      27.034   5.888  49.144  1.00  0.00    -0.269 NA
HETATM   17  C21 UNL     1      27.297   4.681  48.660  1.00  0.00     0.228 C 
HETATM   18  N4  UNL     1      26.905   3.987  49.799  1.00  0.00    -0.240 NA
HETATM   19  C22 UNL     1      25.656   3.894  50.112  1.00  0.00     0.092 C 
ENDROOT
BRANCH   2  20
HETATM   20  C6  UNL     1      23.674   2.260  53.018  1.00  0.00     0.342 C 
BRANCH  20  21
HETATM   21  N2  UNL     1      22.808   1.199  52.594  1.00  0.00     0.124 N 
HETATM   22  C7  UNL     1      21.652   1.059  53.493  1.00  0.00     0.302 C 
HETATM   23  C8  UNL     1      21.127  -0.273  52.998  1.00  0.00     0.201 C 
HETATM   24  O2  UNL     1      22.221  -0.942  52.448  1.00  0.00    -0.356 OA
HETATM   25  C9  UNL     1      23.340  -0.141  52.754  1.00  0.00     0.355 C 
HETATM   26  C10 UNL     1      23.753  -0.491  54.143  1.00  0.00     0.073 C 
ENDBRANCH  20  21
ENDBRANCH   2  20
BRANCH   1  27
HETATM   27  N1  UNL     1      26.506   2.532  52.128  1.00  0.00    -0.320 N 
HETATM   28  C3  UNL     1      27.124   1.287  52.384  1.00  0.00     0.245 C 
HETATM   29  O1  UNL     1      26.698   0.339  51.713  1.00  0.00    -0.268 OA
HETATM   30  H4  UNL     1      27.060   3.129  52.811  1.00  0.00     0.169 HD
BRANCH  28  31
HETATM   31  C2  UNL     1      28.170   0.909  53.295  1.00  0.00     0.064 C 
HETATM   32  C1  UNL     1      27.756  -0.283  53.636  1.00  0.00     0.017 C 
ENDBRANCH  28  31
ENDBRANCH   1  27
TORSDOF 4
ENDMDL
MODEL 5
REMARK VINA RESULT:      -8.1      6.579      9.362
REMARK  4 active torsions:
REMARK  status: ('A' for Active; 'I' for Inactive)
REMARK    1  A    between atoms: C2_2  and  C3_3 
REMARK       I    between atoms: C3_3  and  N1_5 
REMARK    2  A    between atoms: N1_5  and  C4_6 
REMARK    3  A    between atoms: C5_7  and  C6_8 
REMARK    4  A    between atoms: C6_8  and  N2_9 
ROOT
HETATM    1  C4  UNL     1      29.279   8.084  48.468  1.00  0.00     0.095 C 
HETATM    2  C5  UNL     1      30.577   7.732  48.624  1.00  0.00     0.104 C 
HETATM    3  O3  UNL     1      30.692   6.340  48.629  1.00  0.00    -0.347 OA
HETATM    4  C11 UNL     1      29.799   5.554  47.820  1.00  0.00     0.213 C 
HETATM    5  C12 UNL     1      28.440   5.594  48.412  1.00  0.00    -0.016 C 
HETATM    6  C13 UNL     1      27.537   4.811  48.939  1.00  0.00     0.054 C 
HETATM    7  C14 UNL     1      26.706   3.757  49.479  1.00  0.00    -0.007 C 
HETATM    8  C15 UNL     1      25.467   4.066  49.946  1.00  0.00    -0.031 C 
HETATM    9  C16 UNL     1      24.687   2.975  50.490  1.00  0.00     0.036 C 
HETATM   10  C17 UNL     1      23.881   3.446  51.465  1.00  0.00     0.072 C 
HETATM   11 CL1  UNL     1      22.892   2.234  52.250  1.00  0.00    -0.081 Cl
HETATM   12  C18 UNL     1      23.614   4.849  51.725  1.00  0.00     0.136 C 
HETATM   13  F1  UNL     1      22.824   5.192  52.742  1.00  0.00    -0.205 F 
HETATM   14  C19 UNL     1      24.144   5.814  50.962  1.00  0.00     0.049 C 
HETATM   15  C20 UNL     1      24.978   5.452  49.842  1.00  0.00     0.168 C 
HETATM   16  N3  UNL     1      25.973   6.359  49.393  1.00  0.00    -0.269 NA
HETATM   17  C21 UNL     1      25.973   6.760  48.129  1.00  0.00     0.228 C 
HETATM   18  N4  UNL     1      27.096   7.572  48.243  1.00  0.00    -0.240 NA
HETATM   19  C22 UNL     1      28.271   7.052  48.369  1.00  0.00     0.092 C 
ENDROOT
BRANCH   2  20
HETATM   20  C6  UNL     1      31.862   8.459  48.782  1.00  0.00     0.342 C 
BRANCH  20  21
HETATM   21  N2  UNL     1      32.578   8.442  47.540  1.00  0.00     0.124 N 
HETATM   22  C7  UNL     1      34.014   8.682  47.746  1.00  0.00     0.302 C 
HETATM   23  C8  UNL     1      34.425   8.915  46.307  1.00  0.00     0.201 C 
HETATM   24  O2  UNL     1      33.284   9.372  45.646  1.00  0.00    -0.356 OA
HETATM   25  C9  UNL     1      32.320   9.563  46.656  1.00  0.00     0.355 C 
HETATM   26  C10 UNL     1      32.581  10.905  47.252  1.00  0.00     0.073 C 
ENDBRANCH  20  21
ENDBRANCH   2  20
BRANCH   1  27
HETATM   27  N1  UNL     1      29.087   9.495  48.440  1.00  0.00    -0.320 N 
HETATM   28  C3  UNL     1      28.877  10.565  47.542  1.00  0.00     0.245 C 
HETATM   29  O1  UNL     1      28.815  10.249  46.348  1.00  0.00    -0.268 OA
HETATM   30  H4  UNL     1      29.084  10.045  49.349  1.00  0.00     0.169 HD
BRANCH  28  31
HETATM   31  C2  UNL     1      28.722  11.979  47.760  1.00  0.00     0.064 C 
HETATM   32  C1  UNL     1      29.051  12.052  49.022  1.00  0.00     0.017 C 
ENDBRANCH  28  31
ENDBRANCH   1  27
TORSDOF 4
ENDMDL
MODEL 6
REMARK VINA RESULT:      -8.0      1.760      2.216
REMARK  4 active torsions:
REMARK  status: ('A' for Active; 'I' for Inactive)
REMARK    1  A    between atoms: C2_2  and  C3_3 
REMARK       I    between atoms: C3_3  and  N1_5 
REMARK    2  A    between atoms: N1_5  and  C4_6 
REMARK    3  A    between atoms: C5_7  and  C6_8 
REMARK    4  A    between atoms: C6_8  and  N2_9 
ROOT
HETATM    1  C4  UNL     1      22.317   2.169  51.671  1.00  0.00     0.095 C 
HETATM    2  C5  UNL     1      23.200   1.870  52.652  1.00  0.00     0.104 C 
HETATM    3  O3  UNL     1      22.803   0.699  53.304  1.00  0.00    -0.347 OA
HETATM    4  C11 UNL     1      22.140  -0.336  52.557  1.00  0.00     0.213 C 
HETATM    5  C12 UNL     1      20.770   0.114  52.210  1.00  0.00    -0.016 C 
HETATM    6  C13 UNL     1      19.517  -0.192  52.414  1.00  0.00     0.054 C 
HETATM    7  C14 UNL     1      18.222  -0.723  52.782  1.00  0.00    -0.007 C 
HETATM    8  C15 UNL     1      17.101  -0.125  52.298  1.00  0.00    -0.031 C 
HETATM    9  C16 UNL     1      15.834  -0.688  52.713  1.00  0.00     0.036 C 
HETATM   10  C17 UNL     1      14.906   0.292  52.767  1.00  0.00     0.072 C 
HETATM   11 CL1  UNL     1      13.319  -0.227  53.289  1.00  0.00    -0.081 Cl
HETATM   12  C18 UNL     1      15.066   1.626  52.215  1.00  0.00     0.136 C 
HETATM   13  F1  UNL     1      14.089   2.520  52.362  1.00  0.00    -0.205 F 
HETATM   14  C19 UNL     1      16.177   1.981  51.557  1.00  0.00     0.049 C 
HETATM   15  C20 UNL     1      17.229   1.012  51.370  1.00  0.00     0.168 C 
HETATM   16  N3  UNL     1      18.568   1.458  51.221  1.00  0.00    -0.269 NA
HETATM   17  C21 UNL     1      19.260   1.107  50.146  1.00  0.00     0.228 C 
HETATM   18  N4  UNL     1      20.427   1.770  50.510  1.00  0.00    -0.240 NA
HETATM   19  C22 UNL     1      21.162   1.321  51.472  1.00  0.00     0.092 C 
ENDROOT
BRANCH   2  20
HETATM   20  C6  UNL     1      24.451   2.474  53.174  1.00  0.00     0.342 C 
BRANCH  20  21
HETATM   21  N2  UNL     1      25.493   1.489  53.180  1.00  0.00     0.124 N 
HETATM   22  C7  UNL     1      26.732   2.023  53.768  1.00  0.00     0.302 C 
HETATM   23  C8  UNL     1      27.684   0.919  53.358  1.00  0.00     0.201 C 
HETATM   24  O2  UNL     1      27.133   0.334  52.218  1.00  0.00    -0.356 OA
HETATM   25  C9  UNL     1      26.032   1.145  51.877  1.00  0.00     0.355 C 
HETATM   26  C10 UNL     1      26.570   2.295  51.096  1.00  0.00     0.073 C 
ENDBRANCH  20  21
ENDBRANCH   2  20
BRANCH   1  27
HETATM   27  N1  UNL     1      22.666   3.347  50.952  1.00  0.00    -0.320 N 
HETATM   28  C3  UNL     1      23.318   3.771  49.771  1.00  0.00     0.245 C 
HETATM   29  O1  UNL     1      23.754   2.863  49.053  1.00  0.00    -0.268 OA
HETATM   30  H4  UNL     1      22.402   4.301  51.339  1.00  0.00     0.169 HD
BRANCH  28  31
HETATM   31  C2  UNL     1      23.575   5.083  49.241  1.00  0.00     0.064 C 
HETATM   32  C1  UNL     1      22.972   4.984  48.086  1.00  0.00     0.017 C 
ENDBRANCH  28  31
ENDBRANCH   1  27
TORSDOF 4
ENDMDL
MODEL 7
REMARK VINA RESULT:      -7.8      4.565      8.954
REMARK  4 active torsions:
REMARK  status: ('A' for Active; 'I' for Inactive)
REMARK    1  A    between atoms: C2_2  and  C3_3 
REMARK       I    between atoms: C3_3  and  N1_5 
REMARK    2  A    between atoms: N1_5  and  C4_6 
REMARK    3  A    between atoms: C5_7  and  C6_8 
REMARK    4  A    between atoms: C6_8  and  N2_9 
ROOT
HETATM    1  C4  UNL     1      18.544   0.997  51.506  1.00  0.00     0.095 C 
HETATM    2  C5  UNL     1      17.742  -0.080  51.335  1.00  0.00     0.104 C 
HETATM    3  O3  UNL     1      18.201  -1.140  52.122  1.00  0.00    -0.347 OA
HETATM    4  C11 UNL     1      18.814  -0.862  53.393  1.00  0.00     0.213 C 
HETATM    5  C12 UNL     1      20.148  -0.255  53.169  1.00  0.00    -0.016 C 
HETATM    6  C13 UNL     1      21.416  -0.477  53.388  1.00  0.00     0.054 C 
HETATM    7  C14 UNL     1      22.741  -0.939  53.741  1.00  0.00    -0.007 C 
HETATM    8  C15 UNL     1      23.815  -0.164  53.436  1.00  0.00    -0.031 C 
HETATM    9  C16 UNL     1      25.116  -0.684  53.797  1.00  0.00     0.036 C 
HETATM   10  C17 UNL     1      26.035  -0.243  52.911  1.00  0.00     0.072 C 
HETATM   11 CL1  UNL     1      27.664  -0.817  53.194  1.00  0.00    -0.081 Cl
HETATM   12  C18 UNL     1      25.820   0.814  51.939  1.00  0.00     0.136 C 
HETATM   13  F1  UNL     1      26.796   1.139  51.092  1.00  0.00    -0.205 F 
HETATM   14  C19 UNL     1      24.658   1.476  51.873  1.00  0.00     0.049 C 
HETATM   15  C20 UNL     1      23.604   1.150  52.804  1.00  0.00     0.168 C 
HETATM   16  N3  UNL     1      22.253   1.376  52.433  1.00  0.00    -0.269 NA
HETATM   17  C21 UNL     1      21.483   2.141  53.194  1.00  0.00     0.228 C 
HETATM   18  N4  UNL     1      20.342   2.011  52.410  1.00  0.00    -0.240 NA
HETATM   19  C22 UNL     1      19.688   0.898  52.385  1.00  0.00     0.092 C 
ENDROOT
BRANCH   2  20
HETATM   20  C6  UNL     1      16.529  -0.384  50.535  1.00  0.00     0.342 C 
BRANCH  20  21
HETATM   21  N2  UNL     1      15.490  -0.857  51.401  1.00  0.00     0.124 N 
HETATM   22  C7  UNL     1      14.257  -1.146  50.651  1.00  0.00     0.302 C 
HETATM   23  C8  UNL     1      13.303  -1.306  51.816  1.00  0.00     0.201 C 
HETATM   24  O2  UNL     1      13.841  -0.559  52.865  1.00  0.00    -0.356 OA
HETATM   25  C9  UNL     1      14.936   0.131  52.308  1.00  0.00     0.355 C 
HETATM   26  C10 UNL     1      14.386   1.349  51.648  1.00  0.00     0.073 C 
ENDBRANCH  20  21
ENDBRANCH   2  20
BRANCH   1  27
HETATM   27  N1  UNL     1      18.127   2.124  50.742  1.00  0.00    -0.320 N 
HETATM   28  C3  UNL     1      17.534   3.400  50.884  1.00  0.00     0.245 C 
HETATM   29  O1  UNL     1      17.264   3.731  52.044  1.00  0.00    -0.268 OA
HETATM   30  H4  UNL     1      18.251   2.122  49.687  1.00  0.00     0.169 HD
BRANCH  28  31
HETATM   31  C2  UNL     1      17.178   4.400  49.914  1.00  0.00     0.064 C 
HETATM   32  C1  UNL     1      15.980   3.989  49.592  1.00  0.00     0.017 C 
ENDBRANCH  28  31
ENDBRANCH   1  27
TORSDOF 4
ENDMDL
MODEL 8
REMARK VINA RESULT:      -7.7      4.857      8.130
REMARK  4 active torsions:
REMARK  status: ('A' for Active; 'I' for Inactive)
REMARK    1  A    between atoms: C2_2  and  C3_3 
REMARK       I    between atoms: C3_3  and  N1_5 
REMARK    2  A    between atoms: N1_5  and  C4_6 
REMARK    3  A    between atoms: C5_7  and  C6_8 
REMARK    4  A    between atoms: C6_8  and  N2_9 
ROOT
HETATM    1  C4  UNL     1      22.709   4.078  51.227  1.00  0.00     0.095 C 
HETATM    2  C5  UNL     1      21.817   3.695  50.284  1.00  0.00     0.104 C 
HETATM    3  O3  UNL     1      21.600   2.317  50.372  1.00  0.00    -0.347 OA
HETATM    4  C11 UNL     1      21.648   1.675  51.657  1.00  0.00     0.213 C 
HETATM    5  C12 UNL     1      23.052   1.635  52.132  1.00  0.00    -0.016 C 
HETATM    6  C13 UNL     1      23.996   0.789  52.448  1.00  0.00     0.054 C 
HETATM    7  C14 UNL     1      24.868  -0.328  52.739  1.00  0.00    -0.007 C 
HETATM    8  C15 UNL     1      26.126  -0.083  53.193  1.00  0.00    -0.031 C 
HETATM    9  C16 UNL     1      26.960  -1.238  53.450  1.00  0.00     0.036 C 
HETATM   10  C17 UNL     1      28.251  -0.915  53.222  1.00  0.00     0.072 C 
HETATM   11 CL1  UNL     1      29.388  -2.224  53.458  1.00  0.00    -0.081 Cl
HETATM   12  C18 UNL     1      28.757   0.434  53.042  1.00  0.00     0.136 C 
HETATM   13  F1  UNL     1      30.052   0.623  52.787  1.00  0.00    -0.205 F 
HETATM   14  C19 UNL     1      27.951   1.500  53.128  1.00  0.00     0.049 C 
HETATM   15  C20 UNL     1      26.553   1.307  53.429  1.00  0.00     0.168 C 
HETATM   16  N3  UNL     1      25.606   2.263  52.980  1.00  0.00    -0.269 NA
HETATM   17  C21 UNL     1      24.804   2.854  53.855  1.00  0.00     0.228 C 
HETATM   18  N4  UNL     1      24.127   3.628  52.920  1.00  0.00    -0.240 NA
HETATM   19  C22 UNL     1      23.290   3.084  52.102  1.00  0.00     0.092 C 
ENDROOT
BRANCH   2  20
HETATM   20  C6  UNL     1      21.040   4.376  49.218  1.00  0.00     0.342 C 
BRANCH  20  21
HETATM   21  N2  UNL     1      21.744   4.276  47.973  1.00  0.00     0.124 N 
HETATM   22  C7  UNL     1      21.469   5.435  47.109  1.00  0.00     0.302 C 
HETATM   23  C8  UNL     1      22.062   4.911  45.817  1.00  0.00     0.201 C 
HETATM   24  O2  UNL     1      22.003   3.520  45.897  1.00  0.00    -0.356 OA
HETATM   25  C9  UNL     1      21.270   3.245  47.070  1.00  0.00     0.355 C 
HETATM   26  C10 UNL     1      19.827   3.342  46.708  1.00  0.00     0.073 C 
ENDBRANCH  20  21
ENDBRANCH   2  20
BRANCH   1  27
HETATM   27  N1  UNL     1      22.969   5.478  51.206  1.00  0.00    -0.320 N 
HETATM   28  C3  UNL     1      23.956   6.415  50.825  1.00  0.00     0.245 C 
HETATM   29  O1  UNL     1      24.973   5.932  50.313  1.00  0.00    -0.268 OA
HETATM   30  H4  UNL     1      22.244   6.156  51.586  1.00  0.00     0.169 HD
BRANCH  28  31
HETATM   31  C2  UNL     1      24.002   7.849  50.925  1.00  0.00     0.064 C 
HETATM   32  C1  UNL     1      25.061   8.095  50.200  1.00  0.00     0.017 C 
ENDBRANCH  28  31
ENDBRANCH   1  27
TORSDOF 4
ENDMDL
MODEL 9
REMARK VINA RESULT:      -7.6      4.150      6.992
REMARK  4 active torsions:
REMARK  status: ('A' for Active; 'I' for Inactive)
REMARK    1  A    between atoms: C2_2  and  C3_3 
REMARK       I    between atoms: C3_3  and  N1_5 
REMARK    2  A    between atoms: N1_5  and  C4_6 
REMARK    3  A    between atoms: C5_7  and  C6_8 
REMARK    4  A    between atoms: C6_8  and  N2_9 
ROOT
HETATM    1  C4  UNL     1      23.565   5.777  49.536  1.00  0.00     0.095 C 
HETATM    2  C5  UNL     1      24.658   6.560  49.697  1.00  0.00     0.104 C 
HETATM    3  O3  UNL     1      25.742   5.779  50.108  1.00  0.00    -0.347 OA
HETATM    4  C11 UNL     1      25.857   4.426  49.634  1.00  0.00     0.213 C 
HETATM    5  C12 UNL     1      24.818   3.590  50.282  1.00  0.00    -0.016 C 
HETATM    6  C13 UNL     1      24.689   2.564  51.080  1.00  0.00     0.054 C 
HETATM    7  C14 UNL     1      24.803   1.427  51.966  1.00  0.00    -0.007 C 
HETATM    8  C15 UNL     1      23.671   0.816  52.406  1.00  0.00    -0.031 C 
HETATM    9  C16 UNL     1      23.844  -0.306  53.303  1.00  0.00     0.036 C 
HETATM   10  C17 UNL     1      22.793  -0.368  54.149  1.00  0.00     0.072 C 
HETATM   11 CL1  UNL     1      22.873  -1.660  55.327  1.00  0.00    -0.081 Cl
HETATM   12  C18 UNL     1      21.553   0.373  53.998  1.00  0.00     0.136 C 
HETATM   13  F1  UNL     1      20.599   0.254  54.921  1.00  0.00    -0.205 F 
HETATM   14  C19 UNL     1      21.343   1.176  52.948  1.00  0.00     0.049 C 
HETATM   15  C20 UNL     1      22.359   1.290  51.930  1.00  0.00     0.168 C 
HETATM   16  N3  UNL     1      22.446   2.481  51.163  1.00  0.00    -0.269 NA
HETATM   17  C21 UNL     1      22.379   2.416  49.840  1.00  0.00     0.228 C 
HETATM   18  N4  UNL     1      22.519   3.783  49.628  1.00  0.00    -0.240 NA
HETATM   19  C22 UNL     1      23.658   4.362  49.819  1.00  0.00     0.092 C 
ENDROOT
BRANCH   2  20
HETATM   20  C6  UNL     1      24.961   8.004  49.541  1.00  0.00     0.342 C 
BRANCH  20  21
HETATM   21  N2  UNL     1      25.913   8.183  48.483  1.00  0.00     0.124 N 
HETATM   22  C7  UNL     1      26.244   9.604  48.295  1.00  0.00     0.302 C 
HETATM   23  C8  UNL     1      26.979   9.503  46.974  1.00  0.00     0.201 C 
HETATM   24  O2  UNL     1      26.484   8.362  46.341  1.00  0.00    -0.356 OA
HETATM   25  C9  UNL     1      25.414   7.922  47.146  1.00  0.00     0.355 C 
HETATM   26  C10 UNL     1      24.222   8.726  46.753  1.00  0.00     0.073 C 
ENDBRANCH  20  21
ENDBRANCH   2  20
BRANCH   1  27
HETATM   27  N1  UNL     1      22.421   6.506  49.104  1.00  0.00    -0.320 N 
HETATM   28  C3  UNL     1      21.373   7.316  49.597  1.00  0.00     0.245 C 
HETATM   29  O1  UNL     1      21.393   7.520  50.817  1.00  0.00    -0.268 OA
HETATM   30  H4  UNL     1      22.159   6.516  48.074  1.00  0.00     0.169 HD
BRANCH  28  31
HETATM   31  C2  UNL     1      20.268   7.957  48.936  1.00  0.00     0.064 C 
HETATM   32  C1  UNL     1      20.418   7.480  47.728  1.00  0.00     0.017 C 
ENDBRANCH  28  31
ENDBRANCH   1  27
TORSDOF 4
ENDMDL
