MODEL 1
REMARK VINA RESULT:      -8.2      0.000      0.000
REMARK  2 active torsions:
REMARK  status: ('A' for Active; 'I' for Inactive)
REMARK    1  A    between atoms: C9_12  and  N3_13 
REMARK    2  A    between atoms: N3_13  and  C10_14 
ROOT
HETATM    1  O1  UNL     1      26.024   3.028  51.449  1.00  0.00    -0.193 OA
HETATM    2  C1  UNL     1      25.894   2.068  52.343  1.00  0.00     0.121 C 
HETATM    3  C2  UNL     1      27.209   2.151  52.959  1.00  0.00     0.000 C 
HETATM    4  C3  UNL     1      28.409   2.316  53.525  1.00  0.00     0.033 C 
HETATM    5  C4  UNL     1      29.291   1.164  53.877  1.00  0.00     0.119 C 
HETATM    6  N1  UNL     1      29.643  -0.059  53.948  1.00  0.00    -0.255 NA
HETATM    7  C5  UNL     1      28.766  -1.066  53.398  1.00  0.00     0.226 C 
HETATM    8  N2  UNL     1      27.761  -1.718  53.023  1.00  0.00    -0.279 NA
HETATM    9  C6  UNL     1      26.367  -1.570  53.044  1.00  0.00     0.186 C 
HETATM   10  C7  UNL     1      25.866  -0.136  53.019  1.00  0.00    -0.030 C 
HETATM   11  C8  UNL     1      26.794   0.743  53.211  1.00  0.00     0.021 C 
HETATM   12  C9  UNL     1      24.949   1.017  52.899  1.00  0.00     0.174 C 
ENDROOT
BRANCH  12  13
HETATM   13  N3  UNL     1      23.864   0.791  52.006  1.00  0.00    -0.375 N 
HETATM   14  H8  UNL     1      23.969   0.929  50.979  1.00  0.00     0.160 HD
BRANCH  13  15
HETATM   15  C10 UNL     1      22.615   0.367  52.533  1.00  0.00     0.030 A 
HETATM   16  C11 UNL     1      22.509  -0.189  53.790  1.00  0.00     0.029 A 
HETATM   17  C12 UNL     1      21.314  -0.619  54.347  1.00  0.00     0.004 A 
HETATM   18  C13 UNL     1      20.175  -0.471  53.578  1.00  0.00     0.019 A 
HETATM   19  C14 UNL     1      20.275   0.084  52.319  1.00  0.00     0.013 A 
HETATM   20 BR1  UNL     1      18.647   0.239  51.353  1.00  0.00    -0.051 Br
HETATM   21  C15 UNL     1      21.468   0.498  51.798  1.00  0.00     0.048 A 
ENDBRANCH  13  15
ENDBRANCH  12  13
TORSDOF 2
ENDMDL
MODEL 2
REMARK VINA RESULT:      -8.0      1.545      2.091
REMARK  2 active torsions:
REMARK  status: ('A' for Active; 'I' for Inactive)
REMARK    1  A    between atoms: C9_12  and  N3_13 
REMARK    2  A    between atoms: N3_13  and  C10_14 
ROOT
HETATM    1  O1  UNL     1      27.898   2.601  52.096  1.00  0.00    -0.193 OA
HETATM    2  C1  UNL     1      27.284   1.578  52.658  1.00  0.00     0.121 C 
HETATM    3  C2  UNL     1      28.417   0.989  53.357  1.00  0.00     0.000 C 
HETATM    4  C3  UNL     1      29.481   0.531  54.024  1.00  0.00     0.033 C 
HETATM    5  C4  UNL     1      29.823  -0.922  54.080  1.00  0.00     0.119 C 
HETATM    6  N1  UNL     1      29.700  -2.162  53.812  1.00  0.00    -0.255 NA
HETATM    7  C5  UNL     1      28.633  -2.579  52.934  1.00  0.00     0.226 C 
HETATM    8  N2  UNL     1      27.543  -2.676  52.318  1.00  0.00    -0.279 NA
HETATM    9  C6  UNL     1      26.310  -2.009  52.290  1.00  0.00     0.186 C 
HETATM   10  C7  UNL     1      26.362  -0.535  52.654  1.00  0.00    -0.030 C 
HETATM   11  C8  UNL     1      27.493  -0.162  53.156  1.00  0.00     0.021 C 
HETATM   12  C9  UNL     1      25.948   0.875  52.817  1.00  0.00     0.174 C 
ENDROOT
BRANCH  12  13
HETATM   13  N3  UNL     1      25.025   1.315  51.827  1.00  0.00    -0.375 N 
HETATM   14  H8  UNL     1      25.331   1.903  51.024  1.00  0.00     0.160 HD
BRANCH  13  15
HETATM   15  C10 UNL     1      23.659   0.941  51.944  1.00  0.00     0.030 A 
HETATM   16  C11 UNL     1      22.704   1.401  51.063  1.00  0.00     0.029 A 
HETATM   17  C12 UNL     1      21.360   1.066  51.136  1.00  0.00     0.004 A 
HETATM   18  C13 UNL     1      20.980   0.218  52.160  1.00  0.00     0.019 A 
HETATM   19  C14 UNL     1      21.931  -0.245  53.044  1.00  0.00     0.013 A 
HETATM   20 BR1  UNL     1      21.297  -1.403  54.409  1.00  0.00    -0.051 Br
HETATM   21  C15 UNL     1      23.249   0.104  52.946  1.00  0.00     0.048 A 
ENDBRANCH  13  15
ENDBRANCH  12  13
TORSDOF 2
ENDMDL
MODEL 3
REMARK VINA RESULT:      -7.9      3.129      4.358
REMARK  2 active torsions:
REMARK  status: ('A' for Active; 'I' for Inactive)
REMARK    1  A    between atoms: C9_12  and  N3_13 
REMARK    2  A    between atoms: N3_13  and  C10_14 
ROOT
HETATM    1  O1  UNL     1      24.250   0.217  52.887  1.00  0.00    -0.193 OA
HETATM    2  C1  UNL     1      25.378   0.773  52.491  1.00  0.00     0.121 C 
HETATM    3  C2  UNL     1      26.248  -0.391  52.578  1.00  0.00     0.000 C 
HETATM    4  C3  UNL     1      26.982  -1.507  52.621  1.00  0.00     0.033 C 
HETATM    5  C4  UNL     1      28.358  -1.536  53.199  1.00  0.00     0.119 C 
HETATM    6  N1  UNL     1      29.390  -1.068  53.783  1.00  0.00    -0.255 NA
HETATM    7  C5  UNL     1      29.381   0.312  54.206  1.00  0.00     0.226 C 
HETATM    8  N2  UNL     1      29.177   1.548  54.292  1.00  0.00    -0.279 NA
HETATM    9  C6  UNL     1      28.489   2.534  53.570  1.00  0.00     0.186 C 
HETATM   10  C7  UNL     1      27.276   2.046  52.799  1.00  0.00    -0.030 C 
HETATM   11  C8  UNL     1      27.184   0.758  52.734  1.00  0.00     0.021 C 
HETATM   12  C9  UNL     1      26.020   2.066  52.019  1.00  0.00     0.174 C 
ENDROOT
BRANCH  12  13
HETATM   13  N3  UNL     1      25.185   3.180  52.315  1.00  0.00    -0.375 N 
HETATM   14  H8  UNL     1      25.124   3.573  53.277  1.00  0.00     0.160 HD
BRANCH  13  15
HETATM   15  C10 UNL     1      24.421   3.765  51.269  1.00  0.00     0.030 A 
HETATM   16  C11 UNL     1      24.456   3.272  49.982  1.00  0.00     0.029 A 
HETATM   17  C12 UNL     1      23.730   3.808  48.929  1.00  0.00     0.004 A 
HETATM   18  C13 UNL     1      22.931   4.900  49.210  1.00  0.00     0.019 A 
HETATM   19  C14 UNL     1      22.892   5.398  50.496  1.00  0.00     0.013 A 
HETATM   20 BR1  UNL     1      21.760   6.898  50.767  1.00  0.00    -0.051 Br
HETATM   21  C15 UNL     1      23.619   4.847  51.513  1.00  0.00     0.048 A 
ENDBRANCH  13  15
ENDBRANCH  12  13
TORSDOF 2
ENDMDL
MODEL 4
REMARK VINA RESULT:      -7.8      3.954      6.039
REMARK  2 active torsions:
REMARK  status: ('A' for Active; 'I' for Inactive)
REMARK    1  A    between atoms: C9_12  and  N3_13 
REMARK    2  A    between atoms: N3_13  and  C10_14 
ROOT
HETATM    1  O1  UNL     1      22.190   2.612  52.610  1.00  0.00    -0.193 OA
HETATM    2  C1  UNL     1      23.426   2.258  52.319  1.00  0.00     0.121 C 
HETATM    3  C2  UNL     1      23.419   0.920  52.889  1.00  0.00     0.000 C 
HETATM    4  C3  UNL     1      23.332  -0.322  53.377  1.00  0.00     0.033 C 
HETATM    5  C4  UNL     1      24.412  -0.929  54.211  1.00  0.00     0.119 C 
HETATM    6  N1  UNL     1      25.516  -0.966  54.848  1.00  0.00    -0.255 NA
HETATM    7  C5  UNL     1      26.338   0.220  54.877  1.00  0.00     0.226 C 
HETATM    8  N2  UNL     1      26.919   1.295  54.588  1.00  0.00    -0.279 NA
HETATM    9  C6  UNL     1      26.967   2.184  53.505  1.00  0.00     0.186 C 
HETATM   10  C7  UNL     1      25.706   2.245  52.659  1.00  0.00    -0.030 C 
HETATM   11  C8  UNL     1      24.857   1.306  52.923  1.00  0.00     0.021 C 
HETATM   12  C9  UNL     1      24.719   2.710  51.663  1.00  0.00     0.174 C 
ENDROOT
BRANCH  12  13
HETATM   13  N3  UNL     1      24.722   4.121  51.474  1.00  0.00    -0.375 N 
HETATM   14  H8  UNL     1      24.141   4.749  52.066  1.00  0.00     0.160 HD
BRANCH  13  15
HETATM   15  C10 UNL     1      25.540   4.677  50.453  1.00  0.00     0.030 A 
HETATM   16  C11 UNL     1      26.519   3.937  49.824  1.00  0.00     0.029 A 
HETATM   17  C12 UNL     1      27.342   4.435  48.825  1.00  0.00     0.004 A 
HETATM   18  C13 UNL     1      27.150   5.753  48.454  1.00  0.00     0.019 A 
HETATM   19  C14 UNL     1      26.173   6.498  49.080  1.00  0.00     0.013 A 
HETATM   20 BR1  UNL     1      25.998   8.295  48.490  1.00  0.00    -0.051 Br
HETATM   21  C15 UNL     1      25.378   5.978  50.062  1.00  0.00     0.048 A 
ENDBRANCH  13  15
ENDBRANCH  12  13
TORSDOF 2
ENDMDL
MODEL 5
REMARK VINA RESULT:      -7.8      2.994      3.389
REMARK  2 active torsions:
REMARK  status: ('A' for Active; 'I' for Inactive)
REMARK    1  A    between atoms: C9_12  and  N3_13 
REMARK    2  A    between atoms: N3_13  and  C10_14 
ROOT
HETATM    1  O1  UNL     1      27.591   2.608  51.803  1.00  0.00    -0.193 OA
HETATM    2  C1  UNL     1      27.082   1.609  52.496  1.00  0.00     0.121 C 
HETATM    3  C2  UNL     1      28.288   1.172  53.184  1.00  0.00     0.000 C 
HETATM    4  C3  UNL     1      29.414   0.856  53.830  1.00  0.00     0.033 C 
HETATM    5  C4  UNL     1      29.863  -0.557  54.009  1.00  0.00     0.119 C 
HETATM    6  N1  UNL     1      29.817  -1.824  53.872  1.00  0.00    -0.255 NA
HETATM    7  C5  UNL     1      28.740  -2.399  53.101  1.00  0.00     0.226 C 
HETATM    8  N2  UNL     1      27.630  -2.630  52.562  1.00  0.00    -0.279 NA
HETATM    9  C6  UNL     1      26.352  -2.053  52.540  1.00  0.00     0.186 C 
HETATM   10  C7  UNL     1      26.315  -0.550  52.754  1.00  0.00    -0.030 C 
HETATM   11  C8  UNL     1      27.441  -0.053  53.151  1.00  0.00     0.021 C 
HETATM   12  C9  UNL     1      25.810   0.838  52.801  1.00  0.00     0.174 C 
ENDROOT
BRANCH  12  13
HETATM   13  N3  UNL     1      24.808   1.112  51.827  1.00  0.00    -0.375 N 
HETATM   14  H8  UNL     1      24.430   0.363  51.212  1.00  0.00     0.160 HD
BRANCH  13  15
HETATM   15  C10 UNL     1      24.319   2.440  51.698  1.00  0.00     0.030 A 
HETATM   16  C11 UNL     1      23.900   3.168  52.791  1.00  0.00     0.029 A 
HETATM   17  C12 UNL     1      23.413   4.465  52.715  1.00  0.00     0.004 A 
HETATM   18  C13 UNL     1      23.356   5.041  51.460  1.00  0.00     0.019 A 
HETATM   19  C14 UNL     1      23.773   4.317  50.363  1.00  0.00     0.013 A 
HETATM   20 BR1  UNL     1      23.650   5.207  48.689  1.00  0.00    -0.051 Br
HETATM   21  C15 UNL     1      24.248   3.040  50.470  1.00  0.00     0.048 A 
ENDBRANCH  13  15
ENDBRANCH  12  13
TORSDOF 2
ENDMDL
MODEL 6
REMARK VINA RESULT:      -7.7      3.528      5.786
REMARK  2 active torsions:
REMARK  status: ('A' for Active; 'I' for Inactive)
REMARK    1  A    between atoms: C9_12  and  N3_13 
REMARK    2  A    between atoms: N3_13  and  C10_14 
ROOT
HETATM    1  O1  UNL     1      26.242   0.167  51.887  1.00  0.00    -0.193 OA
HETATM    2  C1  UNL     1      25.150   0.709  52.390  1.00  0.00     0.121 C 
HETATM    3  C2  UNL     1      25.088  -0.028  53.644  1.00  0.00     0.000 C 
HETATM    4  C3  UNL     1      25.119  -0.692  54.803  1.00  0.00     0.033 C 
HETATM    5  C4  UNL     1      23.897  -1.302  55.406  1.00  0.00     0.119 C 
HETATM    6  N1  UNL     1      22.668  -1.636  55.472  1.00  0.00    -0.255 NA
HETATM    7  C5  UNL     1      21.796  -1.288  54.375  1.00  0.00     0.226 C 
HETATM    8  N2  UNL     1      21.248  -0.712  53.404  1.00  0.00    -0.279 NA
HETATM    9  C6  UNL     1      21.434   0.462  52.661  1.00  0.00     0.186 C 
HETATM   10  C7  UNL     1      22.867   0.960  52.581  1.00  0.00    -0.030 C 
HETATM   11  C8  UNL     1      23.672   0.360  53.396  1.00  0.00     0.021 C 
HETATM   12  C9  UNL     1      24.052   1.729  52.147  1.00  0.00     0.174 C 
ENDROOT
BRANCH  12  13
HETATM   13  N3  UNL     1      24.012   2.110  50.776  1.00  0.00    -0.375 N 
HETATM   14  H8  UNL     1      23.477   1.558  50.075  1.00  0.00     0.160 HD
BRANCH  13  15
HETATM   15  C10 UNL     1      24.720   3.271  50.363  1.00  0.00     0.030 A 
HETATM   16  C11 UNL     1      25.908   3.187  49.669  1.00  0.00     0.029 A 
HETATM   17  C12 UNL     1      26.636   4.289  49.246  1.00  0.00     0.004 A 
HETATM   18  C13 UNL     1      26.119   5.535  49.550  1.00  0.00     0.019 A 
HETATM   19  C14 UNL     1      24.932   5.625  50.244  1.00  0.00     0.013 A 
HETATM   20 BR1  UNL     1      24.316   7.385  50.606  1.00  0.00    -0.051 Br
HETATM   21  C15 UNL     1      24.238   4.519  50.648  1.00  0.00     0.048 A 
ENDBRANCH  13  15
ENDBRANCH  12  13
TORSDOF 2
ENDMDL
MODEL 7
REMARK VINA RESULT:      -7.5      3.185      6.776
REMARK  2 active torsions:
REMARK  status: ('A' for Active; 'I' for Inactive)
REMARK    1  A    between atoms: C9_12  and  N3_13 
REMARK    2  A    between atoms: N3_13  and  C10_14 
ROOT
HETATM    1  O1  UNL     1      24.136   2.121  52.266  1.00  0.00    -0.193 OA
HETATM    2  C1  UNL     1      23.606   0.916  52.350  1.00  0.00     0.121 C 
HETATM    3  C2  UNL     1      22.477   1.100  51.451  1.00  0.00     0.000 C 
HETATM    4  C3  UNL     1      21.495   1.313  50.570  1.00  0.00     0.033 C 
HETATM    5  C4  UNL     1      20.093   0.860  50.813  1.00  0.00     0.119 C 
HETATM    6  N1  UNL     1      19.130   0.338  51.466  1.00  0.00    -0.255 NA
HETATM    7  C5  UNL     1      19.388  -0.172  52.792  1.00  0.00     0.226 C 
HETATM    8  N2  UNL     1      19.920  -0.686  53.806  1.00  0.00    -0.279 NA
HETATM    9  C6  UNL     1      21.156  -1.254  54.148  1.00  0.00     0.186 C 
HETATM   10  C7  UNL     1      22.350  -0.724  53.373  1.00  0.00    -0.030 C 
HETATM   11  C8  UNL     1      22.028   0.006  52.356  1.00  0.00     0.021 C 
HETATM   12  C9  UNL     1      23.751  -0.456  52.985  1.00  0.00     0.174 C 
ENDROOT
BRANCH  12  13
HETATM   13  N3  UNL     1      24.648  -0.408  54.089  1.00  0.00    -0.375 N 
HETATM   14  H8  UNL     1      24.300  -0.349  55.069  1.00  0.00     0.160 HD
BRANCH  13  15
HETATM   15  C10 UNL     1      26.047  -0.442  53.842  1.00  0.00     0.030 A 
HETATM   16  C11 UNL     1      26.638  -1.486  53.163  1.00  0.00     0.029 A 
HETATM   17  C12 UNL     1      27.997  -1.565  52.898  1.00  0.00     0.004 A 
HETATM   18  C13 UNL     1      28.785  -0.524  53.353  1.00  0.00     0.019 A 
HETATM   19  C14 UNL     1      28.200   0.522  54.034  1.00  0.00     0.013 A 
HETATM   20 BR1  UNL     1      29.377   1.896  54.611  1.00  0.00    -0.051 Br
HETATM   21  C15 UNL     1      26.856   0.571  54.278  1.00  0.00     0.048 A 
ENDBRANCH  13  15
ENDBRANCH  12  13
TORSDOF 2
ENDMDL
MODEL 8
REMARK VINA RESULT:      -7.4      3.779      5.373
REMARK  2 active torsions:
REMARK  status: ('A' for Active; 'I' for Inactive)
REMARK    1  A    between atoms: C9_12  and  N3_13 
REMARK    2  A    between atoms: N3_13  and  C10_14 
ROOT
HETATM    1  O1  UNL     1      27.175   2.451  51.047  1.00  0.00    -0.193 OA
HETATM    2  C1  UNL     1      26.098   3.078  50.618  1.00  0.00     0.121 C 
HETATM    3  C2  UNL     1      26.726   3.989  49.673  1.00  0.00     0.000 C 
HETATM    4  C3  UNL     1      27.354   4.758  48.778  1.00  0.00     0.033 C 
HETATM    5  C4  UNL     1      27.050   6.212  48.622  1.00  0.00     0.119 C 
HETATM    6  N1  UNL     1      26.484   7.323  48.888  1.00  0.00    -0.255 NA
HETATM    7  C5  UNL     1      25.534   7.373  49.974  1.00  0.00     0.226 C 
HETATM    8  N2  UNL     1      24.644   7.094  50.815  1.00  0.00    -0.279 NA
HETATM    9  C6  UNL     1      23.827   5.999  51.129  1.00  0.00     0.186 C 
HETATM   10  C7  UNL     1      24.408   4.637  50.789  1.00  0.00    -0.030 C 
HETATM   11  C8  UNL     1      25.470   4.693  50.054  1.00  0.00     0.021 C 
HETATM   12  C9  UNL     1      24.587   3.171  50.747  1.00  0.00     0.174 C 
ENDROOT
BRANCH  12  13
HETATM   13  N3  UNL     1      24.141   2.509  51.926  1.00  0.00    -0.375 N 
HETATM   14  H8  UNL     1      24.601   2.670  52.846  1.00  0.00     0.160 HD
BRANCH  13  15
HETATM   15  C10 UNL     1      23.044   1.610  51.837  1.00  0.00     0.030 A 
HETATM   16  C11 UNL     1      22.264   1.527  50.704  1.00  0.00     0.029 A 
HETATM   17  C12 UNL     1      21.183   0.668  50.570  1.00  0.00     0.004 A 
HETATM   18  C13 UNL     1      20.890  -0.143  51.650  1.00  0.00     0.019 A 
HETATM   19  C14 UNL     1      21.667  -0.064  52.787  1.00  0.00     0.013 A 
HETATM   20 BR1  UNL     1      21.174  -1.225  54.207  1.00  0.00    -0.051 Br
HETATM   21  C15 UNL     1      22.726   0.793  52.888  1.00  0.00     0.048 A 
ENDBRANCH  13  15
ENDBRANCH  12  13
TORSDOF 2
ENDMDL
MODEL 9
REMARK VINA RESULT:      -7.3      3.875      6.749
REMARK  2 active torsions:
REMARK  status: ('A' for Active; 'I' for Inactive)
REMARK    1  A    between atoms: C9_12  and  N3_13 
REMARK    2  A    between atoms: N3_13  and  C10_14 
ROOT
HETATM    1  O1  UNL     1      26.619   4.413  49.038  1.00  0.00    -0.193 OA
HETATM    2  C1  UNL     1      25.807   3.764  49.850  1.00  0.00     0.121 C 
HETATM    3  C2  UNL     1      24.551   4.002  49.154  1.00  0.00     0.000 C 
HETATM    4  C3  UNL     1      23.441   4.203  48.438  1.00  0.00     0.033 C 
HETATM    5  C4  UNL     1      22.146   4.597  49.069  1.00  0.00     0.119 C 
HETATM    6  N1  UNL     1      21.360   4.927  50.017  1.00  0.00    -0.255 NA
HETATM    7  C5  UNL     1      21.893   5.026  51.356  1.00  0.00     0.226 C 
HETATM    8  N2  UNL     1      22.559   4.856  52.406  1.00  0.00    -0.279 NA
HETATM    9  C6  UNL     1      23.596   4.022  52.848  1.00  0.00     0.186 C 
HETATM   10  C7  UNL     1      24.546   3.538  51.766  1.00  0.00    -0.030 C 
HETATM   11  C8  UNL     1      24.132   3.777  50.565  1.00  0.00     0.021 C 
HETATM   12  C9  UNL     1      25.732   2.937  51.121  1.00  0.00     0.174 C 
ENDROOT
BRANCH  12  13
HETATM   13  N3  UNL     1      26.926   3.075  51.884  1.00  0.00    -0.375 N 
HETATM   14  H8  UNL     1      27.403   3.995  51.982  1.00  0.00     0.160 HD
BRANCH  13  15
HETATM   15  C10 UNL     1      27.472   1.929  52.523  1.00  0.00     0.030 A 
HETATM   16  C11 UNL     1      28.479   2.032  53.458  1.00  0.00     0.029 A 
HETATM   17  C12 UNL     1      29.045   0.945  54.107  1.00  0.00     0.004 A 
HETATM   18  C13 UNL     1      28.553  -0.306  53.781  1.00  0.00     0.019 A 
HETATM   19  C14 UNL     1      27.545  -0.414  52.846  1.00  0.00     0.013 A 
HETATM   20 BR1  UNL     1      26.946  -2.178  52.477  1.00  0.00    -0.051 Br
HETATM   21  C15 UNL     1      27.008   0.677  52.223  1.00  0.00     0.048 A 
ENDBRANCH  13  15
ENDBRANCH  12  13
TORSDOF 2
ENDMDL
