MODEL 1
REMARK VINA RESULT:      -8.0      0.000      0.000
REMARK  4 active torsions:
REMARK  status: ('A' for Active; 'I' for Inactive)
REMARK    1  A    between atoms: C2_2  and  C3_3 
REMARK    2  A    between atoms: C4_4  and  N1_5 
REMARK    3  A    between atoms: N1_5  and  C5_6 
REMARK    4  A    between atoms: C12_15  and  N4_16 
ROOT
HETATM    1  C5  UNL     1      24.239   0.449  53.210  1.00  0.00     0.072 A 
HETATM    2  C6  UNL     1      23.845  -0.501  54.168  1.00  0.00     0.090 A 
HETATM    3  C7  UNL     1      24.629  -0.900  55.280  1.00  0.00     0.103 C 
HETATM    4  N2  UNL     1      25.273  -1.230  56.173  1.00  0.00    -0.191 NA
HETATM    5  C8  UNL     1      22.596  -0.980  53.861  1.00  0.00     0.144 A 
HETATM    6  N3  UNL     1      21.922  -0.547  52.786  1.00  0.00    -0.239 NA
HETATM    7  C9  UNL     1      22.332   0.349  51.910  1.00  0.00     0.157 A 
HETATM    8  C10 UNL     1      23.582   0.918  52.099  1.00  0.00     0.026 A 
HETATM    9  C11 UNL     1      24.478   1.787  51.661  1.00  0.00     0.072 C 
HETATM   10  C12 UNL     1      25.194   2.789  50.910  1.00  0.00     0.267 C 
HETATM   11  C13 UNL     1      24.390   4.043  50.614  1.00  0.00     0.154 A 
HETATM   12  O1  UNL     1      23.480   3.514  49.945  1.00  0.00    -0.363 OA
HETATM   13  C14 UNL     1      23.409   5.014  50.157  1.00  0.00     0.169 A 
HETATM   14  C15 UNL     1      22.366   4.785  49.417  1.00  0.00     0.044 C 
HETATM   15  C16 UNL     1      21.358   4.142  48.614  1.00  0.00     0.129 C 
HETATM   16  N5  UNL     1      21.536   2.725  48.339  1.00  0.00    -0.392 N 
HETATM   17  C17 UNL     1      22.492   2.065  47.428  1.00  0.00     0.148 C 
HETATM   18  C18 UNL     1      20.783   1.723  48.983  1.00  0.00     0.104 C 
HETATM   19  C19 UNL     1      20.949   0.987  50.053  1.00  0.00     0.136 C 
HETATM   20  N6  UNL     1      21.294   0.309  51.196  1.00  0.00    -0.240 NA
ENDROOT
BRANCH   1  21
HETATM   21  N1  UNL     1      25.544   0.995  53.445  1.00  0.00    -0.313 N 
HETATM   22  H6  UNL     1      25.719   1.956  53.725  1.00  0.00     0.176 HD
BRANCH  21  23
HETATM   23  C4  UNL     1      26.540  -0.006  53.236  1.00  0.00     0.011 C 
HETATM   24  C3  UNL     1      27.396  -0.869  53.070  1.00  0.00    -0.084 C 
BRANCH  24  25
HETATM   25  C2  UNL     1      28.424  -1.874  52.881  1.00  0.00     0.091 C 
HETATM   26  C1  UNL     1      29.760  -1.433  53.460  1.00  0.00     0.018 C 
ENDBRANCH  24  25
ENDBRANCH  21  23
ENDBRANCH   1  21
BRANCH  10  27
HETATM   27  N4  UNL     1      26.415   3.228  51.611  1.00  0.00     0.086 N 
HETATM   28  H10 UNL     1      27.126   2.507  51.707  1.00  0.00     0.313 HD
HETATM   29  H11 UNL     1      26.259   3.768  52.444  1.00  0.00     0.313 HD
ENDBRANCH  10  27
TORSDOF 4
ENDMDL
MODEL 2
REMARK VINA RESULT:      -7.7      2.137      2.540
REMARK  4 active torsions:
REMARK  status: ('A' for Active; 'I' for Inactive)
REMARK    1  A    between atoms: C2_2  and  C3_3 
REMARK    2  A    between atoms: C4_4  and  N1_5 
REMARK    3  A    between atoms: N1_5  and  C5_6 
REMARK    4  A    between atoms: C12_15  and  N4_16 
ROOT
HETATM    1  C5  UNL     1      24.804   1.117  51.967  1.00  0.00     0.072 A 
HETATM    2  C6  UNL     1      24.727   0.048  52.877  1.00  0.00     0.090 A 
HETATM    3  C7  UNL     1      25.771  -0.878  53.127  1.00  0.00     0.103 C 
HETATM    4  N2  UNL     1      26.617  -1.633  53.318  1.00  0.00    -0.191 NA
HETATM    5  C8  UNL     1      23.493   0.037  53.478  1.00  0.00     0.144 A 
HETATM    6  N3  UNL     1      22.559   0.952  53.182  1.00  0.00    -0.239 NA
HETATM    7  C9  UNL     1      22.675   1.941  52.318  1.00  0.00     0.157 A 
HETATM    8  C10 UNL     1      23.875   2.071  51.635  1.00  0.00     0.026 A 
HETATM    9  C11 UNL     1      24.576   2.768  50.756  1.00  0.00     0.072 C 
HETATM   10  C12 UNL     1      25.019   3.733  49.780  1.00  0.00     0.267 C 
HETATM   11  C13 UNL     1      24.806   5.180  50.188  1.00  0.00     0.154 A 
HETATM   12  O1  UNL     1      23.562   5.151  50.291  1.00  0.00    -0.363 OA
HETATM   13  C14 UNL     1      24.257   6.467  50.584  1.00  0.00     0.169 A 
HETATM   14  C15 UNL     1      23.003   6.769  50.744  1.00  0.00     0.044 C 
HETATM   15  C16 UNL     1      21.566   6.705  50.809  1.00  0.00     0.129 C 
HETATM   16  N5  UNL     1      20.940   5.457  50.403  1.00  0.00    -0.392 N 
HETATM   17  C17 UNL     1      20.770   4.897  49.048  1.00  0.00     0.148 C 
HETATM   18  C18 UNL     1      20.407   4.535  51.327  1.00  0.00     0.104 C 
HETATM   19  C19 UNL     1      20.867   3.479  51.948  1.00  0.00     0.136 C 
HETATM   20  N6  UNL     1      21.518   2.406  52.504  1.00  0.00    -0.240 NA
ENDROOT
BRANCH   1  21
HETATM   21  N1  UNL     1      26.060   1.196  51.279  1.00  0.00    -0.313 N 
HETATM   22  H6  UNL     1      26.190   0.958  50.300  1.00  0.00     0.176 HD
BRANCH  21  23
HETATM   23  C4  UNL     1      27.076   1.663  52.166  1.00  0.00     0.011 C 
HETATM   24  C3  UNL     1      27.949   2.054  52.935  1.00  0.00    -0.084 C 
BRANCH  24  25
HETATM   25  C2  UNL     1      28.964   2.521  53.859  1.00  0.00     0.091 C 
HETATM   26  C1  UNL     1      29.464   1.404  54.763  1.00  0.00     0.018 C 
ENDBRANCH  24  25
ENDBRANCH  21  23
ENDBRANCH   1  21
BRANCH  10  27
HETATM   27  N4  UNL     1      26.456   3.588  49.483  1.00  0.00     0.086 N 
HETATM   28  H10 UNL     1      26.667   2.918  48.747  1.00  0.00     0.313 HD
HETATM   29  H11 UNL     1      27.055   3.521  50.287  1.00  0.00     0.313 HD
ENDBRANCH  10  27
TORSDOF 4
ENDMDL
MODEL 3
REMARK VINA RESULT:      -7.5      1.528      1.802
REMARK  4 active torsions:
REMARK  status: ('A' for Active; 'I' for Inactive)
REMARK    1  A    between atoms: C2_2  and  C3_3 
REMARK    2  A    between atoms: C4_4  and  N1_5 
REMARK    3  A    between atoms: N1_5  and  C5_6 
REMARK    4  A    between atoms: C12_15  and  N4_16 
ROOT
HETATM    1  C5  UNL     1      22.429   0.692  53.076  1.00  0.00     0.072 A 
HETATM    2  C6  UNL     1      21.894  -0.408  53.770  1.00  0.00     0.090 A 
HETATM    3  C7  UNL     1      22.510  -1.041  54.879  1.00  0.00     0.103 C 
HETATM    4  N2  UNL     1      23.018  -1.559  55.770  1.00  0.00    -0.191 NA
HETATM    5  C8  UNL     1      20.696  -0.773  53.209  1.00  0.00     0.144 A 
HETATM    6  N3  UNL     1      20.184  -0.119  52.157  1.00  0.00    -0.239 NA
HETATM    7  C9  UNL     1      20.722   0.912  51.536  1.00  0.00     0.157 A 
HETATM    8  C10 UNL     1      21.939   1.388  51.999  1.00  0.00     0.026 A 
HETATM    9  C11 UNL     1      22.897   2.290  51.863  1.00  0.00     0.072 C 
HETATM   10  C12 UNL     1      23.722   3.389  51.425  1.00  0.00     0.267 C 
HETATM   11  C13 UNL     1      22.981   4.706  51.272  1.00  0.00     0.154 A 
HETATM   12  O1  UNL     1      22.168   4.348  50.395  1.00  0.00    -0.363 OA
HETATM   13  C14 UNL     1      22.084   5.782  50.882  1.00  0.00     0.169 A 
HETATM   14  C15 UNL     1      21.153   5.737  49.977  1.00  0.00     0.044 C 
HETATM   15  C16 UNL     1      20.261   5.297  48.935  1.00  0.00     0.129 C 
HETATM   16  N5  UNL     1      20.461   3.953  48.418  1.00  0.00    -0.392 N 
HETATM   17  C17 UNL     1      21.529   3.443  47.535  1.00  0.00     0.148 C 
HETATM   18  C18 UNL     1      19.614   2.875  48.747  1.00  0.00     0.104 C 
HETATM   19  C19 UNL     1      19.621   1.943  49.667  1.00  0.00     0.136 C 
HETATM   20  N6  UNL     1      19.795   1.048  50.692  1.00  0.00    -0.240 NA
ENDROOT
BRANCH   1  21
HETATM   21  N1  UNL     1      23.693   1.134  53.588  1.00  0.00    -0.313 N 
HETATM   22  H6  UNL     1      23.822   1.975  54.144  1.00  0.00     0.176 HD
BRANCH  21  23
HETATM   23  C4  UNL     1      24.723   0.221  53.208  1.00  0.00     0.011 C 
HETATM   24  C3  UNL     1      25.616  -0.558  52.890  1.00  0.00    -0.084 C 
BRANCH  24  25
HETATM   25  C2  UNL     1      26.680  -1.463  52.500  1.00  0.00     0.091 C 
HETATM   26  C1  UNL     1      28.017  -1.057  53.104  1.00  0.00     0.018 C 
ENDBRANCH  24  25
ENDBRANCH  21  23
ENDBRANCH   1  21
BRANCH  10  27
HETATM   27  N4  UNL     1      24.836   3.641  52.357  1.00  0.00     0.086 N 
HETATM   28  H10 UNL     1      25.756   3.637  51.923  1.00  0.00     0.313 HD
HETATM   29  H11 UNL     1      24.788   3.140  53.227  1.00  0.00     0.313 HD
ENDBRANCH  10  27
TORSDOF 4
ENDMDL
MODEL 4
REMARK VINA RESULT:      -7.4      2.760      6.608
REMARK  4 active torsions:
REMARK  status: ('A' for Active; 'I' for Inactive)
REMARK    1  A    between atoms: C2_2  and  C3_3 
REMARK    2  A    between atoms: C4_4  and  N1_5 
REMARK    3  A    between atoms: N1_5  and  C5_6 
REMARK    4  A    between atoms: C12_15  and  N4_16 
ROOT
HETATM    1  C5  UNL     1      22.707   5.045  48.678  1.00  0.00     0.072 A 
HETATM    2  C6  UNL     1      22.509   5.216  47.297  1.00  0.00     0.090 A 
HETATM    3  C7  UNL     1      22.847   6.386  46.570  1.00  0.00     0.103 C 
HETATM    4  N2  UNL     1      23.111   7.341  45.988  1.00  0.00    -0.191 NA
HETATM    5  C8  UNL     1      21.939   4.086  46.765  1.00  0.00     0.144 A 
HETATM    6  N3  UNL     1      21.650   3.021  47.526  1.00  0.00    -0.239 NA
HETATM    7  C9  UNL     1      21.854   2.904  48.824  1.00  0.00     0.157 A 
HETATM    8  C10 UNL     1      22.426   3.975  49.491  1.00  0.00     0.026 A 
HETATM    9  C11 UNL     1      22.868   4.451  50.644  1.00  0.00     0.072 C 
HETATM   10  C12 UNL     1      23.232   4.629  52.029  1.00  0.00     0.267 C 
HETATM   11  C13 UNL     1      24.066   3.500  52.607  1.00  0.00     0.154 A 
HETATM   12  O1  UNL     1      23.241   2.576  52.452  1.00  0.00    -0.363 OA
HETATM   13  C14 UNL     1      24.575   2.223  53.081  1.00  0.00     0.169 A 
HETATM   14  C15 UNL     1      23.951   1.084  53.088  1.00  0.00     0.044 C 
HETATM   15  C16 UNL     1      22.955   0.055  52.931  1.00  0.00     0.129 C 
HETATM   16  N5  UNL     1      21.651   0.466  52.437  1.00  0.00    -0.392 N 
HETATM   17  C17 UNL     1      20.582   1.208  53.132  1.00  0.00     0.148 C 
HETATM   18  C18 UNL     1      21.224   0.220  51.116  1.00  0.00     0.104 C 
HETATM   19  C19 UNL     1      21.265   0.889  49.992  1.00  0.00     0.136 C 
HETATM   20  N6  UNL     1      21.397   1.732  48.917  1.00  0.00    -0.240 NA
ENDROOT
BRANCH   1  21
HETATM   21  N1  UNL     1      23.289   6.188  49.320  1.00  0.00    -0.313 N 
HETATM   22  H6  UNL     1      22.774   6.833  49.913  1.00  0.00     0.176 HD
BRANCH  21  23
HETATM   23  C4  UNL     1      24.680   6.271  49.010  1.00  0.00     0.011 C 
HETATM   24  C3  UNL     1      25.873   6.343  48.731  1.00  0.00    -0.084 C 
BRANCH  24  25
HETATM   25  C2  UNL     1      27.282   6.406  48.396  1.00  0.00     0.091 C 
HETATM   26  C1  UNL     1      27.957   5.049  48.531  1.00  0.00     0.018 C 
ENDBRANCH  24  25
ENDBRANCH  21  23
ENDBRANCH   1  21
BRANCH  10  27
HETATM   27  N4  UNL     1      24.003   5.869  52.235  1.00  0.00     0.086 N 
HETATM   28  H10 UNL     1      23.867   6.301  53.146  1.00  0.00     0.313 HD
HETATM   29  H11 UNL     1      23.988   6.515  51.465  1.00  0.00     0.313 HD
ENDBRANCH  10  27
TORSDOF 4
ENDMDL
MODEL 5
REMARK VINA RESULT:      -7.3      2.535      5.242
REMARK  4 active torsions:
REMARK  status: ('A' for Active; 'I' for Inactive)
REMARK    1  A    between atoms: C2_2  and  C3_3 
REMARK    2  A    between atoms: C4_4  and  N1_5 
REMARK    3  A    between atoms: N1_5  and  C5_6 
REMARK    4  A    between atoms: C12_15  and  N4_16 
ROOT
HETATM    1  C5  UNL     1      24.665   2.413  52.125  1.00  0.00     0.072 A 
HETATM    2  C6  UNL     1      25.266   1.163  52.355  1.00  0.00     0.090 A 
HETATM    3  C7  UNL     1      24.761   0.173  53.235  1.00  0.00     0.103 C 
HETATM    4  N2  UNL     1      24.354  -0.622  53.959  1.00  0.00    -0.191 NA
HETATM    5  C8  UNL     1      26.410   1.052  51.605  1.00  0.00     0.144 A 
HETATM    6  N3  UNL     1      26.818   2.040  50.797  1.00  0.00    -0.239 NA
HETATM    7  C9  UNL     1      26.221   3.201  50.611  1.00  0.00     0.157 A 
HETATM    8  C10 UNL     1      25.049   3.448  51.309  1.00  0.00     0.026 A 
HETATM    9  C11 UNL     1      24.059   4.293  51.542  1.00  0.00     0.072 C 
HETATM   10  C12 UNL     1      23.172   5.432  51.547  1.00  0.00     0.267 C 
HETATM   11  C13 UNL     1      22.744   5.898  50.167  1.00  0.00     0.154 A 
HETATM   12  O1  UNL     1      23.874   6.183  49.720  1.00  0.00    -0.363 OA
HETATM   13  C14 UNL     1      22.685   6.398  48.802  1.00  0.00     0.169 A 
HETATM   14  C15 UNL     1      23.680   6.807  48.074  1.00  0.00     0.044 C 
HETATM   15  C16 UNL     1      24.996   7.164  47.611  1.00  0.00     0.129 C 
HETATM   16  N5  UNL     1      26.086   7.054  48.568  1.00  0.00    -0.392 N 
HETATM   17  C17 UNL     1      26.404   7.917  49.723  1.00  0.00     0.148 C 
HETATM   18  C18 UNL     1      27.030   6.007  48.531  1.00  0.00     0.104 C 
HETATM   19  C19 UNL     1      27.128   4.831  49.098  1.00  0.00     0.136 C 
HETATM   20  N6  UNL     1      27.059   3.641  49.778  1.00  0.00    -0.240 NA
ENDROOT
BRANCH   1  21
HETATM   21  N1  UNL     1      23.465   2.622  52.882  1.00  0.00    -0.313 N 
HETATM   22  H6  UNL     1      23.404   3.221  53.700  1.00  0.00     0.176 HD
BRANCH  21  23
HETATM   23  C4  UNL     1      22.389   1.876  52.313  1.00  0.00     0.011 C 
HETATM   24  C3  UNL     1      21.470   1.224  51.828  1.00  0.00    -0.084 C 
BRANCH  24  25
HETATM   25  C2  UNL     1      20.396   0.449  51.236  1.00  0.00     0.091 C 
HETATM   26  C1  UNL     1      19.378   0.007  52.277  1.00  0.00     0.018 C 
ENDBRANCH  24  25
ENDBRANCH  21  23
ENDBRANCH   1  21
BRANCH  10  27
HETATM   27  N4  UNL     1      21.935   5.156  52.300  1.00  0.00     0.086 N 
HETATM   28  H10 UNL     1      21.142   4.888  51.721  1.00  0.00     0.313 HD
HETATM   29  H11 UNL     1      21.714   5.822  53.020  1.00  0.00     0.313 HD
ENDBRANCH  10  27
TORSDOF 4
ENDMDL
MODEL 6
REMARK VINA RESULT:      -7.1      2.628      7.106
REMARK  4 active torsions:
REMARK  status: ('A' for Active; 'I' for Inactive)
REMARK    1  A    between atoms: C2_2  and  C3_3 
REMARK    2  A    between atoms: C4_4  and  N1_5 
REMARK    3  A    between atoms: N1_5  and  C5_6 
REMARK    4  A    between atoms: C12_15  and  N4_16 
ROOT
HETATM    1  C5  UNL     1      21.279   1.992  52.482  1.00  0.00     0.072 A 
HETATM    2  C6  UNL     1      20.704   3.167  51.966  1.00  0.00     0.090 A 
HETATM    3  C7  UNL     1      19.317   3.462  51.981  1.00  0.00     0.103 C 
HETATM    4  N2  UNL     1      18.191   3.692  51.984  1.00  0.00    -0.191 NA
HETATM    5  C8  UNL     1      21.684   3.975  51.447  1.00  0.00     0.144 A 
HETATM    6  N3  UNL     1      22.976   3.618  51.472  1.00  0.00    -0.239 NA
HETATM    7  C9  UNL     1      23.473   2.502  51.969  1.00  0.00     0.157 A 
HETATM    8  C10 UNL     1      22.591   1.590  52.528  1.00  0.00     0.026 A 
HETATM    9  C11 UNL     1      22.445   0.429  53.144  1.00  0.00     0.072 C 
HETATM   10  C12 UNL     1      22.666  -0.850  53.776  1.00  0.00     0.267 C 
HETATM   11  C13 UNL     1      23.733  -0.839  54.856  1.00  0.00     0.154 A 
HETATM   12  O1  UNL     1      24.698  -0.491  54.146  1.00  0.00    -0.363 OA
HETATM   13  C14 UNL     1      24.966  -0.729  55.620  1.00  0.00     0.169 A 
HETATM   14  C15 UNL     1      26.143  -0.420  55.166  1.00  0.00     0.044 C 
HETATM   15  C16 UNL     1      27.239  -0.060  54.304  1.00  0.00     0.129 C 
HETATM   16  N5  UNL     1      26.956   0.038  52.881  1.00  0.00    -0.392 N 
HETATM   17  C17 UNL     1      26.715  -1.039  51.902  1.00  0.00     0.148 C 
HETATM   18  C18 UNL     1      26.832   1.273  52.212  1.00  0.00     0.104 C 
HETATM   19  C19 UNL     1      25.835   2.068  51.918  1.00  0.00     0.136 C 
HETATM   20  N6  UNL     1      24.675   2.769  51.700  1.00  0.00    -0.240 NA
ENDROOT
BRANCH   1  21
HETATM   21  N1  UNL     1      20.322   1.079  53.035  1.00  0.00    -0.313 N 
HETATM   22  H6  UNL     1      20.295   0.802  54.012  1.00  0.00     0.176 HD
BRANCH  21  23
HETATM   23  C4  UNL     1      19.423   0.635  52.019  1.00  0.00     0.011 C 
HETATM   24  C3  UNL     1      18.646   0.265  51.144  1.00  0.00    -0.084 C 
BRANCH  24  25
HETATM   25  C2  UNL     1      17.711  -0.173  50.125  1.00  0.00     0.091 C 
HETATM   26  C1  UNL     1      16.365  -0.557  50.721  1.00  0.00     0.018 C 
ENDBRANCH  24  25
ENDBRANCH  21  23
ENDBRANCH   1  21
BRANCH  10  27
HETATM   27  N4  UNL     1      21.437  -1.368  54.404  1.00  0.00     0.086 N 
HETATM   28  H10 UNL     1      20.602  -0.820  54.209  1.00  0.00     0.313 HD
HETATM   29  H11 UNL     1      21.532  -1.646  55.365  1.00  0.00     0.313 HD
ENDBRANCH  10  27
TORSDOF 4
ENDMDL
MODEL 7
REMARK VINA RESULT:      -7.0      2.216      6.250
REMARK  4 active torsions:
REMARK  status: ('A' for Active; 'I' for Inactive)
REMARK    1  A    between atoms: C2_2  and  C3_3 
REMARK    2  A    between atoms: C4_4  and  N1_5 
REMARK    3  A    between atoms: N1_5  and  C5_6 
REMARK    4  A    between atoms: C12_15  and  N4_16 
ROOT
HETATM    1  C5  UNL     1      21.042   2.797  52.072  1.00  0.00     0.072 A 
HETATM    2  C6  UNL     1      19.700   2.391  51.977  1.00  0.00     0.090 A 
HETATM    3  C7  UNL     1      18.627   3.231  51.583  1.00  0.00     0.103 C 
HETATM    4  N2  UNL     1      17.759   3.918  51.275  1.00  0.00    -0.191 NA
HETATM    5  C8  UNL     1      19.589   1.068  52.325  1.00  0.00     0.144 A 
HETATM    6  N3  UNL     1      20.657   0.345  52.688  1.00  0.00    -0.239 NA
HETATM    7  C9  UNL     1      21.904   0.768  52.763  1.00  0.00     0.157 A 
HETATM    8  C10 UNL     1      22.161   2.091  52.438  1.00  0.00     0.026 A 
HETATM    9  C11 UNL     1      23.076   3.037  52.298  1.00  0.00     0.072 C 
HETATM   10  C12 UNL     1      24.307   3.788  52.261  1.00  0.00     0.267 C 
HETATM   11  C13 UNL     1      25.427   3.117  51.485  1.00  0.00     0.154 A 
HETATM   12  O1  UNL     1      25.526   2.085  52.180  1.00  0.00    -0.363 OA
HETATM   13  C14 UNL     1      26.459   2.219  50.991  1.00  0.00     0.169 A 
HETATM   14  C15 UNL     1      26.825   1.086  51.509  1.00  0.00     0.044 C 
HETATM   15  C16 UNL     1      26.937  -0.070  52.361  1.00  0.00     0.129 C 
HETATM   16  N5  UNL     1      26.106  -0.095  53.554  1.00  0.00    -0.392 N 
HETATM   17  C17 UNL     1      26.248   0.675  54.806  1.00  0.00     0.148 C 
HETATM   18  C18 UNL     1      24.950  -0.895  53.662  1.00  0.00     0.104 C 
HETATM   19  C19 UNL     1      23.675  -0.710  53.430  1.00  0.00     0.136 C 
HETATM   20  N6  UNL     1      22.388  -0.335  53.134  1.00  0.00    -0.240 NA
ENDROOT
BRANCH   1  21
HETATM   21  N1  UNL     1      21.250   4.176  51.738  1.00  0.00    -0.313 N 
HETATM   22  H6  UNL     1      21.395   4.913  52.422  1.00  0.00     0.176 HD
BRANCH  21  23
HETATM   23  C4  UNL     1      21.231   4.347  50.321  1.00  0.00     0.011 C 
HETATM   24  C3  UNL     1      21.218   4.506  49.104  1.00  0.00    -0.084 C 
BRANCH  24  25
HETATM   25  C2  UNL     1      21.181   4.704  47.668  1.00  0.00     0.091 C 
HETATM   26  C1  UNL     1      21.841   3.554  46.922  1.00  0.00     0.018 C 
ENDBRANCH  24  25
ENDBRANCH  21  23
ENDBRANCH   1  21
BRANCH  10  27
HETATM   27  N4  UNL     1      24.115   5.119  51.655  1.00  0.00     0.086 N 
HETATM   28  H10 UNL     1      24.978   5.627  51.476  1.00  0.00     0.313 HD
HETATM   29  H11 UNL     1      23.386   5.675  52.064  1.00  0.00     0.313 HD
ENDBRANCH  10  27
TORSDOF 4
ENDMDL
MODEL 8
REMARK VINA RESULT:      -6.9      8.179     10.674
REMARK  4 active torsions:
REMARK  status: ('A' for Active; 'I' for Inactive)
REMARK    1  A    between atoms: C2_2  and  C3_3 
REMARK    2  A    between atoms: C4_4  and  N1_5 
REMARK    3  A    between atoms: N1_5  and  C5_6 
REMARK    4  A    between atoms: C12_15  and  N4_16 
ROOT
HETATM    1  C5  UNL     1      32.190   7.342  48.520  1.00  0.00     0.072 A 
HETATM    2  C6  UNL     1      33.202   6.367  48.496  1.00  0.00     0.090 A 
HETATM    3  C7  UNL     1      34.593   6.644  48.514  1.00  0.00     0.103 C 
HETATM    4  N2  UNL     1      35.719   6.874  48.516  1.00  0.00    -0.191 NA
HETATM    5  C8  UNL     1      32.641   5.115  48.451  1.00  0.00     0.144 A 
HETATM    6  N3  UNL     1      31.312   4.942  48.435  1.00  0.00    -0.239 NA
HETATM    7  C9  UNL     1      30.396   5.889  48.459  1.00  0.00     0.157 A 
HETATM    8  C10 UNL     1      30.824   7.207  48.505  1.00  0.00     0.026 A 
HETATM    9  C11 UNL     1      30.474   8.481  48.563  1.00  0.00     0.072 C 
HETATM   10  C12 UNL     1      29.741   9.723  48.616  1.00  0.00     0.267 C 
HETATM   11  C13 UNL     1      28.667   9.770  49.690  1.00  0.00     0.154 A 
HETATM   12  O1  UNL     1      27.965   8.825  49.276  1.00  0.00    -0.363 OA
HETATM   13  C14 UNL     1      27.504   9.541  50.532  1.00  0.00     0.169 A 
HETATM   14  C15 UNL     1      26.569   8.657  50.353  1.00  0.00     0.044 C 
HETATM   15  C16 UNL     1      25.763   7.590  49.820  1.00  0.00     0.129 C 
HETATM   16  N5  UNL     1      26.182   7.016  48.551  1.00  0.00    -0.392 N 
HETATM   17  C17 UNL     1      26.086   7.587  47.193  1.00  0.00     0.148 C 
HETATM   18  C18 UNL     1      26.813   5.759  48.453  1.00  0.00     0.104 C 
HETATM   19  C19 UNL     1      28.055   5.348  48.435  1.00  0.00     0.136 C 
HETATM   20  N6  UNL     1      29.406   5.108  48.432  1.00  0.00    -0.240 NA
ENDROOT
BRANCH   1  21
HETATM   21  N1  UNL     1      32.688   8.686  48.554  1.00  0.00    -0.313 N 
HETATM   22  H6  UNL     1      32.690   9.273  49.383  1.00  0.00     0.176 HD
BRANCH  21  23
HETATM   23  C4  UNL     1      33.180   9.061  47.267  1.00  0.00     0.011 C 
HETATM   24  C3  UNL     1      33.602   9.395  46.164  1.00  0.00    -0.084 C 
BRANCH  24  25
HETATM   25  C2  UNL     1      34.079   9.796  44.855  1.00  0.00     0.091 C 
HETATM   26  C1  UNL     1      35.582   9.606  44.718  1.00  0.00     0.018 C 
ENDBRANCH  24  25
ENDBRANCH  21  23
ENDBRANCH   1  21
BRANCH  10  27
HETATM   27  N4  UNL     1      30.631  10.872  48.861  1.00  0.00     0.086 N 
HETATM   28  H10 UNL     1      31.178  11.159  48.053  1.00  0.00     0.313 HD
HETATM   29  H11 UNL     1      31.152  10.835  49.720  1.00  0.00     0.313 HD
ENDBRANCH  10  27
TORSDOF 4
ENDMDL
MODEL 9
REMARK VINA RESULT:      -6.9      5.824      9.283
REMARK  4 active torsions:
REMARK  status: ('A' for Active; 'I' for Inactive)
REMARK    1  A    between atoms: C2_2  and  C3_3 
REMARK    2  A    between atoms: C4_4  and  N1_5 
REMARK    3  A    between atoms: N1_5  and  C5_6 
REMARK    4  A    between atoms: C12_15  and  N4_16 
ROOT
HETATM    1  C5  UNL     1      28.512   7.356  47.335  1.00  0.00     0.072 A 
HETATM    2  C6  UNL     1      29.868   7.033  47.157  1.00  0.00     0.090 A 
HETATM    3  C7  UNL     1      30.811   7.847  46.481  1.00  0.00     0.103 C 
HETATM    4  N2  UNL     1      31.570   8.505  45.922  1.00  0.00    -0.191 NA
HETATM    5  C8  UNL     1      30.134   5.815  47.731  1.00  0.00     0.144 A 
HETATM    6  N3  UNL     1      29.180   5.107  48.351  1.00  0.00    -0.239 NA
HETATM    7  C9  UNL     1      27.915   5.451  48.495  1.00  0.00     0.157 A 
HETATM    8  C10 UNL     1      27.506   6.662  47.961  1.00  0.00     0.026 A 
HETATM    9  C11 UNL     1      26.508   7.514  47.790  1.00  0.00     0.072 C 
HETATM   10  C12 UNL     1      25.226   8.174  47.792  1.00  0.00     0.267 C 
HETATM   11  C13 UNL     1      24.575   8.272  49.161  1.00  0.00     0.154 A 
HETATM   12  O1  UNL     1      24.476   7.050  49.395  1.00  0.00    -0.363 OA
HETATM   13  C14 UNL     1      23.963   8.008  50.454  1.00  0.00     0.169 A 
HETATM   14  C15 UNL     1      23.694   6.846  50.971  1.00  0.00     0.044 C 
HETATM   15  C16 UNL     1      23.560   5.429  51.184  1.00  0.00     0.129 C 
HETATM   16  N5  UNL     1      23.954   4.555  50.090  1.00  0.00    -0.392 N 
HETATM   17  C17 UNL     1      23.266   4.293  48.811  1.00  0.00     0.148 C 
HETATM   18  C18 UNL     1      25.156   3.817  50.099  1.00  0.00     0.104 C 
HETATM   19  C19 UNL     1      26.371   4.026  49.660  1.00  0.00     0.136 C 
HETATM   20  N6  UNL     1      27.577   4.418  49.135  1.00  0.00    -0.240 NA
ENDROOT
BRANCH   1  21
HETATM   21  N1  UNL     1      28.139   8.612  46.751  1.00  0.00    -0.313 N 
HETATM   22  H6  UNL     1      27.576   8.707  45.911  1.00  0.00     0.176 HD
BRANCH  21  23
HETATM   23  C4  UNL     1      28.666   9.689  47.526  1.00  0.00     0.011 C 
HETATM   24  C3  UNL     1      29.116  10.623  48.183  1.00  0.00    -0.084 C 
BRANCH  24  25
HETATM   25  C2  UNL     1      29.666  11.726  48.947  1.00  0.00     0.091 C 
HETATM   26  C1  UNL     1      28.700  12.899  49.023  1.00  0.00     0.018 C 
ENDBRANCH  24  25
ENDBRANCH  21  23
ENDBRANCH   1  21
BRANCH  10  27
HETATM   27  N4  UNL     1      25.320   9.551  47.273  1.00  0.00     0.086 N 
HETATM   28  H10 UNL     1      26.252   9.822  46.969  1.00  0.00     0.313 HD
HETATM   29  H11 UNL     1      24.844  10.248  47.819  1.00  0.00     0.313 HD
ENDBRANCH  10  27
TORSDOF 4
ENDMDL
