MODEL 1
REMARK VINA RESULT:      -9.2      0.000      0.000
REMARK  4 active torsions:
REMARK  status: ('A' for Active; 'I' for Inactive)
REMARK    1  A    between atoms: C2_2  and  C3_3 
REMARK       I    between atoms: C3_3  and  N1_5 
REMARK    2  A    between atoms: N1_5  and  C4_6 
REMARK    3  A    between atoms: C8_10  and  C9_11 
REMARK    4  A    between atoms: C10_12  and  C11_13 
ROOT
HETATM    1  C9  UNL     1      25.375   1.180  53.322  1.00  0.00     0.025 A 
HETATM    2  C10 UNL     1      24.884  -0.031  53.733  1.00  0.00     0.100 A 
HETATM    3  O2  UNL     1      25.855  -0.809  54.144  1.00  0.00    -0.289 OA
HETATM    4  C17 UNL     1      26.984  -0.191  54.035  1.00  0.00     0.183 A 
HETATM    5  N2  UNL     1      28.243  -0.601  54.337  1.00  0.00    -0.217 NA
HETATM    6  C18 UNL     1      29.278   0.254  54.125  1.00  0.00     0.235 A 
HETATM    7  N3  UNL     1      29.105   1.478  53.632  1.00  0.00    -0.253 NA
HETATM    8  C19 UNL     1      27.854   1.872  53.338  1.00  0.00     0.134 A 
HETATM    9  C20 UNL     1      26.737   1.082  53.515  1.00  0.00     0.049 A 
ENDROOT
BRANCH   1  10
HETATM   10  C8  UNL     1      24.713   2.365  52.790  1.00  0.00    -0.020 A 
HETATM   11  C7  UNL     1      24.232   3.499  53.408  1.00  0.00     0.012 A 
HETATM   12  C6  UNL     1      23.640   4.494  52.663  1.00  0.00     0.003 A 
HETATM   13  C5  UNL     1      23.501   4.408  51.294  1.00  0.00     0.029 A 
HETATM   14  C4  UNL     1      23.980   3.273  50.664  1.00  0.00     0.035 A 
HETATM   15  C21 UNL     1      24.581   2.256  51.399  1.00  0.00     0.042 A 
BRANCH  14  16
HETATM   16  N1  UNL     1      23.829   3.194  49.233  1.00  0.00    -0.324 N 
HETATM   17  C3  UNL     1      22.646   2.501  48.844  1.00  0.00     0.244 C 
HETATM   18  O1  UNL     1      21.829   2.015  49.668  1.00  0.00    -0.268 OA
HETATM   19  H4  UNL     1      24.525   3.608  48.583  1.00  0.00     0.169 HD
BRANCH  17  20
HETATM   20  C2  UNL     1      22.402   2.367  47.391  1.00  0.00     0.064 C 
HETATM   21  C1  UNL     1      21.953   3.337  46.612  1.00  0.00     0.017 C 
ENDBRANCH  17  20
ENDBRANCH  14  16
ENDBRANCH   1  10
BRANCH   2  22
HETATM   22  C11 UNL     1      23.485  -0.409  53.719  1.00  0.00    -0.001 A 
HETATM   23  C12 UNL     1      22.493  -0.157  52.795  1.00  0.00     0.014 A 
HETATM   24  C13 UNL     1      21.216  -0.633  53.019  1.00  0.00     0.001 A 
HETATM   25  C14 UNL     1      20.873  -1.361  54.139  1.00  0.00     0.000 A 
HETATM   26  C15 UNL     1      21.859  -1.613  55.060  1.00  0.00     0.001 A 
HETATM   27  C16 UNL     1      23.155  -1.144  54.856  1.00  0.00     0.014 A 
ENDBRANCH   2  22
TORSDOF 4
ENDMDL
MODEL 2
REMARK VINA RESULT:      -8.9      2.584      4.882
REMARK  4 active torsions:
REMARK  status: ('A' for Active; 'I' for Inactive)
REMARK    1  A    between atoms: C2_2  and  C3_3 
REMARK       I    between atoms: C3_3  and  N1_5 
REMARK    2  A    between atoms: N1_5  and  C4_6 
REMARK    3  A    between atoms: C8_10  and  C9_11 
REMARK    4  A    between atoms: C10_12  and  C11_13 
ROOT
HETATM    1  C9  UNL     1      24.803   0.578  53.158  1.00  0.00     0.025 A 
HETATM    2  C10 UNL     1      25.567  -0.258  53.929  1.00  0.00     0.100 A 
HETATM    3  O2  UNL     1      24.808  -1.031  54.667  1.00  0.00    -0.289 OA
HETATM    4  C17 UNL     1      23.564  -0.766  54.439  1.00  0.00     0.183 A 
HETATM    5  N2  UNL     1      22.439  -1.310  54.968  1.00  0.00    -0.217 NA
HETATM    6  C18 UNL     1      21.231  -0.847  54.554  1.00  0.00     0.235 A 
HETATM    7  N3  UNL     1      21.108   0.121  53.649  1.00  0.00    -0.253 NA
HETATM    8  C19 UNL     1      22.230   0.652  53.133  1.00  0.00     0.134 A 
HETATM    9  C20 UNL     1      23.503   0.253  53.485  1.00  0.00     0.049 A 
ENDROOT
BRANCH   1  10
HETATM   10  C8  UNL     1      25.164   1.603  52.188  1.00  0.00    -0.020 A 
HETATM   11  C7  UNL     1      26.070   1.603  51.149  1.00  0.00     0.012 A 
HETATM   12  C6  UNL     1      26.222   2.722  50.363  1.00  0.00     0.003 A 
HETATM   13  C5  UNL     1      25.493   3.874  50.570  1.00  0.00     0.029 A 
HETATM   14  C4  UNL     1      24.581   3.886  51.610  1.00  0.00     0.035 A 
HETATM   15  C21 UNL     1      24.413   2.764  52.416  1.00  0.00     0.042 A 
BRANCH  14  16
HETATM   16  N1  UNL     1      23.826   5.096  51.817  1.00  0.00    -0.324 N 
HETATM   17  C3  UNL     1      22.616   5.123  51.063  1.00  0.00     0.244 C 
HETATM   18  O1  UNL     1      22.256   4.187  50.304  1.00  0.00    -0.268 OA
HETATM   19  H4  UNL     1      24.156   5.848  52.452  1.00  0.00     0.169 HD
BRANCH  17  20
HETATM   20  C2  UNL     1      21.770   6.328  51.208  1.00  0.00     0.064 C 
HETATM   21  C1  UNL     1      21.899   7.427  50.484  1.00  0.00     0.017 C 
ENDBRANCH  17  20
ENDBRANCH  14  16
ENDBRANCH   1  10
BRANCH   2  22
HETATM   22  C11 UNL     1      27.016  -0.290  53.935  1.00  0.00    -0.001 A 
HETATM   23  C12 UNL     1      27.933   0.543  54.541  1.00  0.00     0.014 A 
HETATM   24  C13 UNL     1      29.283   0.295  54.388  1.00  0.00     0.001 A 
HETATM   25  C14 UNL     1      29.773  -0.761  53.649  1.00  0.00     0.000 A 
HETATM   26  C15 UNL     1      28.862  -1.592  53.046  1.00  0.00     0.001 A 
HETATM   27  C16 UNL     1      27.495  -1.362  53.185  1.00  0.00     0.014 A 
ENDBRANCH   2  22
TORSDOF 4
ENDMDL
MODEL 3
REMARK VINA RESULT:      -8.5      2.189      4.466
REMARK  4 active torsions:
REMARK  status: ('A' for Active; 'I' for Inactive)
REMARK    1  A    between atoms: C2_2  and  C3_3 
REMARK       I    between atoms: C3_3  and  N1_5 
REMARK    2  A    between atoms: N1_5  and  C4_6 
REMARK    3  A    between atoms: C8_10  and  C9_11 
REMARK    4  A    between atoms: C10_12  and  C11_13 
ROOT
HETATM    1  C9  UNL     1      23.526   0.967  53.135  1.00  0.00     0.025 A 
HETATM    2  C10 UNL     1      24.507   0.160  53.647  1.00  0.00     0.100 A 
HETATM    3  O2  UNL     1      23.988  -0.910  54.197  1.00  0.00    -0.289 OA
HETATM    4  C17 UNL     1      22.701  -0.875  54.087  1.00  0.00     0.183 A 
HETATM    5  N2  UNL     1      21.760  -1.759  54.505  1.00  0.00    -0.217 NA
HETATM    6  C18 UNL     1      20.451  -1.484  54.263  1.00  0.00     0.235 A 
HETATM    7  N3  UNL     1      20.056  -0.381  53.631  1.00  0.00    -0.253 NA
HETATM    8  C19 UNL     1      20.999   0.485  53.222  1.00  0.00     0.134 A 
HETATM    9  C20 UNL     1      22.352   0.301  53.418  1.00  0.00     0.049 A 
ENDROOT
BRANCH   1  10
HETATM   10  C8  UNL     1      23.587   2.245  52.437  1.00  0.00    -0.020 A 
HETATM   11  C7  UNL     1      23.708   3.537  52.901  1.00  0.00     0.012 A 
HETATM   12  C6  UNL     1      23.747   4.589  52.015  1.00  0.00     0.003 A 
HETATM   13  C5  UNL     1      23.667   4.409  50.651  1.00  0.00     0.029 A 
HETATM   14  C4  UNL     1      23.546   3.117  50.173  1.00  0.00     0.035 A 
HETATM   15  C21 UNL     1      23.504   2.039  51.053  1.00  0.00     0.042 A 
BRANCH  14  16
HETATM   16  N1  UNL     1      23.463   2.941  48.746  1.00  0.00    -0.324 N 
HETATM   17  C3  UNL     1      22.138   3.110  48.248  1.00  0.00     0.244 C 
HETATM   18  O1  UNL     1      21.155   3.383  48.983  1.00  0.00    -0.268 OA
HETATM   19  H4  UNL     1      24.298   2.716  48.170  1.00  0.00     0.169 HD
BRANCH  17  20
HETATM   20  C2  UNL     1      21.951   2.948  46.789  1.00  0.00     0.064 C 
HETATM   21  C1  UNL     1      21.892   3.947  45.924  1.00  0.00     0.017 C 
ENDBRANCH  17  20
ENDBRANCH  14  16
ENDBRANCH   1  10
BRANCH   2  22
HETATM   22  C11 UNL     1      25.928   0.442  53.592  1.00  0.00    -0.001 A 
HETATM   23  C12 UNL     1      26.626   1.603  53.847  1.00  0.00     0.014 A 
HETATM   24  C13 UNL     1      28.001   1.615  53.718  1.00  0.00     0.001 A 
HETATM   25  C14 UNL     1      28.728   0.504  53.341  1.00  0.00     0.000 A 
HETATM   26  C15 UNL     1      28.035  -0.653  53.086  1.00  0.00     0.001 A 
HETATM   27  C16 UNL     1      26.648  -0.689  53.209  1.00  0.00     0.014 A 
ENDBRANCH   2  22
TORSDOF 4
ENDMDL
MODEL 4
REMARK VINA RESULT:      -8.4      2.429      2.825
REMARK  4 active torsions:
REMARK  status: ('A' for Active; 'I' for Inactive)
REMARK    1  A    between atoms: C2_2  and  C3_3 
REMARK       I    between atoms: C3_3  and  N1_5 
REMARK    2  A    between atoms: N1_5  and  C4_6 
REMARK    3  A    between atoms: C8_10  and  C9_11 
REMARK    4  A    between atoms: C10_12  and  C11_13 
ROOT
HETATM    1  C9  UNL     1      24.704   1.722  52.993  1.00  0.00     0.025 A 
HETATM    2  C10 UNL     1      23.995   0.570  53.214  1.00  0.00     0.100 A 
HETATM    3  O2  UNL     1      24.742  -0.327  53.808  1.00  0.00    -0.289 OA
HETATM    4  C17 UNL     1      25.926   0.151  54.005  1.00  0.00     0.183 A 
HETATM    5  N2  UNL     1      27.017  -0.413  54.580  1.00  0.00    -0.217 NA
HETATM    6  C18 UNL     1      28.162   0.314  54.667  1.00  0.00     0.235 A 
HETATM    7  N3  UNL     1      28.254   1.560  54.208  1.00  0.00    -0.253 NA
HETATM    8  C19 UNL     1      27.166   2.107  53.640  1.00  0.00     0.134 A 
HETATM    9  C20 UNL     1      25.958   1.455  53.504  1.00  0.00     0.049 A 
ENDROOT
BRANCH   1  10
HETATM   10  C8  UNL     1      24.331   2.988  52.377  1.00  0.00    -0.020 A 
HETATM   11  C7  UNL     1      23.373   3.921  52.711  1.00  0.00     0.012 A 
HETATM   12  C6  UNL     1      23.222   5.059  51.951  1.00  0.00     0.003 A 
HETATM   13  C5  UNL     1      24.001   5.316  50.843  1.00  0.00     0.029 A 
HETATM   14  C4  UNL     1      24.965   4.386  50.498  1.00  0.00     0.035 A 
HETATM   15  C21 UNL     1      25.133   3.229  51.253  1.00  0.00     0.042 A 
BRANCH  14  16
HETATM   16  N1  UNL     1      25.772   4.665  49.338  1.00  0.00    -0.324 N 
HETATM   17  C3  UNL     1      26.279   5.997  49.330  1.00  0.00     0.244 C 
HETATM   18  O1  UNL     1      26.042   6.830  50.242  1.00  0.00    -0.268 OA
HETATM   19  H4  UNL     1      25.946   3.951  48.604  1.00  0.00     0.169 HD
BRANCH  17  20
HETATM   20  C2  UNL     1      27.122   6.381  48.176  1.00  0.00     0.064 C 
HETATM   21  C1  UNL     1      28.077   7.295  48.214  1.00  0.00     0.017 C 
ENDBRANCH  17  20
ENDBRANCH  14  16
ENDBRANCH   1  10
BRANCH   2  22
HETATM   22  C11 UNL     1      22.609   0.365  52.845  1.00  0.00    -0.001 A 
HETATM   23  C12 UNL     1      21.973   0.485  51.627  1.00  0.00     0.014 A 
HETATM   24  C13 UNL     1      20.619   0.233  51.537  1.00  0.00     0.001 A 
HETATM   25  C14 UNL     1      19.852  -0.142  52.620  1.00  0.00     0.000 A 
HETATM   26  C15 UNL     1      20.483  -0.263  53.834  1.00  0.00     0.001 A 
HETATM   27  C16 UNL     1      21.848  -0.013  53.950  1.00  0.00     0.014 A 
ENDBRANCH   2  22
TORSDOF 4
ENDMDL
MODEL 5
REMARK VINA RESULT:      -8.4      2.899      5.215
REMARK  4 active torsions:
REMARK  status: ('A' for Active; 'I' for Inactive)
REMARK    1  A    between atoms: C2_2  and  C3_3 
REMARK       I    between atoms: C3_3  and  N1_5 
REMARK    2  A    between atoms: N1_5  and  C4_6 
REMARK    3  A    between atoms: C8_10  and  C9_11 
REMARK    4  A    between atoms: C10_12  and  C11_13 
ROOT
HETATM    1  C9  UNL     1      24.824   1.840  51.625  1.00  0.00     0.025 A 
HETATM    2  C10 UNL     1      25.361   1.049  52.606  1.00  0.00     0.100 A 
HETATM    3  O2  UNL     1      24.457   0.236  53.093  1.00  0.00    -0.289 OA
HETATM    4  C17 UNL     1      23.328   0.431  52.495  1.00  0.00     0.183 A 
HETATM    5  N2  UNL     1      22.126  -0.175  52.669  1.00  0.00    -0.217 NA
HETATM    6  C18 UNL     1      21.077   0.220  51.901  1.00  0.00     0.235 A 
HETATM    7  N3  UNL     1      21.183   1.179  50.984  1.00  0.00    -0.253 NA
HETATM    8  C19 UNL     1      22.380   1.771  50.822  1.00  0.00     0.134 A 
HETATM    9  C20 UNL     1      23.505   1.444  51.550  1.00  0.00     0.049 A 
ENDROOT
BRANCH   1  10
HETATM   10  C8  UNL     1      25.407   2.884  50.792  1.00  0.00    -0.020 A 
HETATM   11  C7  UNL     1      26.411   2.848  49.848  1.00  0.00     0.012 A 
HETATM   12  C6  UNL     1      26.779   3.996  49.186  1.00  0.00     0.003 A 
HETATM   13  C5  UNL     1      26.178   5.213  49.428  1.00  0.00     0.029 A 
HETATM   14  C4  UNL     1      25.169   5.262  50.373  1.00  0.00     0.035 A 
HETATM   15  C21 UNL     1      24.782   4.111  51.054  1.00  0.00     0.042 A 
BRANCH  14  16
HETATM   16  N1  UNL     1      24.549   6.538  50.617  1.00  0.00    -0.324 N 
HETATM   17  C3  UNL     1      23.376   6.738  49.831  1.00  0.00     0.244 C 
HETATM   18  O1  UNL     1      22.939   5.886  49.017  1.00  0.00    -0.268 OA
HETATM   19  H4  UNL     1      24.938   7.218  51.299  1.00  0.00     0.169 HD
BRANCH  17  20
HETATM   20  C2  UNL     1      22.666   8.024  50.011  1.00  0.00     0.064 C 
HETATM   21  C1  UNL     1      22.131   8.730  49.029  1.00  0.00     0.017 C 
ENDBRANCH  17  20
ENDBRANCH  14  16
ENDBRANCH   1  10
BRANCH   2  22
HETATM   22  C11 UNL     1      26.740   1.098  53.050  1.00  0.00    -0.001 A 
HETATM   23  C12 UNL     1      27.517   2.161  53.461  1.00  0.00     0.014 A 
HETATM   24  C13 UNL     1      28.827   1.941  53.838  1.00  0.00     0.001 A 
HETATM   25  C14 UNL     1      29.412   0.692  53.827  1.00  0.00     0.000 A 
HETATM   26  C15 UNL     1      28.640  -0.368  53.418  1.00  0.00     0.001 A 
HETATM   27  C16 UNL     1      27.316  -0.171  53.033  1.00  0.00     0.014 A 
ENDBRANCH   2  22
TORSDOF 4
ENDMDL
MODEL 6
REMARK VINA RESULT:      -8.2      2.152      5.872
REMARK  4 active torsions:
REMARK  status: ('A' for Active; 'I' for Inactive)
REMARK    1  A    between atoms: C2_2  and  C3_3 
REMARK       I    between atoms: C3_3  and  N1_5 
REMARK    2  A    between atoms: N1_5  and  C4_6 
REMARK    3  A    between atoms: C8_10  and  C9_11 
REMARK    4  A    between atoms: C10_12  and  C11_13 
ROOT
HETATM    1  C9  UNL     1      23.773   2.016  51.267  1.00  0.00     0.025 A 
HETATM    2  C10 UNL     1      22.698   2.476  50.551  1.00  0.00     0.100 A 
HETATM    3  O2  UNL     1      23.075   3.375  49.676  1.00  0.00    -0.289 OA
HETATM    4  C17 UNL     1      24.352   3.554  49.757  1.00  0.00     0.183 A 
HETATM    5  N2  UNL     1      25.169   4.378  49.054  1.00  0.00    -0.217 NA
HETATM    6  C18 UNL     1      26.499   4.377  49.336  1.00  0.00     0.235 A 
HETATM    7  N3  UNL     1      27.030   3.599  50.275  1.00  0.00    -0.253 NA
HETATM    8  C19 UNL     1      26.209   2.787  50.964  1.00  0.00     0.134 A 
HETATM    9  C20 UNL     1      24.848   2.713  50.755  1.00  0.00     0.049 A 
ENDROOT
BRANCH   1  10
HETATM   10  C8  UNL     1      23.877   1.030  52.335  1.00  0.00    -0.020 A 
HETATM   11  C7  UNL     1      22.932   0.502  53.189  1.00  0.00     0.012 A 
HETATM   12  C6  UNL     1      23.296  -0.438  54.125  1.00  0.00     0.003 A 
HETATM   13  C5  UNL     1      24.593  -0.889  54.255  1.00  0.00     0.029 A 
HETATM   14  C4  UNL     1      25.549  -0.366  53.403  1.00  0.00     0.035 A 
HETATM   15  C21 UNL     1      25.201   0.586  52.449  1.00  0.00     0.042 A 
BRANCH  14  16
HETATM   16  N1  UNL     1      26.900  -0.844  53.548  1.00  0.00    -0.324 N 
HETATM   17  C3  UNL     1      27.737   0.079  54.240  1.00  0.00     0.244 C 
HETATM   18  O1  UNL     1      27.331   1.187  54.673  1.00  0.00    -0.268 OA
HETATM   19  H4  UNL     1      27.200  -1.766  53.177  1.00  0.00     0.169 HD
BRANCH  17  20
HETATM   20  C2  UNL     1      29.147  -0.323  54.438  1.00  0.00     0.064 C 
HETATM   21  C1  UNL     1      29.898  -0.908  53.519  1.00  0.00     0.017 C 
ENDBRANCH  17  20
ENDBRANCH  14  16
ENDBRANCH   1  10
BRANCH   2  22
HETATM   22  C11 UNL     1      21.330   2.034  50.731  1.00  0.00    -0.001 A 
HETATM   23  C12 UNL     1      20.664   0.936  50.227  1.00  0.00     0.014 A 
HETATM   24  C13 UNL     1      19.337   0.736  50.550  1.00  0.00     0.001 A 
HETATM   25  C14 UNL     1      18.627   1.591  51.367  1.00  0.00     0.000 A 
HETATM   26  C15 UNL     1      19.288   2.685  51.871  1.00  0.00     0.001 A 
HETATM   27  C16 UNL     1      20.627   2.907  51.558  1.00  0.00     0.014 A 
ENDBRANCH   2  22
TORSDOF 4
ENDMDL
MODEL 7
REMARK VINA RESULT:      -8.1      2.342      6.273
REMARK  4 active torsions:
REMARK  status: ('A' for Active; 'I' for Inactive)
REMARK    1  A    between atoms: C2_2  and  C3_3 
REMARK       I    between atoms: C3_3  and  N1_5 
REMARK    2  A    between atoms: N1_5  and  C4_6 
REMARK    3  A    between atoms: C8_10  and  C9_11 
REMARK    4  A    between atoms: C10_12  and  C11_13 
ROOT
HETATM    1  C9  UNL     1      22.787   1.101  51.821  1.00  0.00     0.025 A 
HETATM    2  C10 UNL     1      21.615   1.262  51.130  1.00  0.00     0.100 A 
HETATM    3  O2  UNL     1      20.656   0.552  51.672  1.00  0.00    -0.289 OA
HETATM    4  C17 UNL     1      21.113  -0.086  52.698  1.00  0.00     0.183 A 
HETATM    5  N2  UNL     1      20.488  -0.931  53.556  1.00  0.00    -0.217 NA
HETATM    6  C18 UNL     1      21.205  -1.480  54.572  1.00  0.00     0.235 A 
HETATM    7  N3  UNL     1      22.497  -1.221  54.758  1.00  0.00    -0.253 NA
HETATM    8  C19 UNL     1      23.104  -0.381  53.901  1.00  0.00     0.134 A 
HETATM    9  C20 UNL     1      22.467   0.228  52.839  1.00  0.00     0.049 A 
ENDROOT
BRANCH   1  10
HETATM   10  C8  UNL     1      24.116   1.666  51.623  1.00  0.00    -0.020 A 
HETATM   11  C7  UNL     1      24.530   2.862  51.075  1.00  0.00     0.012 A 
HETATM   12  C6  UNL     1      25.870   3.163  51.008  1.00  0.00     0.003 A 
HETATM   13  C5  UNL     1      26.845   2.305  51.472  1.00  0.00     0.029 A 
HETATM   14  C4  UNL     1      26.441   1.103  52.023  1.00  0.00     0.035 A 
HETATM   15  C21 UNL     1      25.089   0.779  52.100  1.00  0.00     0.042 A 
BRANCH  14  16
HETATM   16  N1  UNL     1      27.468   0.215  52.504  1.00  0.00    -0.324 N 
HETATM   17  C3  UNL     1      27.943   0.575  53.799  1.00  0.00     0.244 C 
HETATM   18  O1  UNL     1      27.505   1.563  54.443  1.00  0.00    -0.268 OA
HETATM   19  H4  UNL     1      27.804  -0.592  51.943  1.00  0.00     0.169 HD
BRANCH  17  20
HETATM   20  C2  UNL     1      29.002  -0.279  54.380  1.00  0.00     0.064 C 
HETATM   21  C1  UNL     1      29.921  -0.919  53.675  1.00  0.00     0.017 C 
ENDBRANCH  17  20
ENDBRANCH  14  16
ENDBRANCH   1  10
BRANCH   2  22
HETATM   22  C11 UNL     1      21.449   2.100  49.959  1.00  0.00    -0.001 A 
HETATM   23  C12 UNL     1      20.906   3.360  49.823  1.00  0.00     0.014 A 
HETATM   24  C13 UNL     1      20.861   3.952  48.576  1.00  0.00     0.001 A 
HETATM   25  C14 UNL     1      21.340   3.338  47.437  1.00  0.00     0.000 A 
HETATM   26  C15 UNL     1      21.880   2.083  47.570  1.00  0.00     0.001 A 
HETATM   27  C16 UNL     1      21.937   1.466  48.817  1.00  0.00     0.014 A 
ENDBRANCH   2  22
TORSDOF 4
ENDMDL
MODEL 8
REMARK VINA RESULT:      -8.0      1.419      5.835
REMARK  4 active torsions:
REMARK  status: ('A' for Active; 'I' for Inactive)
REMARK    1  A    between atoms: C2_2  and  C3_3 
REMARK       I    between atoms: C3_3  and  N1_5 
REMARK    2  A    between atoms: N1_5  and  C4_6 
REMARK    3  A    between atoms: C8_10  and  C9_11 
REMARK    4  A    between atoms: C10_12  and  C11_13 
ROOT
HETATM    1  C9  UNL     1      22.823   1.640  51.164  1.00  0.00     0.025 A 
HETATM    2  C10 UNL     1      21.754   0.790  51.274  1.00  0.00     0.100 A 
HETATM    3  O2  UNL     1      21.032   0.809  50.181  1.00  0.00    -0.289 OA
HETATM    4  C17 UNL     1      21.553   1.629  49.330  1.00  0.00     0.183 A 
HETATM    5  N2  UNL     1      21.152   1.968  48.078  1.00  0.00    -0.217 NA
HETATM    6  C18 UNL     1      21.887   2.870  47.377  1.00  0.00     0.235 A 
HETATM    7  N3  UNL     1      22.986   3.436  47.871  1.00  0.00    -0.253 NA
HETATM    8  C19 UNL     1      23.372   3.092  49.112  1.00  0.00     0.134 A 
HETATM    9  C20 UNL     1      22.697   2.187  49.905  1.00  0.00     0.049 A 
ENDROOT
BRANCH   1  10
HETATM   10  C8  UNL     1      23.900   1.968  52.089  1.00  0.00    -0.020 A 
HETATM   11  C7  UNL     1      23.979   2.886  53.114  1.00  0.00     0.012 A 
HETATM   12  C6  UNL     1      25.133   2.998  53.855  1.00  0.00     0.003 A 
HETATM   13  C5  UNL     1      26.244   2.217  53.615  1.00  0.00     0.029 A 
HETATM   14  C4  UNL     1      26.176   1.292  52.589  1.00  0.00     0.035 A 
HETATM   15  C21 UNL     1      25.018   1.164  51.828  1.00  0.00     0.042 A 
BRANCH  14  16
HETATM   16  N1  UNL     1      27.343   0.483  52.347  1.00  0.00    -0.324 N 
HETATM   17  C3  UNL     1      27.493  -0.563  53.304  1.00  0.00     0.244 C 
HETATM   18  O1  UNL     1      26.689  -0.750  54.253  1.00  0.00    -0.268 OA
HETATM   19  H4  UNL     1      27.985   0.667  51.552  1.00  0.00     0.169 HD
BRANCH  17  20
HETATM   20  C2  UNL     1      28.665  -1.451  53.141  1.00  0.00     0.064 C 
HETATM   21  C1  UNL     1      29.867  -1.207  53.637  1.00  0.00     0.017 C 
ENDBRANCH  17  20
ENDBRANCH  14  16
ENDBRANCH   1  10
BRANCH   2  22
HETATM   22  C11 UNL     1      21.455  -0.023  52.436  1.00  0.00    -0.001 A 
HETATM   23  C12 UNL     1      20.252  -0.325  53.039  1.00  0.00     0.014 A 
HETATM   24  C13 UNL     1      20.235  -1.135  54.158  1.00  0.00     0.001 A 
HETATM   25  C14 UNL     1      21.378  -1.670  54.715  1.00  0.00     0.000 A 
HETATM   26  C15 UNL     1      22.576  -1.371  54.116  1.00  0.00     0.001 A 
HETATM   27  C16 UNL     1      22.620  -0.556  52.987  1.00  0.00     0.014 A 
ENDBRANCH   2  22
TORSDOF 4
ENDMDL
MODEL 9
REMARK VINA RESULT:      -8.0      2.391      3.545
REMARK  4 active torsions:
REMARK  status: ('A' for Active; 'I' for Inactive)
REMARK    1  A    between atoms: C2_2  and  C3_3 
REMARK       I    between atoms: C3_3  and  N1_5 
REMARK    2  A    between atoms: N1_5  and  C4_6 
REMARK    3  A    between atoms: C8_10  and  C9_11 
REMARK    4  A    between atoms: C10_12  and  C11_13 
ROOT
HETATM    1  C9  UNL     1      24.857   2.008  51.871  1.00  0.00     0.025 A 
HETATM    2  C10 UNL     1      23.782   1.159  51.906  1.00  0.00     0.100 A 
HETATM    3  O2  UNL     1      23.924   0.270  52.857  1.00  0.00    -0.289 OA
HETATM    4  C17 UNL     1      25.042   0.467  53.475  1.00  0.00     0.183 A 
HETATM    5  N2  UNL     1      25.601  -0.201  54.516  1.00  0.00    -0.217 NA
HETATM    6  C18 UNL     1      26.805   0.214  54.989  1.00  0.00     0.235 A 
HETATM    7  N3  UNL     1      27.459   1.250  54.470  1.00  0.00    -0.253 NA
HETATM    8  C19 UNL     1      26.895   1.904  53.439  1.00  0.00     0.134 A 
HETATM    9  C20 UNL     1      25.678   1.563  52.886  1.00  0.00     0.049 A 
ENDROOT
BRANCH   1  10
HETATM   10  C8  UNL     1      25.168   3.144  51.013  1.00  0.00    -0.020 A 
HETATM   11  C7  UNL     1      26.078   3.296  49.989  1.00  0.00     0.012 A 
HETATM   12  C6  UNL     1      26.173   4.495  49.321  1.00  0.00     0.003 A 
HETATM   13  C5  UNL     1      25.383   5.580  49.635  1.00  0.00     0.029 A 
HETATM   14  C4  UNL     1      24.467   5.439  50.661  1.00  0.00     0.035 A 
HETATM   15  C21 UNL     1      24.355   4.235  51.349  1.00  0.00     0.042 A 
BRANCH  14  16
HETATM   16  N1  UNL     1      23.647   6.580  50.980  1.00  0.00    -0.324 N 
HETATM   17  C3  UNL     1      22.354   6.511  50.384  1.00  0.00     0.244 C 
HETATM   18  O1  UNL     1      21.979   5.553  49.661  1.00  0.00    -0.268 OA
HETATM   19  H4  UNL     1      23.991   7.353  51.582  1.00  0.00     0.169 HD
BRANCH  17  20
HETATM   20  C2  UNL     1      21.437   7.640  50.654  1.00  0.00     0.064 C 
HETATM   21  C1  UNL     1      20.813   8.341  49.721  1.00  0.00     0.017 C 
ENDBRANCH  17  20
ENDBRANCH  14  16
ENDBRANCH   1  10
BRANCH   2  22
HETATM   22  C11 UNL     1      22.640   1.227  51.017  1.00  0.00    -0.001 A 
HETATM   23  C12 UNL     1      22.523   1.730  49.737  1.00  0.00     0.014 A 
HETATM   24  C13 UNL     1      21.302   1.679  49.094  1.00  0.00     0.001 A 
HETATM   25  C14 UNL     1      20.171   1.141  49.673  1.00  0.00     0.000 A 
HETATM   26  C15 UNL     1      20.286   0.640  50.946  1.00  0.00     0.001 A 
HETATM   27  C16 UNL     1      21.506   0.680  51.615  1.00  0.00     0.014 A 
ENDBRANCH   2  22
TORSDOF 4
ENDMDL
