MODEL 1
REMARK VINA RESULT:      -9.5      0.000      0.000
REMARK  3 active torsions:
REMARK  status: ('A' for Active; 'I' for Inactive)
REMARK    1  A    between atoms: C7_7  and  N1_8 
REMARK    2  A    between atoms: N1_8  and  P1_9 
REMARK    3  A    between atoms: C11_16  and  C12_17 
ROOT
HETATM    1  C1  UNL     1      27.132   7.740  47.786  1.00  0.00     0.018 C 
HETATM    2  C2  UNL     1      26.740   6.706  48.273  1.00  0.00    -0.078 C 
HETATM    3  C3  UNL     1      26.290   5.478  48.870  1.00  0.00     0.019 A 
HETATM    4  C4  UNL     1      27.163   4.419  49.002  1.00  0.00     0.021 A 
HETATM    5  C5  UNL     1      26.725   3.230  49.585  1.00  0.00     0.004 A 
HETATM    6  C6  UNL     1      25.408   3.176  50.007  1.00  0.00     0.029 A 
HETATM    7  C7  UNL     1      24.535   4.241  49.872  1.00  0.00     0.033 A 
HETATM    8  C18 UNL     1      24.980   5.412  49.294  1.00  0.00     0.050 A 
ENDROOT
BRANCH   7   9
HETATM    9  N1  UNL     1      23.261   3.921  50.385  1.00  0.00    -0.349 N 
HETATM   10  H5  UNL     1      22.602   3.768  49.571  1.00  0.00     0.166 HD
BRANCH   9  11
HETATM   11  P1  UNL     1      22.798   3.790  52.092  1.00  0.00     0.101 P 
HETATM   12  N2  UNL     1      21.226   3.985  52.115  1.00  0.00    -0.128 NA
HETATM   13  N3  UNL     1      20.388   2.966  52.497  1.00  0.00    -0.043 NA
HETATM   14  N4  UNL     1      20.677   1.810  52.866  1.00  0.00    -0.130 NA
HETATM   15  C8  UNL     1      21.999   1.298  52.963  1.00  0.00     0.094 A 
HETATM   16  C9  UNL     1      22.272   0.012  53.372  1.00  0.00     0.035 A 
HETATM   17  C17 UNL     1      23.081   2.092  52.641  1.00  0.00     0.034 A 
HETATM   18  C10 UNL     1      23.564  -0.464  53.457  1.00  0.00     0.015 A 
HETATM   19  C11 UNL     1      24.657   0.336  53.132  1.00  0.00    -0.022 A 
HETATM   20  C16 UNL     1      24.377   1.622  52.724  1.00  0.00     0.030 A 
HETATM   21  H6  UNL     1      23.477   4.694  52.895  1.00  0.00     0.105 HD
BRANCH  19  22
HETATM   22  C12 UNL     1      25.993  -0.233  53.243  1.00  0.00     0.010 A 
HETATM   23  C13 UNL     1      26.374  -1.486  52.790  1.00  0.00     0.152 A 
HETATM   24  N5  UNL     1      27.690  -1.641  53.083  1.00  0.00    -0.185 NA
HETATM   25  N6  UNL     1      28.137  -0.557  53.690  1.00  0.00    -0.285 N 
HETATM   26  C14 UNL     1      29.469  -0.228  54.205  1.00  0.00     0.179 C 
HETATM   27  C15 UNL     1      27.125   0.320  53.801  1.00  0.00     0.125 A 
ENDBRANCH  19  22
ENDBRANCH   9  11
ENDBRANCH   7   9
TORSDOF 3
ENDMDL
MODEL 2
REMARK VINA RESULT:      -9.5      2.547      5.542
REMARK  3 active torsions:
REMARK  status: ('A' for Active; 'I' for Inactive)
REMARK    1  A    between atoms: C7_7  and  N1_8 
REMARK    2  A    between atoms: N1_8  and  P1_9 
REMARK    3  A    between atoms: C11_16  and  C12_17 
ROOT
HETATM    1  C1  UNL     1      28.334   5.070  48.251  1.00  0.00     0.018 C 
HETATM    2  C2  UNL     1      27.407   4.615  48.877  1.00  0.00    -0.078 C 
HETATM    3  C3  UNL     1      26.297   4.061  49.603  1.00  0.00     0.019 A 
HETATM    4  C4  UNL     1      25.009   4.278  49.160  1.00  0.00     0.021 A 
HETATM    5  C5  UNL     1      23.934   3.737  49.864  1.00  0.00     0.004 A 
HETATM    6  C6  UNL     1      24.224   2.995  50.996  1.00  0.00     0.029 A 
HETATM    7  C7  UNL     1      25.517   2.779  51.437  1.00  0.00     0.033 A 
HETATM    8  C18 UNL     1      26.572   3.320  50.733  1.00  0.00     0.050 A 
ENDROOT
BRANCH   7   9
HETATM    9  N1  UNL     1      25.530   1.990  52.607  1.00  0.00    -0.349 N 
HETATM   10  H5  UNL     1      25.523   2.636  53.446  1.00  0.00     0.166 HD
BRANCH   9  11
HETATM   11  P1  UNL     1      25.555   0.220  52.702  1.00  0.00     0.101 P 
HETATM   12  N2  UNL     1      26.773  -0.131  53.651  1.00  0.00    -0.128 NA
HETATM   13  N3  UNL     1      26.575  -0.732  54.870  1.00  0.00    -0.043 NA
HETATM   14  N4  UNL     1      25.504  -1.084  55.406  1.00  0.00    -0.130 NA
HETATM   15  C8  UNL     1      24.217  -0.919  54.828  1.00  0.00     0.094 A 
HETATM   16  C9  UNL     1      23.060  -1.320  55.457  1.00  0.00     0.035 A 
HETATM   17  C17 UNL     1      24.079  -0.335  53.585  1.00  0.00     0.034 A 
HETATM   18  C10 UNL     1      21.821  -1.148  54.877  1.00  0.00     0.015 A 
HETATM   19  C11 UNL     1      21.679  -0.558  53.623  1.00  0.00    -0.022 A 
HETATM   20  C16 UNL     1      22.842  -0.160  52.998  1.00  0.00     0.030 A 
HETATM   21  H6  UNL     1      25.642  -0.375  51.452  1.00  0.00     0.105 HD
BRANCH  19  22
HETATM   22  C12 UNL     1      20.341  -0.406  53.072  1.00  0.00     0.010 A 
HETATM   23  C13 UNL     1      19.993   0.426  52.020  1.00  0.00     0.152 A 
HETATM   24  N5  UNL     1      18.659   0.283  51.814  1.00  0.00    -0.185 NA
HETATM   25  N6  UNL     1      18.169  -0.585  52.679  1.00  0.00    -0.285 N 
HETATM   26  C14 UNL     1      16.803  -1.079  52.871  1.00  0.00     0.179 C 
HETATM   27  C15 UNL     1      19.171  -1.024  53.459  1.00  0.00     0.125 A 
ENDBRANCH  19  22
ENDBRANCH   9  11
ENDBRANCH   7   9
TORSDOF 3
ENDMDL
MODEL 3
REMARK VINA RESULT:      -8.9      3.229      5.848
REMARK  3 active torsions:
REMARK  status: ('A' for Active; 'I' for Inactive)
REMARK    1  A    between atoms: C7_7  and  N1_8 
REMARK    2  A    between atoms: N1_8  and  P1_9 
REMARK    3  A    between atoms: C11_16  and  C12_17 
ROOT
HETATM    1  C1  UNL     1      22.286   3.150  47.660  1.00  0.00     0.018 C 
HETATM    2  C2  UNL     1      22.696   3.313  48.784  1.00  0.00    -0.078 C 
HETATM    3  C3  UNL     1      23.163   3.504  50.130  1.00  0.00     0.019 A 
HETATM    4  C4  UNL     1      22.662   4.540  50.890  1.00  0.00     0.021 A 
HETATM    5  C5  UNL     1      23.114   4.721  52.197  1.00  0.00     0.004 A 
HETATM    6  C6  UNL     1      24.062   3.832  52.671  1.00  0.00     0.029 A 
HETATM    7  C7  UNL     1      24.562   2.794  51.906  1.00  0.00     0.033 A 
HETATM    8  C18 UNL     1      24.108   2.625  50.614  1.00  0.00     0.050 A 
ENDROOT
BRANCH   7   9
HETATM    9  N1  UNL     1      25.510   2.040  52.629  1.00  0.00    -0.349 N 
HETATM   10  H5  UNL     1      26.191   2.710  53.086  1.00  0.00     0.166 HD
BRANCH   9  11
HETATM   11  P1  UNL     1      25.587   0.274  52.773  1.00  0.00     0.101 P 
HETATM   12  N2  UNL     1      26.778  -0.012  53.776  1.00  0.00    -0.128 NA
HETATM   13  N3  UNL     1      26.553  -0.587  55.003  1.00  0.00    -0.043 NA
HETATM   14  N4  UNL     1      25.474  -0.959  55.508  1.00  0.00    -0.130 NA
HETATM   15  C8  UNL     1      24.205  -0.851  54.879  1.00  0.00     0.094 A 
HETATM   16  C9  UNL     1      23.038  -1.272  55.476  1.00  0.00     0.035 A 
HETATM   17  C17 UNL     1      24.096  -0.305  53.616  1.00  0.00     0.034 A 
HETATM   18  C10 UNL     1      21.817  -1.155  54.846  1.00  0.00     0.015 A 
HETATM   19  C11 UNL     1      21.705  -0.603  53.571  1.00  0.00    -0.022 A 
HETATM   20  C16 UNL     1      22.878  -0.184  52.979  1.00  0.00     0.030 A 
HETATM   21  H6  UNL     1      25.739  -0.350  51.544  1.00  0.00     0.105 HD
BRANCH  19  22
HETATM   22  C12 UNL     1      20.384  -0.509  52.968  1.00  0.00     0.010 A 
HETATM   23  C13 UNL     1      19.218  -1.036  53.498  1.00  0.00     0.152 A 
HETATM   24  N5  UNL     1      18.210  -0.738  52.638  1.00  0.00    -0.185 NA
HETATM   25  N6  UNL     1      18.691  -0.061  51.612  1.00  0.00    -0.285 N 
HETATM   26  C14 UNL     1      18.024   0.485  50.428  1.00  0.00     0.179 C 
HETATM   27  C15 UNL     1      20.014   0.095  51.785  1.00  0.00     0.125 A 
ENDBRANCH  19  22
ENDBRANCH   9  11
ENDBRANCH   7   9
TORSDOF 3
ENDMDL
MODEL 4
REMARK VINA RESULT:      -8.9      2.932      5.573
REMARK  3 active torsions:
REMARK  status: ('A' for Active; 'I' for Inactive)
REMARK    1  A    between atoms: C7_7  and  N1_8 
REMARK    2  A    between atoms: N1_8  and  P1_9 
REMARK    3  A    between atoms: C11_16  and  C12_17 
ROOT
HETATM    1  C1  UNL     1      22.608  -1.414  55.329  1.00  0.00     0.018 C 
HETATM    2  C2  UNL     1      21.921  -1.047  54.407  1.00  0.00    -0.078 C 
HETATM    3  C3  UNL     1      21.092  -0.593  53.322  1.00  0.00     0.019 A 
HETATM    4  C4  UNL     1      19.719  -0.635  53.444  1.00  0.00     0.021 A 
HETATM    5  C5  UNL     1      18.917  -0.191  52.393  1.00  0.00     0.004 A 
HETATM    6  C6  UNL     1      19.558   0.277  51.259  1.00  0.00     0.029 A 
HETATM    7  C7  UNL     1      20.936   0.317  51.141  1.00  0.00     0.033 A 
HETATM    8  C18 UNL     1      21.718  -0.126  52.187  1.00  0.00     0.050 A 
ENDROOT
BRANCH   7   9
HETATM    9  N1  UNL     1      21.323   0.838  49.889  1.00  0.00    -0.349 N 
HETATM   10  H5  UNL     1      20.877   0.251  49.129  1.00  0.00     0.166 HD
BRANCH   9  11
HETATM   11  P1  UNL     1      22.376   2.234  49.592  1.00  0.00     0.101 P 
HETATM   12  N2  UNL     1      21.398   3.469  49.431  1.00  0.00    -0.128 NA
HETATM   13  N3  UNL     1      21.400   4.501  50.337  1.00  0.00    -0.043 NA
HETATM   14  N4  UNL     1      22.106   4.649  51.355  1.00  0.00    -0.130 NA
HETATM   15  C8  UNL     1      23.093   3.728  51.797  1.00  0.00     0.094 A 
HETATM   16  C9  UNL     1      23.847   3.930  52.930  1.00  0.00     0.035 A 
HETATM   17  C17 UNL     1      23.333   2.569  51.088  1.00  0.00     0.034 A 
HETATM   18  C10 UNL     1      24.799   3.021  53.341  1.00  0.00     0.015 A 
HETATM   19  C11 UNL     1      25.043   1.849  52.627  1.00  0.00    -0.022 A 
HETATM   20  C16 UNL     1      24.284   1.653  51.493  1.00  0.00     0.030 A 
HETATM   21  H6  UNL     1      23.209   2.045  48.499  1.00  0.00     0.105 HD
BRANCH  19  22
HETATM   22  C12 UNL     1      26.060   0.932  53.121  1.00  0.00     0.010 A 
HETATM   23  C13 UNL     1      25.816  -0.255  53.791  1.00  0.00     0.152 A 
HETATM   24  N5  UNL     1      27.020  -0.812  54.083  1.00  0.00    -0.185 NA
HETATM   25  N6  UNL     1      27.986  -0.034  53.632  1.00  0.00    -0.285 N 
HETATM   26  C14 UNL     1      29.442  -0.183  53.693  1.00  0.00     0.179 C 
HETATM   27  C15 UNL     1      27.432   1.037  53.039  1.00  0.00     0.125 A 
ENDBRANCH  19  22
ENDBRANCH   9  11
ENDBRANCH   7   9
TORSDOF 3
ENDMDL
MODEL 5
REMARK VINA RESULT:      -8.8      2.874      5.725
REMARK  3 active torsions:
REMARK  status: ('A' for Active; 'I' for Inactive)
REMARK    1  A    between atoms: C7_7  and  N1_8 
REMARK    2  A    between atoms: N1_8  and  P1_9 
REMARK    3  A    between atoms: C11_16  and  C12_17 
ROOT
HETATM    1  C1  UNL     1      22.049   5.661  51.136  1.00  0.00     0.018 C 
HETATM    2  C2  UNL     1      23.001   4.920  51.185  1.00  0.00    -0.078 C 
HETATM    3  C3  UNL     1      24.149   4.057  51.246  1.00  0.00     0.019 A 
HETATM    4  C4  UNL     1      25.121   4.138  50.271  1.00  0.00     0.021 A 
HETATM    5  C5  UNL     1      26.236   3.302  50.334  1.00  0.00     0.004 A 
HETATM    6  C6  UNL     1      26.307   2.417  51.395  1.00  0.00     0.029 A 
HETATM    7  C7  UNL     1      25.330   2.339  52.371  1.00  0.00     0.033 A 
HETATM    8  C18 UNL     1      24.232   3.170  52.298  1.00  0.00     0.050 A 
ENDROOT
BRANCH   7   9
HETATM    9  N1  UNL     1      25.651   1.359  53.334  1.00  0.00    -0.349 N 
HETATM   10  H5  UNL     1      26.263   1.805  54.074  1.00  0.00     0.166 HD
BRANCH   9  11
HETATM   11  P1  UNL     1      25.141  -0.339  53.341  1.00  0.00     0.101 P 
HETATM   12  N2  UNL     1      25.717  -0.944  54.687  1.00  0.00    -0.128 NA
HETATM   13  N3  UNL     1      24.881  -1.380  55.685  1.00  0.00    -0.043 NA
HETATM   14  N4  UNL     1      23.634  -1.386  55.717  1.00  0.00    -0.130 NA
HETATM   15  C8  UNL     1      22.795  -0.915  54.672  1.00  0.00     0.094 A 
HETATM   16  C9  UNL     1      21.420  -0.938  54.751  1.00  0.00     0.035 A 
HETATM   17  C17 UNL     1      23.343  -0.405  53.513  1.00  0.00     0.034 A 
HETATM   18  C10 UNL     1      20.626  -0.474  53.724  1.00  0.00     0.015 A 
HETATM   19  C11 UNL     1      21.177   0.043  52.553  1.00  0.00    -0.022 A 
HETATM   20  C16 UNL     1      22.554   0.062  52.481  1.00  0.00     0.030 A 
HETATM   21  H6  UNL     1      25.559  -1.022  52.208  1.00  0.00     0.105 HD
BRANCH  19  22
HETATM   22  C12 UNL     1      20.279   0.518  51.511  1.00  0.00     0.010 A 
HETATM   23  C13 UNL     1      18.985   0.069  51.299  1.00  0.00     0.152 A 
HETATM   24  N5  UNL     1      18.488   0.754  50.237  1.00  0.00    -0.185 NA
HETATM   25  N6  UNL     1      19.401   1.593  49.786  1.00  0.00    -0.285 N 
HETATM   26  C14 UNL     1      19.361   2.544  48.673  1.00  0.00     0.179 C 
HETATM   27  C15 UNL     1      20.504   1.473  50.544  1.00  0.00     0.125 A 
ENDBRANCH  19  22
ENDBRANCH   9  11
ENDBRANCH   7   9
TORSDOF 3
ENDMDL
MODEL 6
REMARK VINA RESULT:      -8.8      3.207      7.406
REMARK  3 active torsions:
REMARK  status: ('A' for Active; 'I' for Inactive)
REMARK    1  A    between atoms: C7_7  and  N1_8 
REMARK    2  A    between atoms: N1_8  and  P1_9 
REMARK    3  A    between atoms: C11_16  and  C12_17 
ROOT
HETATM    1  C1  UNL     1      29.418  -1.044  53.481  1.00  0.00     0.018 C 
HETATM    2  C2  UNL     1      28.374  -0.483  53.251  1.00  0.00    -0.078 C 
HETATM    3  C3  UNL     1      27.126   0.187  53.002  1.00  0.00     0.019 A 
HETATM    4  C4  UNL     1      25.944  -0.380  53.429  1.00  0.00     0.021 A 
HETATM    5  C5  UNL     1      24.736   0.273  53.189  1.00  0.00     0.004 A 
HETATM    6  C6  UNL     1      24.789   1.482  52.519  1.00  0.00     0.029 A 
HETATM    7  C7  UNL     1      25.977   2.049  52.091  1.00  0.00     0.033 A 
HETATM    8  C18 UNL     1      27.166   1.392  52.334  1.00  0.00     0.050 A 
ENDROOT
BRANCH   7   9
HETATM    9  N1  UNL     1      25.748   3.279  51.440  1.00  0.00    -0.349 N 
HETATM   10  H5  UNL     1      26.036   4.061  52.093  1.00  0.00     0.166 HD
BRANCH   9  11
HETATM   11  P1  UNL     1      25.090   3.520  49.811  1.00  0.00     0.101 P 
HETATM   12  N2  UNL     1      23.561   3.872  50.025  1.00  0.00    -0.128 NA
HETATM   13  N3  UNL     1      23.062   5.106  49.688  1.00  0.00    -0.043 NA
HETATM   14  N4  UNL     1      23.657   6.085  49.195  1.00  0.00    -0.130 NA
HETATM   15  C8  UNL     1      25.041   6.113  48.873  1.00  0.00     0.094 A 
HETATM   16  C9  UNL     1      25.659   7.218  48.333  1.00  0.00     0.035 A 
HETATM   17  C17 UNL     1      25.833   5.005  49.099  1.00  0.00     0.034 A 
HETATM   18  C10 UNL     1      27.004   7.222  48.029  1.00  0.00     0.015 A 
HETATM   19  C11 UNL     1      27.805   6.105  48.257  1.00  0.00    -0.022 A 
HETATM   20  C16 UNL     1      27.180   5.002  48.799  1.00  0.00     0.030 A 
HETATM   21  H6  UNL     1      25.292   2.418  48.992  1.00  0.00     0.105 HD
BRANCH  19  22
HETATM   22  C12 UNL     1      29.218   6.181  47.916  1.00  0.00     0.010 A 
HETATM   23  C13 UNL     1      29.883   7.319  47.489  1.00  0.00     0.152 A 
HETATM   24  N5  UNL     1      31.179   6.976  47.273  1.00  0.00    -0.185 NA
HETATM   25  N6  UNL     1      31.346   5.694  47.541  1.00  0.00    -0.285 N 
HETATM   26  C14 UNL     1      32.540   4.849  47.467  1.00  0.00     0.179 C 
HETATM   27  C15 UNL     1      30.168   5.182  47.937  1.00  0.00     0.125 A 
ENDBRANCH  19  22
ENDBRANCH   9  11
ENDBRANCH   7   9
TORSDOF 3
ENDMDL
MODEL 7
REMARK VINA RESULT:      -8.6      3.070      7.441
REMARK  3 active torsions:
REMARK  status: ('A' for Active; 'I' for Inactive)
REMARK    1  A    between atoms: C7_7  and  N1_8 
REMARK    2  A    between atoms: N1_8  and  P1_9 
REMARK    3  A    between atoms: C11_16  and  C12_17 
ROOT
HETATM    1  C1  UNL     1      22.551  -1.048  54.667  1.00  0.00     0.018 C 
HETATM    2  C2  UNL     1      23.475  -0.582  54.045  1.00  0.00    -0.078 C 
HETATM    3  C3  UNL     1      24.574  -0.045  53.289  1.00  0.00     0.019 A 
HETATM    4  C4  UNL     1      25.724  -0.788  53.127  1.00  0.00     0.021 A 
HETATM    5  C5  UNL     1      26.787  -0.266  52.390  1.00  0.00     0.004 A 
HETATM    6  C6  UNL     1      26.626   0.997  51.850  1.00  0.00     0.029 A 
HETATM    7  C7  UNL     1      25.471   1.740  52.014  1.00  0.00     0.033 A 
HETATM    8  C18 UNL     1      24.427   1.213  52.746  1.00  0.00     0.050 A 
ENDROOT
BRANCH   7   9
HETATM    9  N1  UNL     1      25.570   2.986  51.361  1.00  0.00    -0.349 N 
HETATM   10  H5  UNL     1      26.183   3.622  51.946  1.00  0.00     0.166 HD
BRANCH   9  11
HETATM   11  P1  UNL     1      24.816   3.451  49.825  1.00  0.00     0.101 P 
HETATM   12  N2  UNL     1      23.315   3.804  50.187  1.00  0.00    -0.128 NA
HETATM   13  N3  UNL     1      22.832   5.082  50.046  1.00  0.00    -0.043 NA
HETATM   14  N4  UNL     1      23.423   6.104  49.643  1.00  0.00    -0.130 NA
HETATM   15  C8  UNL     1      24.783   6.145  49.234  1.00  0.00     0.094 A 
HETATM   16  C9  UNL     1      25.397   7.297  48.799  1.00  0.00     0.035 A 
HETATM   17  C17 UNL     1      25.554   5.001  49.260  1.00  0.00     0.034 A 
HETATM   18  C10 UNL     1      26.719   7.313  48.407  1.00  0.00     0.015 A 
HETATM   19  C11 UNL     1      27.500   6.159  48.434  1.00  0.00    -0.022 A 
HETATM   20  C16 UNL     1      26.878   5.008  48.871  1.00  0.00     0.030 A 
HETATM   21  H6  UNL     1      24.931   2.462  48.859  1.00  0.00     0.105 HD
BRANCH  19  22
HETATM   22  C12 UNL     1      28.889   6.249  48.010  1.00  0.00     0.010 A 
HETATM   23  C13 UNL     1      29.507   7.386  47.515  1.00  0.00     0.152 A 
HETATM   24  N5  UNL     1      30.794   7.058  47.233  1.00  0.00    -0.185 NA
HETATM   25  N6  UNL     1      31.000   5.787  47.525  1.00  0.00    -0.285 N 
HETATM   26  C14 UNL     1      32.202   4.960  47.403  1.00  0.00     0.179 C 
HETATM   27  C15 UNL     1      29.856   5.267  48.001  1.00  0.00     0.125 A 
ENDBRANCH  19  22
ENDBRANCH   9  11
ENDBRANCH   7   9
TORSDOF 3
ENDMDL
MODEL 8
REMARK VINA RESULT:      -8.5      2.063      2.571
REMARK  3 active torsions:
REMARK  status: ('A' for Active; 'I' for Inactive)
REMARK    1  A    between atoms: C7_7  and  N1_8 
REMARK    2  A    between atoms: N1_8  and  P1_9 
REMARK    3  A    between atoms: C11_16  and  C12_17 
ROOT
HETATM    1  C1  UNL     1      21.733   5.773  45.084  1.00  0.00     0.018 C 
HETATM    2  C2  UNL     1      22.007   5.074  46.030  1.00  0.00    -0.078 C 
HETATM    3  C3  UNL     1      22.348   4.228  47.142  1.00  0.00     0.019 A 
HETATM    4  C4  UNL     1      21.994   2.895  47.124  1.00  0.00     0.021 A 
HETATM    5  C5  UNL     1      22.328   2.076  48.202  1.00  0.00     0.004 A 
HETATM    6  C6  UNL     1      23.011   2.658  49.255  1.00  0.00     0.029 A 
HETATM    7  C7  UNL     1      23.364   3.995  49.269  1.00  0.00     0.033 A 
HETATM    8  C18 UNL     1      23.028   4.796  48.197  1.00  0.00     0.050 A 
ENDROOT
BRANCH   7   9
HETATM    9  N1  UNL     1      24.053   4.326  50.455  1.00  0.00    -0.349 N 
HETATM   10  H5  UNL     1      24.989   4.746  50.192  1.00  0.00     0.166 HD
BRANCH   9  11
HETATM   11  P1  UNL     1      23.487   4.095  52.119  1.00  0.00     0.101 P 
HETATM   12  N2  UNL     1      21.940   4.434  52.086  1.00  0.00    -0.128 NA
HETATM   13  N3  UNL     1      20.995   3.469  52.336  1.00  0.00    -0.043 NA
HETATM   14  N4  UNL     1      21.159   2.264  52.614  1.00  0.00    -0.130 NA
HETATM   15  C8  UNL     1      22.423   1.624  52.728  1.00  0.00     0.094 A 
HETATM   16  C9  UNL     1      22.558   0.289  53.033  1.00  0.00     0.035 A 
HETATM   17  C17 UNL     1      23.587   2.338  52.529  1.00  0.00     0.034 A 
HETATM   18  C10 UNL     1      23.795  -0.311  53.137  1.00  0.00     0.015 A 
HETATM   19  C11 UNL     1      24.972   0.407  52.936  1.00  0.00    -0.022 A 
HETATM   20  C16 UNL     1      24.830   1.744  52.630  1.00  0.00     0.030 A 
HETATM   21  H6  UNL     1      24.198   4.862  53.031  1.00  0.00     0.105 HD
BRANCH  19  22
HETATM   22  C12 UNL     1      26.243  -0.291  53.058  1.00  0.00     0.010 A 
HETATM   23  C13 UNL     1      26.440  -1.647  52.852  1.00  0.00     0.152 A 
HETATM   24  N5  UNL     1      27.756  -1.904  53.066  1.00  0.00    -0.185 NA
HETATM   25  N6  UNL     1      28.376  -0.785  53.393  1.00  0.00    -0.285 N 
HETATM   26  C14 UNL     1      29.781  -0.530  53.719  1.00  0.00     0.179 C 
HETATM   27  C15 UNL     1      27.480   0.216  53.395  1.00  0.00     0.125 A 
ENDBRANCH  19  22
ENDBRANCH   9  11
ENDBRANCH   7   9
TORSDOF 3
ENDMDL
MODEL 9
REMARK VINA RESULT:      -8.4      2.664      5.212
REMARK  3 active torsions:
REMARK  status: ('A' for Active; 'I' for Inactive)
REMARK    1  A    between atoms: C7_7  and  N1_8 
REMARK    2  A    between atoms: N1_8  and  P1_9 
REMARK    3  A    between atoms: C11_16  and  C12_17 
ROOT
HETATM    1  C1  UNL     1      21.868   4.218  46.584  1.00  0.00     0.018 C 
HETATM    2  C2  UNL     1      22.274   4.541  47.674  1.00  0.00    -0.078 C 
HETATM    3  C3  UNL     1      22.735   4.922  48.982  1.00  0.00     0.019 A 
HETATM    4  C4  UNL     1      22.185   6.018  49.611  1.00  0.00     0.021 A 
HETATM    5  C5  UNL     1      22.631   6.384  50.881  1.00  0.00     0.004 A 
HETATM    6  C6  UNL     1      23.625   5.609  51.453  1.00  0.00     0.029 A 
HETATM    7  C7  UNL     1      24.175   4.510  50.818  1.00  0.00     0.033 A 
HETATM    8  C18 UNL     1      23.725   4.159  49.562  1.00  0.00     0.050 A 
ENDROOT
BRANCH   7   9
HETATM    9  N1  UNL     1      25.162   3.901  51.620  1.00  0.00    -0.349 N 
HETATM   10  H5  UNL     1      25.377   4.545  52.433  1.00  0.00     0.166 HD
BRANCH   9  11
HETATM   11  P1  UNL     1      25.939   2.330  51.351  1.00  0.00     0.101 P 
HETATM   12  N2  UNL     1      27.476   2.566  51.651  1.00  0.00    -0.128 NA
HETATM   13  N3  UNL     1      28.097   1.944  52.706  1.00  0.00    -0.043 NA
HETATM   14  N4  UNL     1      27.619   1.153  53.543  1.00  0.00    -0.130 NA
HETATM   15  C8  UNL     1      26.265   0.721  53.567  1.00  0.00     0.094 A 
HETATM   16  C9  UNL     1      25.778  -0.153  54.512  1.00  0.00     0.035 A 
HETATM   17  C17 UNL     1      25.370   1.176  52.620  1.00  0.00     0.034 A 
HETATM   18  C10 UNL     1      24.460  -0.557  54.517  1.00  0.00     0.015 A 
HETATM   19  C11 UNL     1      23.554  -0.099  53.562  1.00  0.00    -0.022 A 
HETATM   20  C16 UNL     1      24.049   0.776  52.618  1.00  0.00     0.030 A 
HETATM   21  H6  UNL     1      25.696   1.832  50.079  1.00  0.00     0.105 HD
BRANCH  19  22
HETATM   22  C12 UNL     1      22.177  -0.565  53.629  1.00  0.00     0.010 A 
HETATM   23  C13 UNL     1      21.710  -1.583  54.445  1.00  0.00     0.152 A 
HETATM   24  N5  UNL     1      20.380  -1.714  54.210  1.00  0.00    -0.185 NA
HETATM   25  N6  UNL     1      20.004  -0.837  53.297  1.00  0.00    -0.285 N 
HETATM   26  C14 UNL     1      18.691  -0.577  52.703  1.00  0.00     0.179 C 
HETATM   27  C15 UNL     1      21.078  -0.121  52.924  1.00  0.00     0.125 A 
ENDBRANCH  19  22
ENDBRANCH   9  11
ENDBRANCH   7   9
TORSDOF 3
ENDMDL
