MODEL 1
REMARK VINA RESULT:      -7.4      0.000      0.000
REMARK  9 active torsions:
REMARK  status: ('A' for Active; 'I' for Inactive)
REMARK    1  A    between atoms: O1_2  and  C2_3 
REMARK    2  A    between atoms: C2_3  and  C3_4 
REMARK    3  A    between atoms: C4_5  and  N1_6 
REMARK    4  A    between atoms: N1_6  and  C5_7 
REMARK    5  A    between atoms: C8_12  and  O2_13 
REMARK    6  A    between atoms: C10_15  and  O3_16 
REMARK    7  A    between atoms: C12_18  and  O4_19 
REMARK    8  A    between atoms: C17_25  and  O6_26 
REMARK    9  A    between atoms: C19_28  and  O7_29 
ROOT
HETATM    1  C5  UNL     1      22.545  -0.017  52.950  1.00  0.00     0.142 A 
HETATM    2  N2  UNL     1      22.931  -0.615  54.089  1.00  0.00    -0.224 NA
HETATM    3  C6  UNL     1      22.104  -1.291  54.904  1.00  0.00     0.236 A 
HETATM    4  N3  UNL     1      20.789  -1.383  54.564  1.00  0.00    -0.238 NA
HETATM    5  C7  UNL     1      20.384  -0.804  53.447  1.00  0.00     0.108 A 
HETATM    6  C8  UNL     1      19.048  -0.887  53.075  1.00  0.00     0.134 A 
HETATM    7  C10 UNL     1      18.634  -0.270  51.886  1.00  0.00     0.137 A 
HETATM    8  C12 UNL     1      19.536   0.421  51.075  1.00  0.00     0.105 A 
HETATM    9  C14 UNL     1      20.873   0.526  51.410  1.00  0.00     0.057 A 
HETATM   10  C15 UNL     1      21.195  -0.106  52.589  1.00  0.00     0.044 A 
ENDROOT
BRANCH   1  11
HETATM   11  N1  UNL     1      23.604   0.621  52.267  1.00  0.00    -0.341 N 
HETATM   12  H6  UNL     1      23.325   1.082  51.371  1.00  0.00     0.167 HD
BRANCH  11  13
HETATM   13  C4  UNL     1      24.921   0.608  52.802  1.00  0.00     0.046 A 
HETATM   14  C3  UNL     1      25.518   1.689  53.212  1.00  0.00     0.028 A 
HETATM   15  C19 UNL     1      26.867   1.662  53.744  1.00  0.00     0.134 A 
HETATM   16  C17 UNL     1      27.546   0.509  53.828  1.00  0.00     0.215 A 
HETATM   17  O5  UNL     1      26.911  -0.634  53.392  1.00  0.00    -0.322 OA
HETATM   18  C16 UNL     1      25.618  -0.701  52.883  1.00  0.00     0.235 A 
BRANCH  14  19
HETATM   19  C2  UNL     1      24.953   3.053  53.194  1.00  0.00     0.210 C 
BRANCH  19  20
HETATM   20  O1  UNL     1      24.471   3.395  51.915  1.00  0.00    -0.391 OA
HETATM   21  C1  UNL     1      23.341   4.235  52.052  1.00  0.00     0.201 C 
ENDBRANCH  19  20
ENDBRANCH  14  19
BRANCH  15  22
HETATM   22  O7  UNL     1      27.593   2.763  54.208  1.00  0.00    -0.356 OA
HETATM   23  H23 UNL     1      27.981   3.349  53.480  1.00  0.00     0.218 HD
ENDBRANCH  15  22
BRANCH  16  24
HETATM   24  O6  UNL     1      28.832   0.300  54.304  1.00  0.00    -0.333 OA
HETATM   25  C18 UNL     1      29.649  -0.738  53.815  1.00  0.00     0.212 C 
ENDBRANCH  16  24
ENDBRANCH  11  13
ENDBRANCH   1  11
BRANCH   6  26
HETATM   26  O2  UNL     1      18.197  -1.580  53.909  1.00  0.00    -0.351 OA
HETATM   27  C9  UNL     1      17.749  -2.887  53.774  1.00  0.00     0.210 C 
ENDBRANCH   6  26
BRANCH   8  28
HETATM   28  O4  UNL     1      19.059   1.004  49.919  1.00  0.00    -0.353 OA
HETATM   29  C13 UNL     1      19.418   2.334  49.623  1.00  0.00     0.210 C 
ENDBRANCH   8  28
BRANCH   7  30
HETATM   30  O3  UNL     1      17.274  -0.401  51.584  1.00  0.00    -0.351 OA
HETATM   31  C11 UNL     1      16.337   0.615  51.945  1.00  0.00     0.210 C 
ENDBRANCH   7  30
TORSDOF 9
ENDMDL
MODEL 2
REMARK VINA RESULT:      -7.4      3.217      5.925
REMARK  9 active torsions:
REMARK  status: ('A' for Active; 'I' for Inactive)
REMARK    1  A    between atoms: O1_2  and  C2_3 
REMARK    2  A    between atoms: C2_3  and  C3_4 
REMARK    3  A    between atoms: C4_5  and  N1_6 
REMARK    4  A    between atoms: N1_6  and  C5_7 
REMARK    5  A    between atoms: C8_12  and  O2_13 
REMARK    6  A    between atoms: C10_15  and  O3_16 
REMARK    7  A    between atoms: C12_18  and  O4_19 
REMARK    8  A    between atoms: C17_25  and  O6_26 
REMARK    9  A    between atoms: C19_28  and  O7_29 
ROOT
HETATM    1  C5  UNL     1      25.268   2.492  50.985  1.00  0.00     0.142 A 
HETATM    2  N2  UNL     1      26.578   2.595  51.265  1.00  0.00    -0.224 NA
HETATM    3  C6  UNL     1      27.213   1.848  52.184  1.00  0.00     0.236 A 
HETATM    4  N3  UNL     1      26.493   0.926  52.881  1.00  0.00    -0.238 NA
HETATM    5  C7  UNL     1      25.203   0.806  52.623  1.00  0.00     0.108 A 
HETATM    6  C8  UNL     1      24.447  -0.131  53.318  1.00  0.00     0.134 A 
HETATM    7  C10 UNL     1      23.080  -0.249  53.029  1.00  0.00     0.137 A 
HETATM    8  C12 UNL     1      22.470   0.553  52.064  1.00  0.00     0.105 A 
HETATM    9  C14 UNL     1      23.187   1.496  51.352  1.00  0.00     0.057 A 
HETATM   10  C15 UNL     1      24.518   1.547  51.694  1.00  0.00     0.044 A 
ENDROOT
BRANCH   1  11
HETATM   11  N1  UNL     1      24.843   3.382  49.973  1.00  0.00    -0.341 N 
HETATM   12  H6  UNL     1      24.316   2.929  49.192  1.00  0.00     0.167 HD
BRANCH  11  13
HETATM   13  C4  UNL     1      25.134   4.771  50.062  1.00  0.00     0.046 A 
HETATM   14  C3  UNL     1      24.439   5.583  50.804  1.00  0.00     0.028 A 
HETATM   15  C19 UNL     1      24.739   7.000  50.874  1.00  0.00     0.134 A 
HETATM   16  C17 UNL     1      25.754   7.520  50.168  1.00  0.00     0.215 A 
HETATM   17  O5  UNL     1      26.487   6.657  49.382  1.00  0.00    -0.322 OA
HETATM   18  C16 UNL     1      26.278   5.287  49.266  1.00  0.00     0.235 A 
BRANCH  14  19
HETATM   19  C2  UNL     1      23.282   5.216  51.644  1.00  0.00     0.210 C 
BRANCH  19  20
HETATM   20  O1  UNL     1      22.100   5.833  51.192  1.00  0.00    -0.391 OA
HETATM   21  C1  UNL     1      21.082   4.858  51.068  1.00  0.00     0.201 C 
ENDBRANCH  19  20
ENDBRANCH  14  19
BRANCH  15  22
HETATM   22  O7  UNL     1      24.056   7.951  51.638  1.00  0.00    -0.356 OA
HETATM   23  H23 UNL     1      24.335   7.989  52.610  1.00  0.00     0.218 HD
ENDBRANCH  15  22
BRANCH  16  24
HETATM   24  O6  UNL     1      26.179   8.840  50.114  1.00  0.00    -0.333 OA
HETATM   25  C18 UNL     1      27.529   9.180  49.909  1.00  0.00     0.212 C 
ENDBRANCH  16  24
ENDBRANCH  11  13
ENDBRANCH   1  11
BRANCH   6  26
HETATM   26  O2  UNL     1      25.095  -0.899  54.260  1.00  0.00    -0.351 OA
HETATM   27  C9  UNL     1      25.230  -0.648  55.619  1.00  0.00     0.210 C 
ENDBRANCH   6  26
BRANCH   8  28
HETATM   28  O4  UNL     1      21.120   0.382  51.833  1.00  0.00    -0.353 OA
HETATM   29  C13 UNL     1      20.222   1.388  52.243  1.00  0.00     0.210 C 
ENDBRANCH   8  28
BRANCH   7  30
HETATM   30  O3  UNL     1      22.392  -1.216  53.772  1.00  0.00    -0.351 OA
HETATM   31  C11 UNL     1      21.606  -0.852  54.908  1.00  0.00     0.210 C 
ENDBRANCH   7  30
TORSDOF 9
ENDMDL
MODEL 3
REMARK VINA RESULT:      -7.3      3.131      6.385
REMARK  9 active torsions:
REMARK  status: ('A' for Active; 'I' for Inactive)
REMARK    1  A    between atoms: O1_2  and  C2_3 
REMARK    2  A    between atoms: C2_3  and  C3_4 
REMARK    3  A    between atoms: C4_5  and  N1_6 
REMARK    4  A    between atoms: N1_6  and  C5_7 
REMARK    5  A    between atoms: C8_12  and  O2_13 
REMARK    6  A    between atoms: C10_15  and  O3_16 
REMARK    7  A    between atoms: C12_18  and  O4_19 
REMARK    8  A    between atoms: C17_25  and  O6_26 
REMARK    9  A    between atoms: C19_28  and  O7_29 
ROOT
HETATM    1  C5  UNL     1      23.133   2.716  51.353  1.00  0.00     0.142 A 
HETATM    2  N2  UNL     1      22.013   2.635  52.090  1.00  0.00    -0.224 NA
HETATM    3  C6  UNL     1      21.203   3.676  52.349  1.00  0.00     0.236 A 
HETATM    4  N3  UNL     1      21.529   4.895  51.836  1.00  0.00    -0.238 NA
HETATM    5  C7  UNL     1      22.626   5.000  51.107  1.00  0.00     0.108 A 
HETATM    6  C8  UNL     1      22.979   6.232  50.569  1.00  0.00     0.134 A 
HETATM    7  C10 UNL     1      24.144   6.326  49.795  1.00  0.00     0.137 A 
HETATM    8  C12 UNL     1      24.950   5.212  49.558  1.00  0.00     0.105 A 
HETATM    9  C14 UNL     1      24.634   3.970  50.075  1.00  0.00     0.057 A 
HETATM   10  C15 UNL     1      23.478   3.963  50.820  1.00  0.00     0.044 A 
ENDROOT
BRANCH   1  11
HETATM   11  N1  UNL     1      23.804   1.480  51.221  1.00  0.00    -0.341 N 
HETATM   12  H6  UNL     1      23.563   0.949  50.354  1.00  0.00     0.167 HD
BRANCH  11  13
HETATM   13  C4  UNL     1      24.723   1.046  52.215  1.00  0.00     0.046 A 
HETATM   14  C3  UNL     1      24.422   0.132  53.092  1.00  0.00     0.028 A 
HETATM   15  C19 UNL     1      25.366  -0.291  54.109  1.00  0.00     0.134 A 
HETATM   16  C17 UNL     1      26.589   0.255  54.176  1.00  0.00     0.215 A 
HETATM   17  O5  UNL     1      26.903   1.224  53.247  1.00  0.00    -0.322 OA
HETATM   18  C16 UNL     1      26.067   1.678  52.233  1.00  0.00     0.235 A 
BRANCH  14  19
HETATM   19  C2  UNL     1      23.133  -0.580  53.196  1.00  0.00     0.210 C 
BRANCH  19  20
HETATM   20  O1  UNL     1      22.534  -0.380  54.454  1.00  0.00    -0.391 OA
HETATM   21  C1  UNL     1      21.384  -1.198  54.559  1.00  0.00     0.201 C 
ENDBRANCH  19  20
ENDBRANCH  14  19
BRANCH  15  22
HETATM   22  O7  UNL     1      25.141  -1.260  55.090  1.00  0.00    -0.356 OA
HETATM   23  H23 UNL     1      24.216  -1.671  55.072  1.00  0.00     0.218 HD
ENDBRANCH  15  22
BRANCH  16  24
HETATM   24  O6  UNL     1      27.608  -0.025  55.075  1.00  0.00    -0.333 OA
HETATM   25  C18 UNL     1      28.947  -0.166  54.663  1.00  0.00     0.212 C 
ENDBRANCH  16  24
ENDBRANCH  11  13
ENDBRANCH   1  11
BRANCH   6  26
HETATM   26  O2  UNL     1      22.151   7.301  50.832  1.00  0.00    -0.351 OA
HETATM   27  C9  UNL     1      21.126   7.801  50.040  1.00  0.00     0.210 C 
ENDBRANCH   6  26
BRANCH   8  28
HETATM   28  O4  UNL     1      26.083   5.379  48.787  1.00  0.00    -0.353 OA
HETATM   29  C13 UNL     1      27.159   4.483  48.947  1.00  0.00     0.210 C 
ENDBRANCH   8  28
BRANCH   7  30
HETATM   30  O3  UNL     1      24.427   7.601  49.290  1.00  0.00    -0.351 OA
HETATM   31  C11 UNL     1      25.254   8.514  50.014  1.00  0.00     0.210 C 
ENDBRANCH   7  30
TORSDOF 9
ENDMDL
MODEL 4
REMARK VINA RESULT:      -6.9      2.884      5.047
REMARK  9 active torsions:
REMARK  status: ('A' for Active; 'I' for Inactive)
REMARK    1  A    between atoms: O1_2  and  C2_3 
REMARK    2  A    between atoms: C2_3  and  C3_4 
REMARK    3  A    between atoms: C4_5  and  N1_6 
REMARK    4  A    between atoms: N1_6  and  C5_7 
REMARK    5  A    between atoms: C8_12  and  O2_13 
REMARK    6  A    between atoms: C10_15  and  O3_16 
REMARK    7  A    between atoms: C12_18  and  O4_19 
REMARK    8  A    between atoms: C17_25  and  O6_26 
REMARK    9  A    between atoms: C19_28  and  O7_29 
ROOT
HETATM    1  C5  UNL     1      24.709   3.363  51.747  1.00  0.00     0.142 A 
HETATM    2  N2  UNL     1      25.770   3.551  50.946  1.00  0.00    -0.224 NA
HETATM    3  C6  UNL     1      25.685   3.878  49.645  1.00  0.00     0.236 A 
HETATM    4  N3  UNL     1      24.449   4.032  49.094  1.00  0.00    -0.238 NA
HETATM    5  C7  UNL     1      23.389   3.853  49.862  1.00  0.00     0.108 A 
HETATM    6  C8  UNL     1      22.116   4.009  49.325  1.00  0.00     0.134 A 
HETATM    7  C10 UNL     1      21.002   3.820  50.154  1.00  0.00     0.137 A 
HETATM    8  C12 UNL     1      21.148   3.480  51.500  1.00  0.00     0.105 A 
HETATM    9  C14 UNL     1      22.395   3.316  52.072  1.00  0.00     0.057 A 
HETATM   10  C15 UNL     1      23.433   3.520  51.192  1.00  0.00     0.044 A 
ENDROOT
BRANCH   1  11
HETATM   11  N1  UNL     1      25.063   3.036  53.075  1.00  0.00    -0.341 N 
HETATM   12  H6  UNL     1      24.613   3.635  53.803  1.00  0.00     0.167 HD
BRANCH  11  13
HETATM   13  C4  UNL     1      25.961   1.966  53.340  1.00  0.00     0.046 A 
HETATM   14  C3  UNL     1      25.593   0.719  53.298  1.00  0.00     0.028 A 
HETATM   15  C19 UNL     1      26.518  -0.361  53.585  1.00  0.00     0.134 A 
HETATM   16  C17 UNL     1      27.794  -0.101  53.907  1.00  0.00     0.215 A 
HETATM   17  O5  UNL     1      28.180   1.221  53.951  1.00  0.00    -0.322 OA
HETATM   18  C16 UNL     1      27.366   2.316  53.679  1.00  0.00     0.235 A 
BRANCH  14  19
HETATM   19  C2  UNL     1      24.240   0.224  52.979  1.00  0.00     0.210 C 
BRANCH  19  20
HETATM   20  O1  UNL     1      23.664  -0.448  54.074  1.00  0.00    -0.391 OA
HETATM   21  C1  UNL     1      22.260  -0.278  54.040  1.00  0.00     0.201 C 
ENDBRANCH  19  20
ENDBRANCH  14  19
BRANCH  15  22
HETATM   22  O7  UNL     1      26.223  -1.727  53.566  1.00  0.00    -0.356 OA
HETATM   23  H23 UNL     1      25.494  -1.991  52.916  1.00  0.00     0.218 HD
ENDBRANCH  15  22
BRANCH  16  24
HETATM   24  O6  UNL     1      28.806  -1.001  54.209  1.00  0.00    -0.333 OA
HETATM   25  C18 UNL     1      30.081  -0.916  53.618  1.00  0.00     0.212 C 
ENDBRANCH  16  24
ENDBRANCH  11  13
ENDBRANCH   1  11
BRANCH   6  26
HETATM   26  O2  UNL     1      22.025   4.344  47.992  1.00  0.00    -0.351 OA
HETATM   27  C9  UNL     1      21.813   3.498  46.912  1.00  0.00     0.210 C 
ENDBRANCH   6  26
BRANCH   8  28
HETATM   28  O4  UNL     1      20.006   3.309  52.257  1.00  0.00    -0.353 OA
HETATM   29  C13 UNL     1      19.443   2.021  52.368  1.00  0.00     0.210 C 
ENDBRANCH   8  28
BRANCH   7  30
HETATM   30  O3  UNL     1      19.759   3.996  49.537  1.00  0.00    -0.351 OA
HETATM   31  C11 UNL     1      19.082   5.254  49.585  1.00  0.00     0.210 C 
ENDBRANCH   7  30
TORSDOF 9
ENDMDL
MODEL 5
REMARK VINA RESULT:      -6.8      1.795      7.374
REMARK  9 active torsions:
REMARK  status: ('A' for Active; 'I' for Inactive)
REMARK    1  A    between atoms: O1_2  and  C2_3 
REMARK    2  A    between atoms: C2_3  and  C3_4 
REMARK    3  A    between atoms: C4_5  and  N1_6 
REMARK    4  A    between atoms: N1_6  and  C5_7 
REMARK    5  A    between atoms: C8_12  and  O2_13 
REMARK    6  A    between atoms: C10_15  and  O3_16 
REMARK    7  A    between atoms: C12_18  and  O4_19 
REMARK    8  A    between atoms: C17_25  and  O6_26 
REMARK    9  A    between atoms: C19_28  and  O7_29 
ROOT
HETATM    1  C5  UNL     1      21.537   0.696  53.449  1.00  0.00     0.142 A 
HETATM    2  N2  UNL     1      21.305  -0.290  54.331  1.00  0.00    -0.224 NA
HETATM    3  C6  UNL     1      22.249  -1.127  54.794  1.00  0.00     0.236 A 
HETATM    4  N3  UNL     1      23.527  -0.974  54.348  1.00  0.00    -0.238 NA
HETATM    5  C7  UNL     1      23.781  -0.011  53.480  1.00  0.00     0.108 A 
HETATM    6  C8  UNL     1      25.078   0.169  53.012  1.00  0.00     0.134 A 
HETATM    7  C10 UNL     1      25.332   1.198  52.094  1.00  0.00     0.137 A 
HETATM    8  C12 UNL     1      24.312   2.039  51.646  1.00  0.00     0.105 A 
HETATM    9  C14 UNL     1      23.011   1.893  52.087  1.00  0.00     0.057 A 
HETATM   10  C15 UNL     1      22.847   0.863  52.984  1.00  0.00     0.044 A 
ENDROOT
BRANCH   1  11
HETATM   11  N1  UNL     1      20.381   1.441  53.128  1.00  0.00    -0.341 N 
HETATM   12  H6  UNL     1      20.282   2.335  53.659  1.00  0.00     0.167 HD
BRANCH  11  13
HETATM   13  C4  UNL     1      19.463   0.966  52.151  1.00  0.00     0.046 A 
HETATM   14  C3  UNL     1      19.297   1.557  51.004  1.00  0.00     0.028 A 
HETATM   15  C19 UNL     1      18.347   1.069  50.023  1.00  0.00     0.134 A 
HETATM   16  C17 UNL     1      17.603  -0.018  50.274  1.00  0.00     0.215 A 
HETATM   17  O5  UNL     1      17.781  -0.641  51.490  1.00  0.00    -0.322 OA
HETATM   18  C16 UNL     1      18.676  -0.250  52.481  1.00  0.00     0.235 A 
BRANCH  14  19
HETATM   19  C2  UNL     1      20.005   2.767  50.540  1.00  0.00     0.210 C 
BRANCH  19  20
HETATM   20  O1  UNL     1      19.882   3.823  51.465  1.00  0.00    -0.391 OA
HETATM   21  C1  UNL     1      20.696   4.903  51.050  1.00  0.00     0.201 C 
ENDBRANCH  19  20
ENDBRANCH  14  19
BRANCH  15  22
HETATM   22  O7  UNL     1      18.096   1.630  48.767  1.00  0.00    -0.356 OA
HETATM   23  H23 UNL     1      18.484   1.111  47.989  1.00  0.00     0.218 HD
ENDBRANCH  15  22
BRANCH  16  24
HETATM   24  O6  UNL     1      16.654  -0.619  49.459  1.00  0.00    -0.333 OA
HETATM   25  C18 UNL     1      15.273  -0.459  49.681  1.00  0.00     0.212 C 
ENDBRANCH  16  24
ENDBRANCH  11  13
ENDBRANCH   1  11
BRANCH   6  26
HETATM   26  O2  UNL     1      26.048  -0.687  53.485  1.00  0.00    -0.351 OA
HETATM   27  C9  UNL     1      26.730  -1.674  52.785  1.00  0.00     0.210 C 
ENDBRANCH   6  26
BRANCH   8  28
HETATM   28  O4  UNL     1      24.636   3.030  50.742  1.00  0.00    -0.353 OA
HETATM   29  C13 UNL     1      24.347   4.372  51.063  1.00  0.00     0.210 C 
ENDBRANCH   8  28
BRANCH   7  30
HETATM   30  O3  UNL     1      26.662   1.311  51.675  1.00  0.00    -0.351 OA
HETATM   31  C11 UNL     1      27.588   2.145  52.375  1.00  0.00     0.210 C 
ENDBRANCH   7  30
TORSDOF 9
ENDMDL
MODEL 6
REMARK VINA RESULT:      -6.8      3.138      7.201
REMARK  9 active torsions:
REMARK  status: ('A' for Active; 'I' for Inactive)
REMARK    1  A    between atoms: O1_2  and  C2_3 
REMARK    2  A    between atoms: C2_3  and  C3_4 
REMARK    3  A    between atoms: C4_5  and  N1_6 
REMARK    4  A    between atoms: N1_6  and  C5_7 
REMARK    5  A    between atoms: C8_12  and  O2_13 
REMARK    6  A    between atoms: C10_15  and  O3_16 
REMARK    7  A    between atoms: C12_18  and  O4_19 
REMARK    8  A    between atoms: C17_25  and  O6_26 
REMARK    9  A    between atoms: C19_28  and  O7_29 
ROOT
HETATM    1  C5  UNL     1      24.436   2.377  50.972  1.00  0.00     0.142 A 
HETATM    2  N2  UNL     1      25.513   3.039  50.519  1.00  0.00    -0.224 NA
HETATM    3  C6  UNL     1      26.761   2.856  50.981  1.00  0.00     0.236 A 
HETATM    4  N3  UNL     1      26.959   1.942  51.971  1.00  0.00    -0.238 NA
HETATM    5  C7  UNL     1      25.915   1.277  52.434  1.00  0.00     0.108 A 
HETATM    6  C8  UNL     1      26.090   0.336  53.441  1.00  0.00     0.134 A 
HETATM    7  C10 UNL     1      24.973  -0.364  53.919  1.00  0.00     0.137 A 
HETATM    8  C12 UNL     1      23.697  -0.133  53.403  1.00  0.00     0.105 A 
HETATM    9  C14 UNL     1      23.481   0.794  52.401  1.00  0.00     0.057 A 
HETATM   10  C15 UNL     1      24.627   1.435  51.989  1.00  0.00     0.044 A 
ENDROOT
BRANCH   1  11
HETATM   11  N1  UNL     1      23.239   2.744  50.318  1.00  0.00    -0.341 N 
HETATM   12  H6  UNL     1      22.603   1.944  50.099  1.00  0.00     0.167 HD
BRANCH  11  13
HETATM   13  C4  UNL     1      22.972   4.106  50.008  1.00  0.00     0.046 A 
HETATM   14  C3  UNL     1      22.419   4.920  50.859  1.00  0.00     0.028 A 
HETATM   15  C19 UNL     1      22.142   6.303  50.524  1.00  0.00     0.134 A 
HETATM   16  C17 UNL     1      22.449   6.788  49.312  1.00  0.00     0.215 A 
HETATM   17  O5  UNL     1      23.034   5.923  48.412  1.00  0.00    -0.322 OA
HETATM   18  C16 UNL     1      23.347   4.589  48.653  1.00  0.00     0.235 A 
BRANCH  14  19
HETATM   19  C2  UNL     1      21.996   4.583  52.233  1.00  0.00     0.210 C 
BRANCH  19  20
HETATM   20  O1  UNL     1      21.255   3.386  52.265  1.00  0.00    -0.391 OA
HETATM   21  C1  UNL     1      19.914   3.658  51.908  1.00  0.00     0.201 C 
ENDBRANCH  19  20
ENDBRANCH  14  19
BRANCH  15  22
HETATM   22  O7  UNL     1      21.554   7.254  51.363  1.00  0.00    -0.356 OA
HETATM   23  H23 UNL     1      20.589   7.064  51.603  1.00  0.00     0.218 HD
ENDBRANCH  15  22
BRANCH  16  24
HETATM   24  O6  UNL     1      22.255   8.072  48.823  1.00  0.00    -0.333 OA
HETATM   25  C18 UNL     1      23.301   8.815  48.244  1.00  0.00     0.212 C 
ENDBRANCH  16  24
ENDBRANCH  11  13
ENDBRANCH   1  11
BRANCH   6  26
HETATM   26  O2  UNL     1      27.369   0.145  53.917  1.00  0.00    -0.351 OA
HETATM   27  C9  UNL     1      28.308  -0.785  53.490  1.00  0.00     0.210 C 
ENDBRANCH   6  26
BRANCH   8  28
HETATM   28  O4  UNL     1      22.644  -0.859  53.921  1.00  0.00    -0.353 OA
HETATM   29  C13 UNL     1      21.575  -0.174  54.535  1.00  0.00     0.210 C 
ENDBRANCH   8  28
BRANCH   7  30
HETATM   30  O3  UNL     1      25.236  -1.292  54.932  1.00  0.00    -0.351 OA
HETATM   31  C11 UNL     1      25.068  -0.949  56.309  1.00  0.00     0.210 C 
ENDBRANCH   7  30
TORSDOF 9
ENDMDL
MODEL 7
REMARK VINA RESULT:      -6.7      5.231      9.390
REMARK  9 active torsions:
REMARK  status: ('A' for Active; 'I' for Inactive)
REMARK    1  A    between atoms: O1_2  and  C2_3 
REMARK    2  A    between atoms: C2_3  and  C3_4 
REMARK    3  A    between atoms: C4_5  and  N1_6 
REMARK    4  A    between atoms: N1_6  and  C5_7 
REMARK    5  A    between atoms: C8_12  and  O2_13 
REMARK    6  A    between atoms: C10_15  and  O3_16 
REMARK    7  A    between atoms: C12_18  and  O4_19 
REMARK    8  A    between atoms: C17_25  and  O6_26 
REMARK    9  A    between atoms: C19_28  and  O7_29 
ROOT
HETATM    1  C5  UNL     1      25.172   5.484  49.578  1.00  0.00     0.142 A 
HETATM    2  N2  UNL     1      24.127   5.974  50.265  1.00  0.00    -0.224 NA
HETATM    3  C6  UNL     1      24.017   7.254  50.660  1.00  0.00     0.236 A 
HETATM    4  N3  UNL     1      25.022   8.118  50.347  1.00  0.00    -0.238 NA
HETATM    5  C7  UNL     1      26.061   7.660  49.671  1.00  0.00     0.108 A 
HETATM    6  C8  UNL     1      27.098   8.522  49.337  1.00  0.00     0.134 A 
HETATM    7  C10 UNL     1      28.192   8.021  48.616  1.00  0.00     0.137 A 
HETATM    8  C12 UNL     1      28.255   6.682  48.231  1.00  0.00     0.105 A 
HETATM    9  C14 UNL     1      27.245   5.792  48.545  1.00  0.00     0.057 A 
HETATM   10  C15 UNL     1      26.211   6.363  49.251  1.00  0.00     0.044 A 
ENDROOT
BRANCH   1  11
HETATM   11  N1  UNL     1      25.045   4.110  49.275  1.00  0.00    -0.341 N 
HETATM   12  H6  UNL     1      24.871   3.904  48.266  1.00  0.00     0.167 HD
BRANCH  11  13
HETATM   13  C4  UNL     1      25.156   3.131  50.300  1.00  0.00     0.046 A 
HETATM   14  C3  UNL     1      24.129   2.467  50.745  1.00  0.00     0.028 A 
HETATM   15  C19 UNL     1      24.256   1.480  51.801  1.00  0.00     0.134 A 
HETATM   16  C17 UNL     1      25.449   1.222  52.355  1.00  0.00     0.215 A 
HETATM   17  O5  UNL     1      26.534   1.927  51.882  1.00  0.00    -0.322 OA
HETATM   18  C16 UNL     1      26.506   2.878  50.867  1.00  0.00     0.235 A 
BRANCH  14  19
HETATM   19  C2  UNL     1      22.735   2.610  50.280  1.00  0.00     0.210 C 
BRANCH  19  20
HETATM   20  O1  UNL     1      22.298   1.458  49.599  1.00  0.00    -0.391 OA
HETATM   21  C1  UNL     1      22.111   1.767  48.231  1.00  0.00     0.201 C 
ENDBRANCH  19  20
ENDBRANCH  14  19
BRANCH  15  22
HETATM   22  O7  UNL     1      23.219   0.718  52.346  1.00  0.00    -0.356 OA
HETATM   23  H23 UNL     1      23.191  -0.243  52.029  1.00  0.00     0.218 HD
ENDBRANCH  15  22
BRANCH  16  24
HETATM   24  O6  UNL     1      25.752   0.321  53.366  1.00  0.00    -0.333 OA
HETATM   25  C18 UNL     1      26.302  -0.946  53.095  1.00  0.00     0.212 C 
ENDBRANCH  16  24
ENDBRANCH  11  13
ENDBRANCH   1  11
BRANCH   6  26
HETATM   26  O2  UNL     1      26.988   9.835  49.739  1.00  0.00    -0.351 OA
HETATM   27  C9  UNL     1      26.695  10.945  48.957  1.00  0.00     0.210 C 
ENDBRANCH   6  26
BRANCH   8  28
HETATM   28  O4  UNL     1      29.362   6.258  47.524  1.00  0.00    -0.353 OA
HETATM   29  C13 UNL     1      30.369   5.535  48.194  1.00  0.00     0.210 C 
ENDBRANCH   8  28
BRANCH   7  30
HETATM   30  O3  UNL     1      29.191   8.954  48.319  1.00  0.00    -0.351 OA
HETATM   31  C11 UNL     1      30.295   9.160  49.204  1.00  0.00     0.210 C 
ENDBRANCH   7  30
TORSDOF 9
ENDMDL
MODEL 8
REMARK VINA RESULT:      -6.7      3.365      7.216
REMARK  9 active torsions:
REMARK  status: ('A' for Active; 'I' for Inactive)
REMARK    1  A    between atoms: O1_2  and  C2_3 
REMARK    2  A    between atoms: C2_3  and  C3_4 
REMARK    3  A    between atoms: C4_5  and  N1_6 
REMARK    4  A    between atoms: N1_6  and  C5_7 
REMARK    5  A    between atoms: C8_12  and  O2_13 
REMARK    6  A    between atoms: C10_15  and  O3_16 
REMARK    7  A    between atoms: C12_18  and  O4_19 
REMARK    8  A    between atoms: C17_25  and  O6_26 
REMARK    9  A    between atoms: C19_28  and  O7_29 
ROOT
HETATM    1  C5  UNL     1      22.769   4.004  52.302  1.00  0.00     0.142 A 
HETATM    2  N2  UNL     1      21.511   3.824  51.867  1.00  0.00    -0.224 NA
HETATM    3  C6  UNL     1      20.898   2.630  51.805  1.00  0.00     0.236 A 
HETATM    4  N3  UNL     1      21.586   1.526  52.208  1.00  0.00    -0.238 NA
HETATM    5  C7  UNL     1      22.825   1.677  52.640  1.00  0.00     0.108 A 
HETATM    6  C8  UNL     1      23.547   0.566  53.059  1.00  0.00     0.134 A 
HETATM    7  C10 UNL     1      24.860   0.744  53.519  1.00  0.00     0.137 A 
HETATM    8  C12 UNL     1      25.449   2.008  53.561  1.00  0.00     0.105 A 
HETATM    9  C14 UNL     1      24.765   3.137  53.153  1.00  0.00     0.057 A 
HETATM   10  C15 UNL     1      23.486   2.877  52.718  1.00  0.00     0.044 A 
ENDROOT
BRANCH   1  11
HETATM   11  N1  UNL     1      23.179   5.356  52.277  1.00  0.00    -0.341 N 
HETATM   12  H6  UNL     1      23.540   5.714  53.190  1.00  0.00     0.167 HD
BRANCH  11  13
HETATM   13  C4  UNL     1      23.089   6.117  51.080  1.00  0.00     0.046 A 
HETATM   14  C3  UNL     1      24.016   6.095  50.167  1.00  0.00     0.028 A 
HETATM   15  C19 UNL     1      23.916   6.888  48.957  1.00  0.00     0.134 A 
HETATM   16  C17 UNL     1      22.854   7.677  48.742  1.00  0.00     0.215 A 
HETATM   17  O5  UNL     1      21.874   7.700  49.712  1.00  0.00    -0.322 OA
HETATM   18  C16 UNL     1      21.883   6.964  50.893  1.00  0.00     0.235 A 
BRANCH  14  19
HETATM   19  C2  UNL     1      25.263   5.306  50.216  1.00  0.00     0.210 C 
BRANCH  19  20
HETATM   20  O1  UNL     1      25.199   4.187  49.363  1.00  0.00    -0.391 OA
HETATM   21  C1  UNL     1      26.285   3.325  49.643  1.00  0.00     0.201 C 
ENDBRANCH  19  20
ENDBRANCH  14  19
BRANCH  15  22
HETATM   22  O7  UNL     1      24.853   6.932  47.921  1.00  0.00    -0.356 OA
HETATM   23  H23 UNL     1      24.809   7.766  47.349  1.00  0.00     0.218 HD
ENDBRANCH  15  22
BRANCH  16  24
HETATM   24  O6  UNL     1      22.596   8.497  47.653  1.00  0.00    -0.333 OA
HETATM   25  C18 UNL     1      22.817   9.887  47.697  1.00  0.00     0.212 C 
ENDBRANCH  16  24
ENDBRANCH  11  13
ENDBRANCH   1  11
BRANCH   6  26
HETATM   26  O2  UNL     1      22.922  -0.660  52.999  1.00  0.00    -0.351 OA
HETATM   27  C9  UNL     1      22.219  -1.310  54.004  1.00  0.00     0.210 C 
ENDBRANCH   6  26
BRANCH   8  28
HETATM   28  O4  UNL     1      26.745   2.108  54.025  1.00  0.00    -0.353 OA
HETATM   29  C13 UNL     1      27.802   2.188  53.095  1.00  0.00     0.210 C 
ENDBRANCH   8  28
BRANCH   7  30
HETATM   30  O3  UNL     1      25.517  -0.424  53.923  1.00  0.00    -0.351 OA
HETATM   31  C11 UNL     1      26.311  -1.179  53.006  1.00  0.00     0.210 C 
ENDBRANCH   7  30
TORSDOF 9
ENDMDL
MODEL 9
REMARK VINA RESULT:      -6.6      3.100      5.917
REMARK  9 active torsions:
REMARK  status: ('A' for Active; 'I' for Inactive)
REMARK    1  A    between atoms: O1_2  and  C2_3 
REMARK    2  A    between atoms: C2_3  and  C3_4 
REMARK    3  A    between atoms: C4_5  and  N1_6 
REMARK    4  A    between atoms: N1_6  and  C5_7 
REMARK    5  A    between atoms: C8_12  and  O2_13 
REMARK    6  A    between atoms: C10_15  and  O3_16 
REMARK    7  A    between atoms: C12_18  and  O4_19 
REMARK    8  A    between atoms: C17_25  and  O6_26 
REMARK    9  A    between atoms: C19_28  and  O7_29 
ROOT
HETATM    1  C5  UNL     1      23.565   2.904  51.485  1.00  0.00     0.142 A 
HETATM    2  N2  UNL     1      23.796   3.408  52.708  1.00  0.00    -0.224 NA
HETATM    3  C6  UNL     1      23.685   4.710  53.021  1.00  0.00     0.236 A 
HETATM    4  N3  UNL     1      23.315   5.583  52.043  1.00  0.00    -0.238 NA
HETATM    5  C7  UNL     1      23.082   5.111  50.831  1.00  0.00     0.108 A 
HETATM    6  C8  UNL     1      22.700   5.981  49.817  1.00  0.00     0.134 A 
HETATM    7  C10 UNL     1      22.452   5.464  48.537  1.00  0.00     0.137 A 
HETATM    8  C12 UNL     1      22.583   4.101  48.267  1.00  0.00     0.105 A 
HETATM    9  C14 UNL     1      22.962   3.204  49.247  1.00  0.00     0.057 A 
HETATM   10  C15 UNL     1      23.184   3.791  50.472  1.00  0.00     0.044 A 
ENDROOT
BRANCH   1  11
HETATM   11  N1  UNL     1      23.742   1.504  51.416  1.00  0.00    -0.341 N 
HETATM   12  H6  UNL     1      23.074   1.015  50.778  1.00  0.00     0.167 HD
BRANCH  11  13
HETATM   13  C4  UNL     1      24.762   0.865  52.173  1.00  0.00     0.046 A 
HETATM   14  C3  UNL     1      24.504   0.158  53.234  1.00  0.00     0.028 A 
HETATM   15  C19 UNL     1      25.557  -0.476  54.004  1.00  0.00     0.134 A 
HETATM   16  C17 UNL     1      26.841  -0.349  53.641  1.00  0.00     0.215 A 
HETATM   17  O5  UNL     1      27.111   0.402  52.517  1.00  0.00    -0.322 OA
HETATM   18  C16 UNL     1      26.165   1.032  51.714  1.00  0.00     0.235 A 
BRANCH  14  19
HETATM   19  C2  UNL     1      23.166  -0.093  53.806  1.00  0.00     0.210 C 
BRANCH  19  20
HETATM   20  O1  UNL     1      22.244  -0.474  52.812  1.00  0.00    -0.391 OA
HETATM   21  C1  UNL     1      20.964  -0.623  53.396  1.00  0.00     0.201 C 
ENDBRANCH  19  20
ENDBRANCH  14  19
BRANCH  15  22
HETATM   22  O7  UNL     1      25.384  -1.253  55.153  1.00  0.00    -0.356 OA
HETATM   23  H23 UNL     1      25.833  -2.160  55.119  1.00  0.00     0.218 HD
ENDBRANCH  15  22
BRANCH  16  24
HETATM   24  O6  UNL     1      27.966  -0.881  54.254  1.00  0.00    -0.333 OA
HETATM   25  C18 UNL     1      29.204  -0.210  54.252  1.00  0.00     0.212 C 
ENDBRANCH  16  24
ENDBRANCH  11  13
ENDBRANCH   1  11
BRANCH   6  26
HETATM   26  O2  UNL     1      22.584   7.316  50.134  1.00  0.00    -0.351 OA
HETATM   27  C9  UNL     1      23.564   8.297  50.065  1.00  0.00     0.210 C 
ENDBRANCH   6  26
BRANCH   8  28
HETATM   28  O4  UNL     1      22.324   3.664  46.984  1.00  0.00    -0.353 OA
HETATM   29  C13 UNL     1      21.001   3.332  46.626  1.00  0.00     0.210 C 
ENDBRANCH   8  28
BRANCH   7  30
HETATM   30  O3  UNL     1      22.071   6.405  47.574  1.00  0.00    -0.351 OA
HETATM   31  C11 UNL     1      23.025   6.957  46.663  1.00  0.00     0.210 C 
ENDBRANCH   7  30
TORSDOF 9
ENDMDL
