MODEL 1
REMARK VINA RESULT:      -6.7      0.000      0.000
REMARK  7 active torsions:
REMARK  status: ('A' for Active; 'I' for Inactive)
REMARK       I    between atoms: C1_2  and  N1_3 
REMARK    1  A    between atoms: C1_2  and  C6_9 
REMARK    2  A    between atoms: N1_3  and  C2_4 
REMARK    3  A    between atoms: C9_12  and  N2_13 
REMARK    4  A    between atoms: N2_13  and  C10_14 
REMARK    5  A    between atoms: N2_13  and  C12_17 
REMARK    6  A    between atoms: C10_14  and  C11_15 
REMARK    7  A    between atoms: C12_17  and  C13_18 
ROOT
HETATM    1  C6  UNL     1      24.392   0.100  53.063  1.00  0.00     0.032 A 
HETATM    2  C7  UNL     1      23.289  -0.503  53.652  1.00  0.00     0.019 A 
HETATM    3  C8  UNL     1      22.051  -0.036  53.288  1.00  0.00     0.030 A 
HETATM    4  C9  UNL     1      21.757   0.965  52.404  1.00  0.00     0.030 A 
HETATM    5  C14 UNL     1      22.886   1.517  51.860  1.00  0.00     0.030 A 
HETATM    6  C15 UNL     1      24.166   1.113  52.167  1.00  0.00     0.019 A 
ENDROOT
BRANCH   1   7
HETATM    7  C1  UNL     1      25.713  -0.389  53.451  1.00  0.00     0.256 C 
HETATM    8  O1  UNL     1      25.846  -0.985  54.547  1.00  0.00    -0.267 OA
HETATM    9  N1  UNL     1      26.869  -0.232  52.652  1.00  0.00    -0.323 N 
HETATM   10  H1  UNL     1      26.820   0.246  51.742  1.00  0.00     0.169 HD
BRANCH   9  11
HETATM   11  C2  UNL     1      28.117  -0.736  53.101  1.00  0.00     0.040 A 
HETATM   12  C3  UNL     1      29.061   0.018  53.691  1.00  0.00     0.072 A 
HETATM   13  C4  UNL     1      29.990  -1.090  53.869  1.00  0.00     0.120 A 
HETATM   14  F1  UNL     1      31.152  -1.658  54.266  1.00  0.00    -0.206 F 
HETATM   15  C5  UNL     1      29.062  -1.861  53.283  1.00  0.00     0.072 A 
ENDBRANCH   9  11
ENDBRANCH   1   7
BRANCH   4  16
HETATM   16  N2  UNL     1      20.476   1.420  52.003  1.00  0.00    -0.379 N 
BRANCH  16  17
HETATM   17  C10 UNL     1      19.711   2.593  52.183  1.00  0.00     0.138 C 
BRANCH  17  18
HETATM   18  C11 UNL     1      19.795   3.704  51.207  1.00  0.00     0.134 C 
HETATM   19 CL1  UNL     1      21.260   4.708  51.629  1.00  0.00    -0.129 Cl
ENDBRANCH  17  18
ENDBRANCH  16  17
BRANCH  16  20
HETATM   20  C12 UNL     1      19.655   0.527  51.178  1.00  0.00     0.138 C 
BRANCH  20  21
HETATM   21  C13 UNL     1      18.305   0.264  51.751  1.00  0.00     0.134 C 
HETATM   22 CL2  UNL     1      18.541  -0.985  53.026  1.00  0.00    -0.129 Cl
ENDBRANCH  20  21
ENDBRANCH  16  20
ENDBRANCH   4  16
TORSDOF 7
ENDMDL
MODEL 2
REMARK VINA RESULT:      -6.6      0.203      2.420
REMARK  7 active torsions:
REMARK  status: ('A' for Active; 'I' for Inactive)
REMARK       I    between atoms: C1_2  and  N1_3 
REMARK    1  A    between atoms: C1_2  and  C6_9 
REMARK    2  A    between atoms: N1_3  and  C2_4 
REMARK    3  A    between atoms: C9_12  and  N2_13 
REMARK    4  A    between atoms: N2_13  and  C10_14 
REMARK    5  A    between atoms: N2_13  and  C12_17 
REMARK    6  A    between atoms: C10_14  and  C11_15 
REMARK    7  A    between atoms: C12_17  and  C13_18 
ROOT
HETATM    1  C6  UNL     1      24.328  -0.029  53.038  1.00  0.00     0.032 A 
HETATM    2  C7  UNL     1      23.247  -0.718  53.571  1.00  0.00     0.019 A 
HETATM    3  C8  UNL     1      21.994  -0.301  53.200  1.00  0.00     0.030 A 
HETATM    4  C9  UNL     1      21.665   0.726  52.358  1.00  0.00     0.030 A 
HETATM    5  C14 UNL     1      22.774   1.363  51.869  1.00  0.00     0.030 A 
HETATM    6  C15 UNL     1      24.067   1.012  52.186  1.00  0.00     0.019 A 
ENDROOT
BRANCH   1   7
HETATM    7  C1  UNL     1      25.665  -0.466  53.434  1.00  0.00     0.256 C 
HETATM    8  O1  UNL     1      25.823  -1.016  54.551  1.00  0.00    -0.267 OA
HETATM    9  N1  UNL     1      26.811  -0.309  52.620  1.00  0.00    -0.323 N 
HETATM   10  H1  UNL     1      26.742   0.132  51.693  1.00  0.00     0.169 HD
BRANCH   9  11
HETATM   11  C2  UNL     1      28.075  -0.760  53.078  1.00  0.00     0.040 A 
HETATM   12  C3  UNL     1      28.982   0.033  53.676  1.00  0.00     0.072 A 
HETATM   13  C4  UNL     1      29.956  -1.035  53.861  1.00  0.00     0.120 A 
HETATM   14  F1  UNL     1      31.138  -1.554  54.266  1.00  0.00    -0.206 F 
HETATM   15  C5  UNL     1      29.065  -1.844  53.267  1.00  0.00     0.072 A 
ENDBRANCH   9  11
ENDBRANCH   1   7
BRANCH   4  16
HETATM   16  N2  UNL     1      20.371   1.131  51.948  1.00  0.00    -0.379 N 
BRANCH  16  17
HETATM   17  C10 UNL     1      19.324   0.571  51.183  1.00  0.00     0.138 C 
BRANCH  17  18
HETATM   18  C11 UNL     1      18.051   0.173  51.826  1.00  0.00     0.134 C 
HETATM   19 CL1  UNL     1      18.436  -1.075  53.102  1.00  0.00    -0.129 Cl
ENDBRANCH  17  18
ENDBRANCH  16  17
BRANCH  16  20
HETATM   20  C12 UNL     1      19.891   2.448  52.382  1.00  0.00     0.138 C 
BRANCH  20  21
HETATM   21  C13 UNL     1      19.762   3.429  51.269  1.00  0.00     0.134 C 
HETATM   22 CL2  UNL     1      21.100   4.613  51.492  1.00  0.00    -0.129 Cl
ENDBRANCH  20  21
ENDBRANCH  16  20
ENDBRANCH   4  16
TORSDOF 7
ENDMDL
MODEL 3
REMARK VINA RESULT:      -6.4      0.878      2.660
REMARK  7 active torsions:
REMARK  status: ('A' for Active; 'I' for Inactive)
REMARK       I    between atoms: C1_2  and  N1_3 
REMARK    1  A    between atoms: C1_2  and  C6_9 
REMARK    2  A    between atoms: N1_3  and  C2_4 
REMARK    3  A    between atoms: C9_12  and  N2_13 
REMARK    4  A    between atoms: N2_13  and  C10_14 
REMARK    5  A    between atoms: N2_13  and  C12_17 
REMARK    6  A    between atoms: C10_14  and  C11_15 
REMARK    7  A    between atoms: C12_17  and  C13_18 
ROOT
HETATM    1  C6  UNL     1      24.522   0.475  52.926  1.00  0.00     0.032 A 
HETATM    2  C7  UNL     1      24.574   1.434  51.924  1.00  0.00     0.019 A 
HETATM    3  C8  UNL     1      23.389   2.017  51.553  1.00  0.00     0.030 A 
HETATM    4  C9  UNL     1      22.138   1.772  52.052  1.00  0.00     0.030 A 
HETATM    5  C14 UNL     1      22.157   0.817  53.034  1.00  0.00     0.030 A 
HETATM    6  C15 UNL     1      23.298   0.181  53.469  1.00  0.00     0.019 A 
ENDROOT
BRANCH   1   7
HETATM    7  C1  UNL     1      25.781  -0.153  53.321  1.00  0.00     0.256 C 
HETATM    8  O1  UNL     1      25.792  -0.932  54.306  1.00  0.00    -0.267 OA
HETATM    9  N1  UNL     1      27.006   0.062  52.650  1.00  0.00    -0.323 N 
HETATM   10  H1  UNL     1      27.058   0.688  51.834  1.00  0.00     0.169 HD
BRANCH   9  11
HETATM   11  C2  UNL     1      28.186  -0.586  53.098  1.00  0.00     0.040 A 
HETATM   12  C3  UNL     1      29.200   0.045  53.715  1.00  0.00     0.072 A 
HETATM   13  C4  UNL     1      29.999  -1.162  53.874  1.00  0.00     0.120 A 
HETATM   14  F1  UNL     1      31.088  -1.864  54.268  1.00  0.00    -0.206 F 
HETATM   15  C5  UNL     1      28.999  -1.813  53.261  1.00  0.00     0.072 A 
ENDBRANCH   9  11
ENDBRANCH   1   7
BRANCH   4  16
HETATM   16  N2  UNL     1      20.921   2.401  51.692  1.00  0.00    -0.379 N 
BRANCH  16  17
HETATM   17  C10 UNL     1      19.603   2.429  52.197  1.00  0.00     0.138 C 
BRANCH  17  18
HETATM   18  C11 UNL     1      18.518   1.692  51.508  1.00  0.00     0.134 C 
HETATM   19 CL1  UNL     1      19.055  -0.042  51.315  1.00  0.00    -0.129 Cl
ENDBRANCH  17  18
ENDBRANCH  16  17
BRANCH  16  20
HETATM   20  C12 UNL     1      20.920   3.278  50.516  1.00  0.00     0.138 C 
BRANCH  20  21
HETATM   21  C13 UNL     1      20.514   4.678  50.820  1.00  0.00     0.134 C 
HETATM   22 CL2  UNL     1      21.922   5.437  51.646  1.00  0.00    -0.129 Cl
ENDBRANCH  20  21
ENDBRANCH  16  20
ENDBRANCH   4  16
TORSDOF 7
ENDMDL
MODEL 4
REMARK VINA RESULT:      -6.2      5.803      6.997
REMARK  7 active torsions:
REMARK  status: ('A' for Active; 'I' for Inactive)
REMARK       I    between atoms: C1_2  and  N1_3 
REMARK    1  A    between atoms: C1_2  and  C6_9 
REMARK    2  A    between atoms: N1_3  and  C2_4 
REMARK    3  A    between atoms: C9_12  and  N2_13 
REMARK    4  A    between atoms: N2_13  and  C10_14 
REMARK    5  A    between atoms: N2_13  and  C12_17 
REMARK    6  A    between atoms: C10_14  and  C11_15 
REMARK    7  A    between atoms: C12_17  and  C13_18 
ROOT
HETATM    1  C6  UNL     1      25.757   3.526  50.348  1.00  0.00     0.032 A 
HETATM    2  C7  UNL     1      24.421   3.488  50.720  1.00  0.00     0.019 A 
HETATM    3  C8  UNL     1      24.030   2.465  51.546  1.00  0.00     0.030 A 
HETATM    4  C9  UNL     1      24.800   1.458  52.061  1.00  0.00     0.030 A 
HETATM    5  C14 UNL     1      26.105   1.554  51.655  1.00  0.00     0.030 A 
HETATM    6  C15 UNL     1      26.585   2.545  50.829  1.00  0.00     0.019 A 
ENDROOT
BRANCH   1   7
HETATM    7  C1  UNL     1      26.179   4.611  49.464  1.00  0.00     0.256 C 
HETATM    8  O1  UNL     1      25.310   5.241  48.813  1.00  0.00    -0.267 OA
HETATM    9  N1  UNL     1      27.527   5.003  49.296  1.00  0.00    -0.323 N 
HETATM   10  H1  UNL     1      28.282   4.525  49.806  1.00  0.00     0.169 HD
BRANCH   9  11
HETATM   11  C2  UNL     1      27.854   6.067  48.417  1.00  0.00     0.040 A 
HETATM   12  C3  UNL     1      29.066   6.235  47.862  1.00  0.00     0.072 A 
HETATM   13  C4  UNL     1      28.686   7.436  47.131  1.00  0.00     0.120 A 
HETATM   14  F1  UNL     1      28.907   8.483  46.301  1.00  0.00    -0.206 F 
HETATM   15  C5  UNL     1      27.468   7.288  47.673  1.00  0.00     0.072 A 
ENDBRANCH   9  11
ENDBRANCH   1   7
BRANCH   4  16
HETATM   16  N2  UNL     1      24.401   0.424  52.943  1.00  0.00    -0.379 N 
BRANCH  16  17
HETATM   17  C10 UNL     1      25.033  -0.659  53.592  1.00  0.00     0.138 C 
BRANCH  17  18
HETATM   18  C11 UNL     1      25.574  -0.503  54.962  1.00  0.00     0.134 C 
HETATM   19 CL1  UNL     1      27.253   0.202  54.822  1.00  0.00    -0.129 Cl
ENDBRANCH  17  18
ENDBRANCH  16  17
BRANCH  16  20
HETATM   20  C12 UNL     1      22.995   0.378  53.360  1.00  0.00     0.138 C 
BRANCH  20  21
HETATM   21  C13 UNL     1      22.330  -0.921  53.064  1.00  0.00     0.134 C 
HETATM   22 CL2  UNL     1      21.520  -1.424  54.590  1.00  0.00    -0.129 Cl
ENDBRANCH  20  21
ENDBRANCH  16  20
ENDBRANCH   4  16
TORSDOF 7
ENDMDL
MODEL 5
REMARK VINA RESULT:      -6.1      4.806      8.162
REMARK  7 active torsions:
REMARK  status: ('A' for Active; 'I' for Inactive)
REMARK       I    between atoms: C1_2  and  N1_3 
REMARK    1  A    between atoms: C1_2  and  C6_9 
REMARK    2  A    between atoms: N1_3  and  C2_4 
REMARK    3  A    between atoms: C9_12  and  N2_13 
REMARK    4  A    between atoms: N2_13  and  C10_14 
REMARK    5  A    between atoms: N2_13  and  C12_17 
REMARK    6  A    between atoms: C10_14  and  C11_15 
REMARK    7  A    between atoms: C12_17  and  C13_18 
ROOT
HETATM    1  C6  UNL     1      21.513   0.154  52.774  1.00  0.00     0.032 A 
HETATM    2  C7  UNL     1      22.386  -0.828  53.222  1.00  0.00     0.019 A 
HETATM    3  C8  UNL     1      23.691  -0.460  53.428  1.00  0.00     0.030 A 
HETATM    4  C9  UNL     1      24.256   0.773  53.246  1.00  0.00     0.030 A 
HETATM    5  C14 UNL     1      23.344   1.694  52.803  1.00  0.00     0.030 A 
HETATM    6  C15 UNL     1      22.016   1.413  52.570  1.00  0.00     0.019 A 
ENDROOT
BRANCH   1   7
HETATM    7  C1  UNL     1      20.123  -0.234  52.547  1.00  0.00     0.256 C 
HETATM    8  O1  UNL     1      19.594   0.010  51.435  1.00  0.00    -0.267 OA
HETATM    9  N1  UNL     1      19.324  -0.881  53.518  1.00  0.00    -0.323 N 
HETATM   10  H1  UNL     1      19.705  -1.109  54.447  1.00  0.00     0.169 HD
BRANCH   9  11
HETATM   11  C2  UNL     1      17.981  -1.224  53.220  1.00  0.00     0.040 A 
HETATM   12  C3  UNL     1      17.496  -2.477  53.276  1.00  0.00     0.072 A 
HETATM   13  C4  UNL     1      16.149  -2.091  52.877  1.00  0.00     0.120 A 
HETATM   14  F1  UNL     1      14.851  -2.325  52.575  1.00  0.00    -0.206 F 
HETATM   15  C5  UNL     1      16.611  -0.833  52.814  1.00  0.00     0.072 A 
ENDBRANCH   9  11
ENDBRANCH   1   7
BRANCH   4  16
HETATM   16  N2  UNL     1      25.596   1.159  53.494  1.00  0.00    -0.379 N 
BRANCH  16  17
HETATM   17  C10 UNL     1      26.488   2.125  52.979  1.00  0.00     0.138 C 
BRANCH  17  18
HETATM   18  C11 UNL     1      26.813   2.156  51.534  1.00  0.00     0.134 C 
HETATM   19 CL1  UNL     1      25.732   3.399  50.746  1.00  0.00    -0.129 Cl
ENDBRANCH  17  18
ENDBRANCH  16  17
BRANCH  16  20
HETATM   20  C12 UNL     1      26.337   0.444  54.539  1.00  0.00     0.138 C 
BRANCH  20  21
HETATM   21  C13 UNL     1      27.608  -0.162  54.056  1.00  0.00     0.134 C 
HETATM   22 CL2  UNL     1      27.137  -1.407  52.844  1.00  0.00    -0.129 Cl
ENDBRANCH  20  21
ENDBRANCH  16  20
ENDBRANCH   4  16
TORSDOF 7
ENDMDL
MODEL 6
REMARK VINA RESULT:      -5.9      6.940      7.681
REMARK  7 active torsions:
REMARK  status: ('A' for Active; 'I' for Inactive)
REMARK       I    between atoms: C1_2  and  N1_3 
REMARK    1  A    between atoms: C1_2  and  C6_9 
REMARK    2  A    between atoms: N1_3  and  C2_4 
REMARK    3  A    between atoms: C9_12  and  N2_13 
REMARK    4  A    between atoms: N2_13  and  C10_14 
REMARK    5  A    between atoms: N2_13  and  C12_17 
REMARK    6  A    between atoms: C10_14  and  C11_15 
REMARK    7  A    between atoms: C12_17  and  C13_18 
ROOT
HETATM    1  C6  UNL     1      27.383   5.671  48.618  1.00  0.00     0.032 A 
HETATM    2  C7  UNL     1      26.277   6.494  48.457  1.00  0.00     0.019 A 
HETATM    3  C8  UNL     1      25.051   5.964  48.770  1.00  0.00     0.030 A 
HETATM    4  C9  UNL     1      24.771   4.706  49.228  1.00  0.00     0.030 A 
HETATM    5  C14 UNL     1      25.903   3.946  49.363  1.00  0.00     0.030 A 
HETATM    6  C15 UNL     1      27.171   4.395  49.074  1.00  0.00     0.019 A 
ENDROOT
BRANCH   1   7
HETATM    7  C1  UNL     1      28.692   6.228  48.281  1.00  0.00     0.256 C 
HETATM    8  O1  UNL     1      28.822   6.880  47.217  1.00  0.00    -0.267 OA
HETATM    9  N1  UNL     1      29.837   6.078  49.096  1.00  0.00    -0.323 N 
HETATM   10  H1  UNL     1      29.790   5.556  49.981  1.00  0.00     0.169 HD
BRANCH   9  11
HETATM   11  C2  UNL     1      31.073   6.650  48.697  1.00  0.00     0.040 A 
HETATM   12  C3  UNL     1      31.633   7.716  49.295  1.00  0.00     0.072 A 
HETATM   13  C4  UNL     1      32.799   7.731  48.421  1.00  0.00     0.120 A 
HETATM   14  F1  UNL     1      33.983   8.208  47.972  1.00  0.00    -0.206 F 
HETATM   15  C5  UNL     1      32.259   6.665  47.811  1.00  0.00     0.072 A 
ENDBRANCH   9  11
ENDBRANCH   1   7
BRANCH   4  16
HETATM   16  N2  UNL     1      23.508   4.173  49.584  1.00  0.00    -0.379 N 
BRANCH  16  17
HETATM   17  C10 UNL     1      22.360   4.643  50.259  1.00  0.00     0.138 C 
BRANCH  17  18
HETATM   18  C11 UNL     1      22.487   5.597  51.386  1.00  0.00     0.134 C 
HETATM   19 CL1  UNL     1      23.407   4.762  52.723  1.00  0.00    -0.129 Cl
ENDBRANCH  17  18
ENDBRANCH  16  17
BRANCH  16  20
HETATM   20  C12 UNL     1      23.206   2.792  49.193  1.00  0.00     0.138 C 
BRANCH  20  21
HETATM   21  C13 UNL     1      22.638   1.972  50.299  1.00  0.00     0.134 C 
HETATM   22 CL2  UNL     1      24.020   1.573  51.382  1.00  0.00    -0.129 Cl
ENDBRANCH  20  21
ENDBRANCH  16  20
ENDBRANCH   4  16
TORSDOF 7
ENDMDL
MODEL 7
REMARK VINA RESULT:      -5.9      2.610      3.067
REMARK  7 active torsions:
REMARK  status: ('A' for Active; 'I' for Inactive)
REMARK       I    between atoms: C1_2  and  N1_3 
REMARK    1  A    between atoms: C1_2  and  C6_9 
REMARK    2  A    between atoms: N1_3  and  C2_4 
REMARK    3  A    between atoms: C9_12  and  N2_13 
REMARK    4  A    between atoms: N2_13  and  C10_14 
REMARK    5  A    between atoms: N2_13  and  C12_17 
REMARK    6  A    between atoms: C10_14  and  C11_15 
REMARK    7  A    between atoms: C12_17  and  C13_18 
ROOT
HETATM    1  C6  UNL     1      25.197   2.642  51.798  1.00  0.00     0.032 A 
HETATM    2  C7  UNL     1      24.345   3.072  52.806  1.00  0.00     0.019 A 
HETATM    3  C8  UNL     1      23.183   3.692  52.422  1.00  0.00     0.030 A 
HETATM    4  C9  UNL     1      22.746   3.947  51.151  1.00  0.00     0.030 A 
HETATM    5  C14 UNL     1      23.631   3.500  50.206  1.00  0.00     0.030 A 
HETATM    6  C15 UNL     1      24.818   2.869  50.500  1.00  0.00     0.019 A 
ENDROOT
BRANCH   1   7
HETATM    7  C1  UNL     1      26.439   1.986  52.200  1.00  0.00     0.256 C 
HETATM    8  O1  UNL     1      27.534   2.455  51.804  1.00  0.00    -0.267 OA
HETATM    9  N1  UNL     1      26.485   0.839  53.026  1.00  0.00    -0.323 N 
HETATM   10  H1  UNL     1      25.619   0.413  53.383  1.00  0.00     0.169 HD
BRANCH   9  11
HETATM   11  C2  UNL     1      27.733   0.261  53.371  1.00  0.00     0.040 A 
HETATM   12  C3  UNL     1      28.059  -1.020  53.125  1.00  0.00     0.072 A 
HETATM   13  C4  UNL     1      29.391  -0.907  53.705  1.00  0.00     0.120 A 
HETATM   14  F1  UNL     1      30.608  -1.373  54.070  1.00  0.00    -0.206 F 
HETATM   15  C5  UNL     1      29.087   0.375  53.959  1.00  0.00     0.072 A 
ENDBRANCH   9  11
ENDBRANCH   1   7
BRANCH   4  16
HETATM   16  N2  UNL     1      21.529   4.555  50.758  1.00  0.00    -0.379 N 
BRANCH  16  17
HETATM   17  C10 UNL     1      21.069   5.875  50.559  1.00  0.00     0.138 C 
BRANCH  17  18
HETATM   18  C11 UNL     1      21.934   7.032  50.891  1.00  0.00     0.134 C 
HETATM   19 CL1  UNL     1      23.191   7.183  49.576  1.00  0.00    -0.129 Cl
ENDBRANCH  17  18
ENDBRANCH  16  17
BRANCH  16  20
HETATM   20  C12 UNL     1      20.393   3.682  50.444  1.00  0.00     0.138 C 
BRANCH  20  21
HETATM   21  C13 UNL     1      19.437   3.522  51.574  1.00  0.00     0.134 C 
HETATM   22 CL2  UNL     1      19.954   2.040  52.456  1.00  0.00    -0.129 Cl
ENDBRANCH  20  21
ENDBRANCH  16  20
ENDBRANCH   4  16
TORSDOF 7
ENDMDL
MODEL 8
REMARK VINA RESULT:      -5.9      2.177      2.985
REMARK  7 active torsions:
REMARK  status: ('A' for Active; 'I' for Inactive)
REMARK       I    between atoms: C1_2  and  N1_3 
REMARK    1  A    between atoms: C1_2  and  C6_9 
REMARK    2  A    between atoms: N1_3  and  C2_4 
REMARK    3  A    between atoms: C9_12  and  N2_13 
REMARK    4  A    between atoms: N2_13  and  C10_14 
REMARK    5  A    between atoms: N2_13  and  C12_17 
REMARK    6  A    between atoms: C10_14  and  C11_15 
REMARK    7  A    between atoms: C12_17  and  C13_18 
ROOT
HETATM    1  C6  UNL     1      22.076  -0.280  53.189  1.00  0.00     0.032 A 
HETATM    2  C7  UNL     1      21.873   0.197  51.902  1.00  0.00     0.019 A 
HETATM    3  C8  UNL     1      20.578   0.256  51.453  1.00  0.00     0.030 A 
HETATM    4  C9  UNL     1      19.439  -0.100  52.122  1.00  0.00     0.030 A 
HETATM    5  C14 UNL     1      19.709  -0.562  53.383  1.00  0.00     0.030 A 
HETATM    6  C15 UNL     1      20.975  -0.656  53.915  1.00  0.00     0.019 A 
ENDROOT
BRANCH   1   7
HETATM    7  C1  UNL     1      23.454  -0.351  53.671  1.00  0.00     0.256 C 
HETATM    8  O1  UNL     1      23.703  -1.000  54.716  1.00  0.00    -0.267 OA
HETATM    9  N1  UNL     1      24.543   0.273  53.019  1.00  0.00    -0.323 N 
HETATM   10  H1  UNL     1      24.399   0.816  52.157  1.00  0.00     0.169 HD
BRANCH   9  11
HETATM   11  C2  UNL     1      25.852   0.157  53.552  1.00  0.00     0.040 A 
HETATM   12  C3  UNL     1      26.834  -0.559  52.978  1.00  0.00     0.072 A 
HETATM   13  C4  UNL     1      27.818  -0.236  54.003  1.00  0.00     0.120 A 
HETATM   14  F1  UNL     1      29.039  -0.289  54.584  1.00  0.00    -0.206 F 
HETATM   15  C5  UNL     1      26.853   0.485  54.593  1.00  0.00     0.072 A 
ENDBRANCH   9  11
ENDBRANCH   1   7
BRANCH   4  16
HETATM   16  N2  UNL     1      18.100  -0.003  51.669  1.00  0.00    -0.379 N 
BRANCH  16  17
HETATM   17  C10 UNL     1      17.446   0.530  50.537  1.00  0.00     0.138 C 
BRANCH  17  18
HETATM   18  C11 UNL     1      17.668   1.937  50.132  1.00  0.00     0.134 C 
HETATM   19 CL1  UNL     1      17.600   2.969  51.636  1.00  0.00    -0.129 Cl
ENDBRANCH  17  18
ENDBRANCH  16  17
BRANCH  16  20
HETATM   20  C12 UNL     1      17.045  -0.580  52.510  1.00  0.00     0.138 C 
BRANCH  20  21
HETATM   21  C13 UNL     1      15.684  -0.464  51.916  1.00  0.00     0.134 C 
HETATM   22 CL2  UNL     1      14.750   0.610  53.019  1.00  0.00    -0.129 Cl
ENDBRANCH  20  21
ENDBRANCH  16  20
ENDBRANCH   4  16
TORSDOF 7
ENDMDL
MODEL 9
REMARK VINA RESULT:      -5.9      1.904      2.353
REMARK  7 active torsions:
REMARK  status: ('A' for Active; 'I' for Inactive)
REMARK       I    between atoms: C1_2  and  N1_3 
REMARK    1  A    between atoms: C1_2  and  C6_9 
REMARK    2  A    between atoms: N1_3  and  C2_4 
REMARK    3  A    between atoms: C9_12  and  N2_13 
REMARK    4  A    between atoms: N2_13  and  C10_14 
REMARK    5  A    between atoms: N2_13  and  C12_17 
REMARK    6  A    between atoms: C10_14  and  C11_15 
REMARK    7  A    between atoms: C12_17  and  C13_18 
ROOT
HETATM    1  C6  UNL     1      22.776   0.551  52.445  1.00  0.00     0.032 A 
HETATM    2  C7  UNL     1      21.944   0.099  53.460  1.00  0.00     0.019 A 
HETATM    3  C8  UNL     1      20.593   0.135  53.224  1.00  0.00     0.030 A 
HETATM    4  C9  UNL     1      19.947   0.567  52.098  1.00  0.00     0.030 A 
HETATM    5  C14 UNL     1      20.823   0.999  51.139  1.00  0.00     0.030 A 
HETATM    6  C15 UNL     1      22.192   0.999  51.289  1.00  0.00     0.019 A 
ENDROOT
BRANCH   1   7
HETATM    7  C1  UNL     1      24.216   0.520  52.692  1.00  0.00     0.256 C 
HETATM    8  O1  UNL     1      24.963   1.298  52.050  1.00  0.00    -0.267 OA
HETATM    9  N1  UNL     1      24.830  -0.343  53.629  1.00  0.00    -0.323 N 
HETATM   10  H1  UNL     1      24.268  -1.000  54.187  1.00  0.00     0.169 HD
BRANCH   9  11
HETATM   11  C2  UNL     1      26.236  -0.312  53.809  1.00  0.00     0.040 A 
HETATM   12  C3  UNL     1      26.842   0.213  54.889  1.00  0.00     0.072 A 
HETATM   13  C4  UNL     1      28.187  -0.092  54.418  1.00  0.00     0.120 A 
HETATM   14  F1  UNL     1      29.538  -0.107  54.504  1.00  0.00    -0.206 F 
HETATM   15  C5  UNL     1      27.604  -0.622  53.332  1.00  0.00     0.072 A 
ENDBRANCH   9  11
ENDBRANCH   1   7
BRANCH   4  16
HETATM   16  N2  UNL     1      18.553   0.569  51.844  1.00  0.00    -0.379 N 
BRANCH  16  17
HETATM   17  C10 UNL     1      17.564   1.548  51.609  1.00  0.00     0.138 C 
BRANCH  17  18
HETATM   18  C11 UNL     1      17.143   1.876  50.227  1.00  0.00     0.134 C 
HETATM   19 CL1  UNL     1      18.113   3.322  49.676  1.00  0.00    -0.129 Cl
ENDBRANCH  17  18
ENDBRANCH  16  17
BRANCH  16  20
HETATM   20  C12 UNL     1      17.863  -0.724  51.779  1.00  0.00     0.138 C 
BRANCH  20  21
HETATM   21  C13 UNL     1      17.107  -1.057  53.018  1.00  0.00     0.134 C 
HETATM   22 CL2  UNL     1      17.927  -2.493  53.730  1.00  0.00    -0.129 Cl
ENDBRANCH  20  21
ENDBRANCH  16  20
ENDBRANCH   4  16
TORSDOF 7
ENDMDL
