MODEL 1
REMARK VINA RESULT:      -8.6      0.000      0.000
REMARK  4 active torsions:
REMARK  status: ('A' for Active; 'I' for Inactive)
REMARK    1  A    between atoms: C15_21  and  C16_22 
REMARK    2  A    between atoms: C16_22  and  C17_23 
REMARK    3  A    between atoms: C17_23  and  C18_24 
REMARK    4  A    between atoms: C18_24  and  N4_25 
ROOT
HETATM    1  C1  UNL     1      25.886   8.817  49.841  1.00  0.00     0.000 C 
HETATM    2  O1  UNL     1      25.496   7.762  49.028  1.00  0.00     0.000 OA
HETATM    3  C2  UNL     1      25.783   6.444  49.083  1.00  0.00    -0.038 A 
HETATM    4  C3  UNL     1      24.528   6.526  49.427  1.00  0.00     0.051 A 
HETATM    5  C4  UNL     1      23.153   6.705  49.793  1.00  0.00     0.111 C 
HETATM    6  N1  UNL     1      22.379   5.762  50.131  1.00  0.00    -0.196 NA
HETATM    7  C5  UNL     1      21.062   5.836  50.499  1.00  0.00     0.232 A 
HETATM    8  N2  UNL     1      21.810   5.015  51.124  1.00  0.00    -0.302 N 
HETATM    9  C6  UNL     1      21.340   4.189  52.172  1.00  0.00     0.261 C 
HETATM   10  N3  UNL     1      21.905   2.826  52.108  1.00  0.00    -0.373 N 
HETATM   11  C7  UNL     1      23.339   2.665  52.066  1.00  0.00     0.031 A 
HETATM   12  C8  UNL     1      24.164   2.263  53.096  1.00  0.00     0.056 A 
HETATM   13  C9  UNL     1      25.530   2.176  52.918  1.00  0.00     0.075 A 
HETATM   14 CL1  UNL     1      26.451   1.657  54.309  1.00  0.00    -0.081 Cl
HETATM   15  C10 UNL     1      26.117   2.482  51.713  1.00  0.00     0.144 A 
HETATM   16  F1  UNL     1      27.431   2.402  51.531  1.00  0.00    -0.204 F 
HETATM   17  C11 UNL     1      25.387   2.890  50.625  1.00  0.00    -0.012 A 
HETATM   18  C12 UNL     1      23.997   2.955  50.882  1.00  0.00     0.039 A 
HETATM   19  C13 UNL     1      25.776   3.277  49.307  1.00  0.00     0.069 C 
HETATM   20  C14 UNL     1      26.826   4.183  48.981  1.00  0.00    -0.014 C 
HETATM   21  C15 UNL     1      26.873   5.526  48.867  1.00  0.00    -0.054 C 
HETATM   22  H9  UNL     1      21.763   1.794  52.079  1.00  0.00     0.161 HD
ENDROOT
BRANCH  21  23
HETATM   23  C16 UNL     1      28.048   6.315  48.522  1.00  0.00     0.040 C 
BRANCH  23  24
HETATM   24  C17 UNL     1      29.266   5.501  48.161  1.00  0.00     0.035 C 
BRANCH  24  25
HETATM   25  C18 UNL     1      30.478   6.290  48.614  1.00  0.00     0.273 C 
BRANCH  25  26
HETATM   26  N4  UNL     1      31.664   5.514  48.691  1.00  0.00     0.092 N 
HETATM   27  C19 UNL     1      32.814   6.395  48.662  1.00  0.00     0.298 C 
HETATM   28  C20 UNL     1      34.130   5.655  48.616  1.00  0.00     0.198 C 
HETATM   29  O2  UNL     1      34.223   4.802  47.514  1.00  0.00    -0.388 OA
HETATM   30  C21 UNL     1      33.179   3.875  47.674  1.00  0.00     0.198 C 
HETATM   31  C22 UNL     1      31.833   4.564  47.629  1.00  0.00     0.298 C 
ENDBRANCH  25  26
ENDBRANCH  24  25
ENDBRANCH  23  24
ENDBRANCH  21  23
TORSDOF 4
ENDMDL
MODEL 2
REMARK VINA RESULT:      -8.5      3.056      4.778
REMARK  4 active torsions:
REMARK  status: ('A' for Active; 'I' for Inactive)
REMARK    1  A    between atoms: C15_21  and  C16_22 
REMARK    2  A    between atoms: C16_22  and  C17_23 
REMARK    3  A    between atoms: C17_23  and  C18_24 
REMARK    4  A    between atoms: C18_24  and  N4_25 
ROOT
HETATM    1  C1  UNL     1      22.249   5.094  52.139  1.00  0.00     0.000 C 
HETATM    2  O1  UNL     1      22.673   4.080  51.291  1.00  0.00     0.000 OA
HETATM    3  C2  UNL     1      23.901   3.566  51.066  1.00  0.00    -0.038 A 
HETATM    4  C3  UNL     1      23.264   2.633  51.718  1.00  0.00     0.051 A 
HETATM    5  C4  UNL     1      22.492   1.661  52.435  1.00  0.00     0.111 C 
HETATM    6  N1  UNL     1      22.933   0.532  52.801  1.00  0.00    -0.196 NA
HETATM    7  C5  UNL     1      22.277  -0.453  53.490  1.00  0.00     0.232 A 
HETATM    8  N2  UNL     1      23.501  -0.241  53.774  1.00  0.00    -0.302 N 
HETATM    9  C6  UNL     1      24.201  -0.974  54.762  1.00  0.00     0.261 C 
HETATM   10  N3  UNL     1      25.579  -1.302  54.346  1.00  0.00    -0.373 N 
HETATM   11  C7  UNL     1      26.456  -0.235  53.926  1.00  0.00     0.031 A 
HETATM   12  C8  UNL     1      27.492   0.325  54.643  1.00  0.00     0.056 A 
HETATM   13  C9  UNL     1      28.237   1.364  54.122  1.00  0.00     0.075 A 
HETATM   14 CL1  UNL     1      29.516   1.976  55.142  1.00  0.00    -0.081 Cl
HETATM   15  C10 UNL     1      27.976   1.876  52.873  1.00  0.00     0.144 A 
HETATM   16  F1  UNL     1      28.685   2.877  52.361  1.00  0.00    -0.204 F 
HETATM   17  C11 UNL     1      26.968   1.391  52.077  1.00  0.00    -0.012 A 
HETATM   18  C12 UNL     1      26.250   0.328  52.677  1.00  0.00     0.039 A 
HETATM   19  C13 UNL     1      26.507   1.776  50.782  1.00  0.00     0.069 C 
HETATM   20  C14 UNL     1      26.245   3.109  50.354  1.00  0.00    -0.014 C 
HETATM   21  C15 UNL     1      25.157   3.901  50.445  1.00  0.00    -0.054 C 
HETATM   22  H9  UNL     1      26.327  -2.011  54.191  1.00  0.00     0.161 HD
ENDROOT
BRANCH  21  23
HETATM   23  C16 UNL     1      25.050   5.267  49.948  1.00  0.00     0.040 C 
BRANCH  23  24
HETATM   24  C17 UNL     1      26.217   5.722  49.107  1.00  0.00     0.035 C 
BRANCH  24  25
HETATM   25  C18 UNL     1      25.910   7.133  48.648  1.00  0.00     0.273 C 
BRANCH  25  26
HETATM   26  N4  UNL     1      27.068   7.934  48.464  1.00  0.00     0.092 N 
HETATM   27  C19 UNL     1      28.206   7.076  48.205  1.00  0.00     0.298 C 
HETATM   28  C20 UNL     1      29.513   7.829  48.117  1.00  0.00     0.198 C 
HETATM   29  O2  UNL     1      29.787   8.556  49.277  1.00  0.00    -0.388 OA
HETATM   30  C21 UNL     1      28.732   9.476  49.396  1.00  0.00     0.198 C 
HETATM   31  C22 UNL     1      27.411   8.763  49.585  1.00  0.00     0.298 C 
ENDBRANCH  25  26
ENDBRANCH  24  25
ENDBRANCH  23  24
ENDBRANCH  21  23
TORSDOF 4
ENDMDL
MODEL 3
REMARK VINA RESULT:      -8.3      5.558     10.884
REMARK  4 active torsions:
REMARK  status: ('A' for Active; 'I' for Inactive)
REMARK    1  A    between atoms: C15_21  and  C16_22 
REMARK    2  A    between atoms: C16_22  and  C17_23 
REMARK    3  A    between atoms: C17_23  and  C18_24 
REMARK    4  A    between atoms: C18_24  and  N4_25 
ROOT
HETATM    1  C1  UNL     1      21.515  -0.531  54.912  1.00  0.00     0.000 C 
HETATM    2  O1  UNL     1      21.893  -0.829  53.610  1.00  0.00     0.000 OA
HETATM    3  C2  UNL     1      21.813  -0.103  52.474  1.00  0.00    -0.038 A 
HETATM    4  C3  UNL     1      23.086  -0.141  52.757  1.00  0.00     0.051 A 
HETATM    5  C4  UNL     1      24.465  -0.232  53.139  1.00  0.00     0.111 C 
HETATM    6  N1  UNL     1      25.416   0.313  52.505  1.00  0.00    -0.196 NA
HETATM    7  C5  UNL     1      26.754   0.286  52.794  1.00  0.00     0.232 A 
HETATM    8  N2  UNL     1      26.261   1.375  52.353  1.00  0.00    -0.302 N 
HETATM    9  C6  UNL     1      27.034   2.545  52.155  1.00  0.00     0.261 C 
HETATM   10  N3  UNL     1      26.668   3.253  50.912  1.00  0.00    -0.373 N 
HETATM   11  C7  UNL     1      25.290   3.628  50.700  1.00  0.00     0.031 A 
HETATM   12  C8  UNL     1      24.739   4.886  50.818  1.00  0.00     0.056 A 
HETATM   13  C9  UNL     1      23.391   5.094  50.607  1.00  0.00     0.075 A 
HETATM   14 CL1  UNL     1      22.831   6.738  50.793  1.00  0.00    -0.081 Cl
HETATM   15  C10 UNL     1      22.550   4.059  50.270  1.00  0.00     0.144 A 
HETATM   16  F1  UNL     1      21.251   4.247  50.065  1.00  0.00    -0.204 F 
HETATM   17  C11 UNL     1      22.997   2.769  50.126  1.00  0.00    -0.012 A 
HETATM   18  C12 UNL     1      24.387   2.635  50.357  1.00  0.00     0.039 A 
HETATM   19  C13 UNL     1      22.316   1.555  49.814  1.00  0.00     0.069 C 
HETATM   20  C14 UNL     1      21.105   1.101  50.411  1.00  0.00    -0.014 C 
HETATM   21  C15 UNL     1      20.845   0.392  51.528  1.00  0.00    -0.054 C 
HETATM   22  H9  UNL     1      26.948   3.674  50.001  1.00  0.00     0.161 HD
ENDROOT
BRANCH  21  23
HETATM   23  C16 UNL     1      19.525   0.006  52.009  1.00  0.00     0.040 C 
BRANCH  23  24
HETATM   24  C17 UNL     1      18.387   0.399  51.101  1.00  0.00     0.035 C 
BRANCH  24  25
HETATM   25  C18 UNL     1      17.221  -0.512  51.429  1.00  0.00     0.273 C 
BRANCH  25  26
HETATM   26  N4  UNL     1      15.996   0.180  51.616  1.00  0.00     0.092 N 
HETATM   27  C19 UNL     1      16.236   1.607  51.542  1.00  0.00     0.298 C 
HETATM   28  C20 UNL     1      15.011   2.435  51.851  1.00  0.00     0.198 C 
HETATM   29  O2  UNL     1      14.489   2.160  53.116  1.00  0.00    -0.388 OA
HETATM   30  C21 UNL     1      14.130   0.802  53.082  1.00  0.00     0.198 C 
HETATM   31  C22 UNL     1      15.346  -0.074  52.871  1.00  0.00     0.298 C 
ENDBRANCH  25  26
ENDBRANCH  24  25
ENDBRANCH  23  24
ENDBRANCH  21  23
TORSDOF 4
ENDMDL
MODEL 4
REMARK VINA RESULT:      -8.2      1.735      2.290
REMARK  4 active torsions:
REMARK  status: ('A' for Active; 'I' for Inactive)
REMARK    1  A    between atoms: C15_21  and  C16_22 
REMARK    2  A    between atoms: C16_22  and  C17_23 
REMARK    3  A    between atoms: C17_23  and  C18_24 
REMARK    4  A    between atoms: C18_24  and  N4_25 
ROOT
HETATM    1  C1  UNL     1      25.701   8.771  49.884  1.00  0.00     0.000 C 
HETATM    2  O1  UNL     1      25.356   7.706  49.063  1.00  0.00     0.000 OA
HETATM    3  C2  UNL     1      25.688   6.399  49.118  1.00  0.00    -0.038 A 
HETATM    4  C3  UNL     1      24.426   6.437  49.447  1.00  0.00     0.051 A 
HETATM    5  C4  UNL     1      23.042   6.567  49.798  1.00  0.00     0.111 C 
HETATM    6  N1  UNL     1      22.297   5.597  50.124  1.00  0.00    -0.196 NA
HETATM    7  C5  UNL     1      20.974   5.624  50.476  1.00  0.00     0.232 A 
HETATM    8  N2  UNL     1      21.743   4.828  51.108  1.00  0.00    -0.302 N 
HETATM    9  C6  UNL     1      21.289   3.982  52.148  1.00  0.00     0.261 C 
HETATM   10  N3  UNL     1      21.901   2.640  52.086  1.00  0.00    -0.373 N 
HETATM   11  C7  UNL     1      23.340   2.528  52.061  1.00  0.00     0.031 A 
HETATM   12  C8  UNL     1      24.167   2.152  53.099  1.00  0.00     0.056 A 
HETATM   13  C9  UNL     1      25.536   2.111  52.937  1.00  0.00     0.075 A 
HETATM   14 CL1  UNL     1      26.459   1.619  54.337  1.00  0.00    -0.081 Cl
HETATM   15  C10 UNL     1      26.127   2.441  51.740  1.00  0.00     0.144 A 
HETATM   16  F1  UNL     1      27.445   2.407  51.573  1.00  0.00    -0.204 F 
HETATM   17  C11 UNL     1      25.396   2.828  50.644  1.00  0.00    -0.012 A 
HETATM   18  C12 UNL     1      24.001   2.845  50.886  1.00  0.00     0.039 A 
HETATM   19  C13 UNL     1      25.787   3.233  49.332  1.00  0.00     0.069 C 
HETATM   20  C14 UNL     1      26.809   4.175  49.021  1.00  0.00    -0.014 C 
HETATM   21  C15 UNL     1      26.811   5.519  48.912  1.00  0.00    -0.054 C 
HETATM   22  H9  UNL     1      21.795   1.604  52.053  1.00  0.00     0.161 HD
ENDROOT
BRANCH  21  23
HETATM   23  C16 UNL     1      27.963   6.349  48.583  1.00  0.00     0.040 C 
BRANCH  23  24
HETATM   24  C17 UNL     1      29.204   5.578  48.208  1.00  0.00     0.035 C 
BRANCH  24  25
HETATM   25  C18 UNL     1      30.392   6.441  48.583  1.00  0.00     0.273 C 
BRANCH  25  26
HETATM   26  N4  UNL     1      30.190   7.824  48.336  1.00  0.00     0.092 N 
HETATM   27  C19 UNL     1      30.804   8.179  47.072  1.00  0.00     0.298 C 
HETATM   28  C20 UNL     1      30.749   9.660  46.779  1.00  0.00     0.198 C 
HETATM   29  O2  UNL     1      31.361  10.423  47.775  1.00  0.00    -0.388 OA
HETATM   30  C21 UNL     1      30.631  10.159  48.945  1.00  0.00     0.198 C 
HETATM   31  C22 UNL     1      30.738   8.700  49.332  1.00  0.00     0.298 C 
ENDBRANCH  25  26
ENDBRANCH  24  25
ENDBRANCH  23  24
ENDBRANCH  21  23
TORSDOF 4
ENDMDL
MODEL 5
REMARK VINA RESULT:      -8.2      4.814      6.000
REMARK  4 active torsions:
REMARK  status: ('A' for Active; 'I' for Inactive)
REMARK    1  A    between atoms: C15_21  and  C16_22 
REMARK    2  A    between atoms: C16_22  and  C17_23 
REMARK    3  A    between atoms: C17_23  and  C18_24 
REMARK    4  A    between atoms: C18_24  and  N4_25 
ROOT
HETATM    1  C1  UNL     1      22.877   6.438  51.475  1.00  0.00     0.000 C 
HETATM    2  O1  UNL     1      22.604   5.586  50.414  1.00  0.00     0.000 OA
HETATM    3  C2  UNL     1      22.665   4.240  50.317  1.00  0.00    -0.038 A 
HETATM    4  C3  UNL     1      21.391   4.518  50.306  1.00  0.00     0.051 A 
HETATM    5  C4  UNL     1      20.011   4.909  50.299  1.00  0.00     0.111 C 
HETATM    6  N1  UNL     1      19.042   4.096  50.238  1.00  0.00    -0.196 NA
HETATM    7  C5  UNL     1      17.701   4.374  50.231  1.00  0.00     0.232 A 
HETATM    8  N2  UNL     1      18.095   3.355  50.888  1.00  0.00    -0.302 N 
HETATM    9  C6  UNL     1      17.213   2.511  51.602  1.00  0.00     0.261 C 
HETATM   10  N3  UNL     1      17.565   1.084  51.462  1.00  0.00    -0.373 N 
HETATM   11  C7  UNL     1      18.905   0.658  51.794  1.00  0.00     0.031 A 
HETATM   12  C8  UNL     1      19.309  -0.017  52.927  1.00  0.00     0.056 A 
HETATM   13  C9  UNL     1      20.635  -0.341  53.125  1.00  0.00     0.075 A 
HETATM   14 CL1  UNL     1      21.003  -1.193  54.605  1.00  0.00    -0.081 Cl
HETATM   15  C10 UNL     1      21.600  -0.006  52.204  1.00  0.00     0.144 A 
HETATM   16  F1  UNL     1      22.881  -0.312  52.384  1.00  0.00    -0.204 F 
HETATM   17  C11 UNL     1      21.304   0.665  51.043  1.00  0.00    -0.012 A 
HETATM   18  C12 UNL     1      19.927   0.962  50.910  1.00  0.00     0.039 A 
HETATM   19  C13 UNL     1      22.129   1.130  49.975  1.00  0.00     0.069 C 
HETATM   20  C14 UNL     1      23.348   1.852  50.118  1.00  0.00    -0.014 C 
HETATM   21  C15 UNL     1      23.623   3.165  50.257  1.00  0.00    -0.054 C 
HETATM   22  H9  UNL     1      17.291   0.109  51.215  1.00  0.00     0.161 HD
ENDROOT
BRANCH  21  23
HETATM   23  C16 UNL     1      24.949   3.752  50.396  1.00  0.00     0.040 C 
BRANCH  23  24
HETATM   24  C17 UNL     1      26.083   2.758  50.349  1.00  0.00     0.035 C 
BRANCH  24  25
HETATM   25  C18 UNL     1      26.646   2.659  51.752  1.00  0.00     0.273 C 
BRANCH  25  26
HETATM   26  N4  UNL     1      26.187   1.523  52.470  1.00  0.00     0.092 N 
HETATM   27  C19 UNL     1      26.694   1.578  53.826  1.00  0.00     0.298 C 
HETATM   28  C20 UNL     1      26.361   0.348  54.637  1.00  0.00     0.198 C 
HETATM   29  O2  UNL     1      26.847  -0.822  54.051  1.00  0.00    -0.388 OA
HETATM   30  C21 UNL     1      26.207  -0.907  52.804  1.00  0.00     0.198 C 
HETATM   31  C22 UNL     1      26.589   0.260  51.920  1.00  0.00     0.298 C 
ENDBRANCH  25  26
ENDBRANCH  24  25
ENDBRANCH  23  24
ENDBRANCH  21  23
TORSDOF 4
ENDMDL
MODEL 6
REMARK VINA RESULT:      -8.0      4.238      8.149
REMARK  4 active torsions:
REMARK  status: ('A' for Active; 'I' for Inactive)
REMARK    1  A    between atoms: C15_21  and  C16_22 
REMARK    2  A    between atoms: C16_22  and  C17_23 
REMARK    3  A    between atoms: C17_23  and  C18_24 
REMARK    4  A    between atoms: C18_24  and  N4_25 
ROOT
HETATM    1  C1  UNL     1      21.495   4.668  45.331  1.00  0.00     0.000 C 
HETATM    2  O1  UNL     1      21.511   4.848  46.708  1.00  0.00     0.000 OA
HETATM    3  C2  UNL     1      22.456   4.565  47.630  1.00  0.00    -0.038 A 
HETATM    4  C3  UNL     1      22.447   5.868  47.549  1.00  0.00     0.051 A 
HETATM    5  C4  UNL     1      22.373   7.292  47.400  1.00  0.00     0.111 C 
HETATM    6  N1  UNL     1      23.106   8.111  48.027  1.00  0.00    -0.196 NA
HETATM    7  C5  UNL     1      23.110   9.479  47.948  1.00  0.00     0.232 A 
HETATM    8  N2  UNL     1      24.232   8.884  48.060  1.00  0.00    -0.302 N 
HETATM    9  C6  UNL     1      25.468   9.573  48.103  1.00  0.00     0.261 C 
HETATM   10  N3  UNL     1      26.399   8.993  49.090  1.00  0.00    -0.373 N 
HETATM   11  C7  UNL     1      26.713   7.585  49.013  1.00  0.00     0.031 A 
HETATM   12  C8  UNL     1      27.876   7.014  48.540  1.00  0.00     0.056 A 
HETATM   13  C9  UNL     1      28.030   5.644  48.502  1.00  0.00     0.075 A 
HETATM   14 CL1  UNL     1      29.553   5.061  47.876  1.00  0.00    -0.081 Cl
HETATM   15  C10 UNL     1      27.035   4.799  48.935  1.00  0.00     0.144 A 
HETATM   16  F1  UNL     1      27.172   3.477  48.903  1.00  0.00    -0.204 F 
HETATM   17  C11 UNL     1      25.840   5.263  49.425  1.00  0.00    -0.012 A 
HETATM   18  C12 UNL     1      25.756   6.677  49.433  1.00  0.00     0.039 A 
HETATM   19  C13 UNL     1      24.676   4.586  49.899  1.00  0.00     0.069 C 
HETATM   20  C14 UNL     1      24.022   3.501  49.249  1.00  0.00    -0.014 C 
HETATM   21  C15 UNL     1      23.074   3.445  48.292  1.00  0.00    -0.054 C 
HETATM   22  H9  UNL     1      27.024   9.112  49.916  1.00  0.00     0.161 HD
ENDROOT
BRANCH  21  23
HETATM   23  C16 UNL     1      22.502   2.231  47.723  1.00  0.00     0.040 C 
BRANCH  23  24
HETATM   24  C17 UNL     1      21.814   1.335  48.723  1.00  0.00     0.035 C 
BRANCH  24  25
HETATM   25  C18 UNL     1      20.357   1.750  48.762  1.00  0.00     0.273 C 
BRANCH  25  26
HETATM   26  N4  UNL     1      19.855   1.936  50.077  1.00  0.00     0.092 N 
HETATM   27  C19 UNL     1      19.435   3.314  50.237  1.00  0.00     0.298 C 
HETATM   28  C20 UNL     1      18.999   3.644  51.645  1.00  0.00     0.198 C 
HETATM   29  O2  UNL     1      20.002   3.397  52.584  1.00  0.00    -0.388 OA
HETATM   30  C21 UNL     1      20.262   2.019  52.495  1.00  0.00     0.198 C 
HETATM   31  C22 UNL     1      20.795   1.657  51.126  1.00  0.00     0.298 C 
ENDBRANCH  25  26
ENDBRANCH  24  25
ENDBRANCH  23  24
ENDBRANCH  21  23
TORSDOF 4
ENDMDL
MODEL 7
REMARK VINA RESULT:      -7.9      5.453      7.580
REMARK  4 active torsions:
REMARK  status: ('A' for Active; 'I' for Inactive)
REMARK    1  A    between atoms: C15_21  and  C16_22 
REMARK    2  A    between atoms: C16_22  and  C17_23 
REMARK    3  A    between atoms: C17_23  and  C18_24 
REMARK    4  A    between atoms: C18_24  and  N4_25 
ROOT
HETATM    1  C1  UNL     1      17.261   4.176  50.846  1.00  0.00     0.000 C 
HETATM    2  O1  UNL     1      17.692   3.074  50.121  1.00  0.00     0.000 OA
HETATM    3  C2  UNL     1      18.934   2.655  49.796  1.00  0.00    -0.038 A 
HETATM    4  C3  UNL     1      18.513   1.795  50.682  1.00  0.00     0.051 A 
HETATM    5  C4  UNL     1      17.974   0.895  51.659  1.00  0.00     0.111 C 
HETATM    6  N1  UNL     1      18.599  -0.099  52.132  1.00  0.00    -0.196 NA
HETATM    7  C5  UNL     1      18.172  -1.005  53.065  1.00  0.00     0.232 A 
HETATM    8  N2  UNL     1      19.386  -0.623  53.119  1.00  0.00    -0.302 N 
HETATM    9  C6  UNL     1      20.299  -1.091  54.094  1.00  0.00     0.261 C 
HETATM   10  N3  UNL     1      21.639  -1.347  53.531  1.00  0.00    -0.373 N 
HETATM   11  C7  UNL     1      22.310  -0.289  52.812  1.00  0.00     0.031 A 
HETATM   12  C8  UNL     1      23.353   0.494  53.259  1.00  0.00     0.056 A 
HETATM   13  C9  UNL     1      23.884   1.491  52.468  1.00  0.00     0.075 A 
HETATM   14 CL1  UNL     1      25.200   2.404  53.164  1.00  0.00    -0.081 Cl
HETATM   15  C10 UNL     1      23.395   1.741  51.206  1.00  0.00     0.144 A 
HETATM   16  F1  UNL     1      23.897   2.699  50.435  1.00  0.00    -0.204 F 
HETATM   17  C11 UNL     1      22.360   1.020  50.665  1.00  0.00    -0.012 A 
HETATM   18  C12 UNL     1      21.869   0.016  51.535  1.00  0.00     0.039 A 
HETATM   19  C13 UNL     1      21.684   1.117  49.412  1.00  0.00     0.069 C 
HETATM   20  C14 UNL     1      21.200   2.317  48.816  1.00  0.00    -0.014 C 
HETATM   21  C15 UNL     1      20.044   2.998  48.943  1.00  0.00    -0.054 C 
HETATM   22  H9  UNL     1      22.444  -1.992  53.380  1.00  0.00     0.161 HD
ENDROOT
BRANCH  21  23
HETATM   23  C16 UNL     1      19.699   4.235  48.252  1.00  0.00     0.040 C 
BRANCH  23  24
HETATM   24  C17 UNL     1      20.649   5.379  48.503  1.00  0.00     0.035 C 
BRANCH  24  25
HETATM   25  C18 UNL     1      20.208   6.048  49.789  1.00  0.00     0.273 C 
BRANCH  25  26
HETATM   26  N4  UNL     1      21.252   6.197  50.739  1.00  0.00     0.092 N 
HETATM   27  C19 UNL     1      22.468   6.588  50.055  1.00  0.00     0.298 C 
HETATM   28  C20 UNL     1      23.671   6.652  50.967  1.00  0.00     0.198 C 
HETATM   29  O2  UNL     1      23.918   5.436  51.606  1.00  0.00    -0.388 OA
HETATM   30  C21 UNL     1      22.771   5.181  52.376  1.00  0.00     0.198 C 
HETATM   31  C22 UNL     1      21.554   5.013  51.493  1.00  0.00     0.298 C 
ENDBRANCH  25  26
ENDBRANCH  24  25
ENDBRANCH  23  24
ENDBRANCH  21  23
TORSDOF 4
ENDMDL
MODEL 8
REMARK VINA RESULT:      -7.8      5.494      6.938
REMARK  4 active torsions:
REMARK  status: ('A' for Active; 'I' for Inactive)
REMARK    1  A    between atoms: C15_21  and  C16_22 
REMARK    2  A    between atoms: C16_22  and  C17_23 
REMARK    3  A    between atoms: C17_23  and  C18_24 
REMARK    4  A    between atoms: C18_24  and  N4_25 
ROOT
HETATM    1  C1  UNL     1      23.369   4.643  52.902  1.00  0.00     0.000 C 
HETATM    2  O1  UNL     1      23.364   3.982  51.682  1.00  0.00     0.000 OA
HETATM    3  C2  UNL     1      22.680   2.896  51.263  1.00  0.00    -0.038 A 
HETATM    4  C3  UNL     1      22.143   3.897  50.622  1.00  0.00     0.051 A 
HETATM    5  C4  UNL     1      21.611   5.051  49.957  1.00  0.00     0.111 C 
HETATM    6  N1  UNL     1      20.643   5.019  49.142  1.00  0.00    -0.196 NA
HETATM    7  C5  UNL     1      20.067   6.062  48.466  1.00  0.00     0.232 A 
HETATM    8  N2  UNL     1      19.302   5.146  48.913  1.00  0.00    -0.302 N 
HETATM    9  C6  UNL     1      17.897   5.165  48.743  1.00  0.00     0.261 C 
HETATM   10  N3  UNL     1      17.353   3.829  48.429  1.00  0.00    -0.373 N 
HETATM   11  C7  UNL     1      17.646   2.728  49.316  1.00  0.00     0.031 A 
HETATM   12  C8  UNL     1      16.799   2.148  50.237  1.00  0.00     0.056 A 
HETATM   13  C9  UNL     1      17.225   1.111  51.040  1.00  0.00     0.075 A 
HETATM   14 CL1  UNL     1      16.046   0.476  52.162  1.00  0.00    -0.081 Cl
HETATM   15  C10 UNL     1      18.505   0.615  50.952  1.00  0.00     0.144 A 
HETATM   16  F1  UNL     1      18.927  -0.383  51.721  1.00  0.00    -0.204 F 
HETATM   17  C11 UNL     1      19.427   1.119  50.069  1.00  0.00    -0.012 A 
HETATM   18  C12 UNL     1      18.917   2.179  49.280  1.00  0.00     0.039 A 
HETATM   19  C13 UNL     1      20.793   0.787  49.824  1.00  0.00     0.069 C 
HETATM   20  C14 UNL     1      21.798   0.608  50.818  1.00  0.00    -0.014 C 
HETATM   21  C15 UNL     1      22.624   1.468  51.448  1.00  0.00    -0.054 C 
HETATM   22  H9  UNL     1      16.786   3.211  47.810  1.00  0.00     0.161 HD
ENDROOT
BRANCH  21  23
HETATM   23  C16 UNL     1      23.612   1.119  52.461  1.00  0.00     0.040 C 
BRANCH  23  24
HETATM   24  C17 UNL     1      25.015   0.950  51.935  1.00  0.00     0.035 C 
BRANCH  24  25
HETATM   25  C18 UNL     1      25.810   0.236  53.011  1.00  0.00     0.273 C 
BRANCH  25  26
HETATM   26  N4  UNL     1      27.150   0.690  53.122  1.00  0.00     0.092 N 
HETATM   27  C19 UNL     1      27.820  -0.051  54.171  1.00  0.00     0.298 C 
HETATM   28  C20 UNL     1      29.220   0.445  54.450  1.00  0.00     0.198 C 
HETATM   29  O2  UNL     1      29.245   1.795  54.805  1.00  0.00    -0.388 OA
HETATM   30  C21 UNL     1      28.728   2.480  53.692  1.00  0.00     0.198 C 
HETATM   31  C22 UNL     1      27.291   2.084  53.434  1.00  0.00     0.298 C 
ENDBRANCH  25  26
ENDBRANCH  24  25
ENDBRANCH  23  24
ENDBRANCH  21  23
TORSDOF 4
ENDMDL
MODEL 9
REMARK VINA RESULT:      -7.8      4.929      6.267
REMARK  4 active torsions:
REMARK  status: ('A' for Active; 'I' for Inactive)
REMARK    1  A    between atoms: C15_21  and  C16_22 
REMARK    2  A    between atoms: C16_22  and  C17_23 
REMARK    3  A    between atoms: C17_23  and  C18_24 
REMARK    4  A    between atoms: C18_24  and  N4_25 
ROOT
HETATM    1  C1  UNL     1      23.602   6.400  51.207  1.00  0.00     0.000 C 
HETATM    2  O1  UNL     1      23.380   5.747  50.003  1.00  0.00     0.000 OA
HETATM    3  C2  UNL     1      23.092   4.456  49.732  1.00  0.00    -0.038 A 
HETATM    4  C3  UNL     1      21.987   5.104  49.482  1.00  0.00     0.051 A 
HETATM    5  C4  UNL     1      20.816   5.891  49.229  1.00  0.00     0.111 C 
HETATM    6  N1  UNL     1      19.708   5.414  48.843  1.00  0.00    -0.196 NA
HETATM    7  C5  UNL     1      18.542   6.082  48.583  1.00  0.00     0.232 A 
HETATM    8  N2  UNL     1      18.463   4.948  49.159  1.00  0.00    -0.302 N 
HETATM    9  C6  UNL     1      17.233   4.359  49.536  1.00  0.00     0.261 C 
HETATM   10  N3  UNL     1      17.203   2.907  49.276  1.00  0.00    -0.373 N 
HETATM   11  C7  UNL     1      18.246   2.075  49.829  1.00  0.00     0.031 A 
HETATM   12  C8  UNL     1      18.152   1.231  50.916  1.00  0.00     0.056 A 
HETATM   13  C9  UNL     1      19.245   0.509  51.351  1.00  0.00     0.075 A 
HETATM   14 CL1  UNL     1      18.981  -0.517  52.740  1.00  0.00    -0.081 Cl
HETATM   15  C10 UNL     1      20.463   0.603  50.720  1.00  0.00     0.144 A 
HETATM   16  F1  UNL     1      21.523  -0.086  51.131  1.00  0.00    -0.204 F 
HETATM   17  C11 UNL     1      20.664   1.413  49.630  1.00  0.00    -0.012 A 
HETATM   18  C12 UNL     1      19.500   2.119  49.242  1.00  0.00     0.039 A 
HETATM   19  C13 UNL     1      21.825   1.684  48.845  1.00  0.00     0.069 C 
HETATM   20  C14 UNL     1      23.119   1.994  49.351  1.00  0.00    -0.014 C 
HETATM   21  C15 UNL     1      23.700   3.150  49.732  1.00  0.00    -0.054 C 
HETATM   22  H9  UNL     1      16.742   2.080  48.840  1.00  0.00     0.161 HD
ENDROOT
BRANCH  21  23
HETATM   23  C16 UNL     1      25.058   3.299  50.239  1.00  0.00     0.040 C 
BRANCH  23  24
HETATM   24  C17 UNL     1      25.315   2.608  51.555  1.00  0.00     0.035 C 
BRANCH  24  25
HETATM   25  C18 UNL     1      26.793   2.276  51.601  1.00  0.00     0.273 C 
BRANCH  25  26
HETATM   26  N4  UNL     1      27.117   1.259  52.538  1.00  0.00     0.092 N 
HETATM   27  C19 UNL     1      26.680  -0.022  52.022  1.00  0.00     0.298 C 
HETATM   28  C20 UNL     1      26.870  -1.156  53.003  1.00  0.00     0.198 C 
HETATM   29  O2  UNL     1      26.199  -0.934  54.207  1.00  0.00    -0.388 OA
HETATM   30  C21 UNL     1      26.768   0.235  54.739  1.00  0.00     0.198 C 
HETATM   31  C22 UNL     1      26.517   1.419  53.833  1.00  0.00     0.298 C 
ENDBRANCH  25  26
ENDBRANCH  24  25
ENDBRANCH  23  24
ENDBRANCH  21  23
TORSDOF 4
ENDMDL
