MODEL 1
REMARK VINA RESULT:      -9.8      0.000      0.000
REMARK  6 active torsions:
REMARK  status: ('A' for Active; 'I' for Inactive)
REMARK    1  A    between atoms: C4_6  and  N3_7 
REMARK    2  A    between atoms: N3_7  and  C5_8 
REMARK    3  A    between atoms: C12_15  and  C13_16 
REMARK    4  A    between atoms: C13_16  and  C14_17 
REMARK    5  A    between atoms: C19_23  and  N4_24 
REMARK    6  A    between atoms: N4_24  and  C20_25 
ROOT
HETATM    1  C13 UNL     1      22.270   0.709  52.668  1.00  0.00     0.051 C 
ENDROOT
BRANCH   1   2
HETATM    2  C12 UNL     1      22.849   0.033  53.576  1.00  0.00     0.037 A 
HETATM    3  C2  UNL     1      22.238  -0.697  54.605  1.00  0.00     0.050 A 
HETATM    4  C1  UNL     1      20.954  -0.690  54.710  1.00  0.00     0.066 C 
HETATM    5  N1  UNL     1      22.947  -1.400  55.491  1.00  0.00    -0.245 NA
HETATM    6  C3  UNL     1      24.270  -1.421  55.411  1.00  0.00     0.235 A 
HETATM    7  N2  UNL     1      24.873  -0.737  54.443  1.00  0.00    -0.224 NA
HETATM    8  C4  UNL     1      24.221  -0.015  53.525  1.00  0.00     0.141 A 
BRANCH   8   9
HETATM    9  N3  UNL     1      25.148   0.563  52.631  1.00  0.00    -0.340 N 
HETATM   10  H4  UNL     1      25.464   0.983  51.767  1.00  0.00     0.167 HD
BRANCH   9  11
HETATM   11  C5  UNL     1      26.519   0.696  53.039  1.00  0.00     0.034 A 
HETATM   12  C6  UNL     1      26.997   1.975  53.358  1.00  0.00     0.029 A 
HETATM   13  C7  UNL     1      28.316   2.257  53.738  1.00  0.00     0.003 A 
HETATM   14  C8  UNL     1      29.170   1.179  53.790  1.00  0.00     0.007 A 
HETATM   15  C9  UNL     1      28.807  -0.113  53.498  1.00  0.00    -0.060 A 
HETATM   16  C10 UNL     1      29.708  -1.287  53.544  1.00  0.00     0.048 C 
HETATM   17  C11 UNL     1      27.493  -0.306  53.133  1.00  0.00     0.036 A 
ENDBRANCH   9  11
ENDBRANCH   8   9
ENDBRANCH   1   2
BRANCH   1  18
HETATM   18  C14 UNL     1      21.388   1.645  52.083  1.00  0.00     0.089 C 
HETATM   19  C15 UNL     1      20.278   2.180  52.645  1.00  0.00     0.168 C 
HETATM   20  O1  UNL     1      20.354   3.608  52.540  1.00  0.00    -0.346 OA
HETATM   21  C16 UNL     1      20.574   4.231  51.320  1.00  0.00     0.222 C 
HETATM   22  C17 UNL     1      21.887   4.940  51.138  1.00  0.00     0.044 C 
HETATM   23  C23 UNL     1      20.561   3.138  50.283  1.00  0.00     0.277 C 
HETATM   24  C18 UNL     1      23.014   4.404  51.918  1.00  0.00     0.041 C 
HETATM   25  C19 UNL     1      23.980   3.488  51.299  1.00  0.00     0.246 C 
HETATM   26  C22 UNL     1      23.654   2.726  50.086  1.00  0.00     0.237 C 
HETATM   27  O2  UNL     1      22.742   1.661  50.262  1.00  0.00    -0.268 OA
HETATM   28  N5  UNL     1      21.556   2.195  50.738  1.00  0.00    -0.185 N 
HETATM   29  O3  UNL     1      19.774   3.220  49.306  1.00  0.00    -0.268 OA
BRANCH  25  30
HETATM   30  N4  UNL     1      25.309   4.099  51.127  1.00  0.00     0.089 N 
HETATM   31  H20 UNL     1      25.170   5.106  50.905  1.00  0.00     0.316 HD
BRANCH  30  32
HETATM   32  C20 UNL     1      26.135   3.481  50.159  1.00  0.00     0.265 C 
HETATM   33  C21 UNL     1      26.811   4.372  49.173  1.00  0.00     0.037 C 
ENDBRANCH  30  32
ENDBRANCH  25  30
ENDBRANCH   1  18
TORSDOF 6
ENDMDL
MODEL 2
REMARK VINA RESULT:      -9.7      1.283      1.769
REMARK  6 active torsions:
REMARK  status: ('A' for Active; 'I' for Inactive)
REMARK    1  A    between atoms: C4_6  and  N3_7 
REMARK    2  A    between atoms: N3_7  and  C5_8 
REMARK    3  A    between atoms: C12_15  and  C13_16 
REMARK    4  A    between atoms: C13_16  and  C14_17 
REMARK    5  A    between atoms: C19_23  and  N4_24 
REMARK    6  A    between atoms: N4_24  and  C20_25 
ROOT
HETATM    1  C13 UNL     1      22.528   0.930  52.438  1.00  0.00     0.051 C 
ENDROOT
BRANCH   1   2
HETATM    2  C12 UNL     1      22.950   0.212  53.398  1.00  0.00     0.037 A 
HETATM    3  C2  UNL     1      22.199  -0.299  54.465  1.00  0.00     0.050 A 
HETATM    4  C1  UNL     1      20.945  -0.015  54.549  1.00  0.00     0.066 C 
HETATM    5  N1  UNL     1      22.743  -1.072  55.407  1.00  0.00    -0.245 NA
HETATM    6  C3  UNL     1      24.032  -1.376  55.349  1.00  0.00     0.235 A 
HETATM    7  N2  UNL     1      24.766  -0.903  54.347  1.00  0.00    -0.224 NA
HETATM    8  C4  UNL     1      24.282  -0.126  53.372  1.00  0.00     0.141 A 
BRANCH   8   9
HETATM    9  N3  UNL     1      25.311   0.180  52.455  1.00  0.00    -0.340 N 
HETATM   10  H4  UNL     1      25.731   0.318  51.545  1.00  0.00     0.167 HD
BRANCH   9  11
HETATM   11  C5  UNL     1      26.618   0.501  52.957  1.00  0.00     0.034 A 
HETATM   12  C6  UNL     1      26.893   1.835  53.293  1.00  0.00     0.029 A 
HETATM   13  C7  UNL     1      28.132   2.295  53.760  1.00  0.00     0.003 A 
HETATM   14  C8  UNL     1      29.119   1.344  53.886  1.00  0.00     0.007 A 
HETATM   15  C9  UNL     1      28.956   0.014  53.587  1.00  0.00    -0.060 A 
HETATM   16  C10 UNL     1      30.003  -1.025  53.712  1.00  0.00     0.048 C 
HETATM   17  C11 UNL     1      27.711  -0.358  53.133  1.00  0.00     0.036 A 
ENDBRANCH   9  11
ENDBRANCH   8   9
ENDBRANCH   1   2
BRANCH   1  18
HETATM   18  C14 UNL     1      22.082   1.263  51.139  1.00  0.00     0.089 C 
HETATM   19  C15 UNL     1      20.860   1.018  50.610  1.00  0.00     0.168 C 
HETATM   20  O1  UNL     1      20.336   2.243  50.079  1.00  0.00    -0.346 OA
HETATM   21  C16 UNL     1      21.062   3.005  49.175  1.00  0.00     0.222 C 
HETATM   22  C17 UNL     1      21.554   4.345  49.648  1.00  0.00     0.044 C 
HETATM   23  C23 UNL     1      22.303   2.211  48.858  1.00  0.00     0.277 C 
HETATM   24  C18 UNL     1      21.806   4.457  51.094  1.00  0.00     0.041 C 
HETATM   25  C19 UNL     1      23.166   4.315  51.627  1.00  0.00     0.246 C 
HETATM   26  C22 UNL     1      24.225   3.635  50.870  1.00  0.00     0.237 C 
HETATM   27  O2  UNL     1      24.104   2.231  50.780  1.00  0.00    -0.268 OA
HETATM   28  N5  UNL     1      22.905   1.950  50.144  1.00  0.00    -0.185 N 
HETATM   29  O3  UNL     1      22.574   1.939  47.660  1.00  0.00    -0.268 OA
BRANCH  25  30
HETATM   30  N4  UNL     1      23.703   5.582  52.152  1.00  0.00     0.089 N 
HETATM   31  H20 UNL     1      22.926   6.086  52.627  1.00  0.00     0.316 HD
BRANCH  30  32
HETATM   32  C20 UNL     1      24.329   6.413  51.194  1.00  0.00     0.265 C 
HETATM   33  C21 UNL     1      23.655   7.702  50.868  1.00  0.00     0.037 C 
ENDBRANCH  30  32
ENDBRANCH  25  30
ENDBRANCH   1  18
TORSDOF 6
ENDMDL
MODEL 3
REMARK VINA RESULT:      -8.8      2.275      5.781
REMARK  6 active torsions:
REMARK  status: ('A' for Active; 'I' for Inactive)
REMARK    1  A    between atoms: C4_6  and  N3_7 
REMARK    2  A    between atoms: N3_7  and  C5_8 
REMARK    3  A    between atoms: C12_15  and  C13_16 
REMARK    4  A    between atoms: C13_16  and  C14_17 
REMARK    5  A    between atoms: C19_23  and  N4_24 
REMARK    6  A    between atoms: N4_24  and  C20_25 
ROOT
HETATM    1  C13 UNL     1      23.066   0.345  52.627  1.00  0.00     0.051 C 
ENDROOT
BRANCH   1   2
HETATM    2  C12 UNL     1      21.812   0.240  52.447  1.00  0.00     0.037 A 
HETATM    3  C2  UNL     1      20.850  -0.124  53.399  1.00  0.00     0.050 A 
HETATM    4  C1  UNL     1      21.224  -0.428  54.593  1.00  0.00     0.066 C 
HETATM    5  N1  UNL     1      19.548  -0.172  53.106  1.00  0.00    -0.245 NA
HETATM    6  C3  UNL     1      19.134   0.131  51.883  1.00  0.00     0.235 A 
HETATM    7  N2  UNL     1      20.028   0.480  50.963  1.00  0.00    -0.224 NA
HETATM    8  C4  UNL     1      21.344   0.548  51.192  1.00  0.00     0.141 A 
BRANCH   8   9
HETATM    9  N3  UNL     1      22.008   0.971  50.020  1.00  0.00    -0.340 N 
HETATM   10  H4  UNL     1      22.502   0.863  49.144  1.00  0.00     0.167 HD
BRANCH   9  11
HETATM   11  C5  UNL     1      22.180   2.379  49.787  1.00  0.00     0.034 A 
HETATM   12  C6  UNL     1      22.723   2.789  48.561  1.00  0.00     0.029 A 
HETATM   13  C7  UNL     1      22.977   4.122  48.213  1.00  0.00     0.003 A 
HETATM   14  C8  UNL     1      22.658   5.064  49.166  1.00  0.00     0.007 A 
HETATM   15  C9  UNL     1      22.124   4.771  50.397  1.00  0.00    -0.060 A 
HETATM   16  C10 UNL     1      21.777   5.766  51.437  1.00  0.00     0.048 C 
HETATM   17  C11 UNL     1      21.904   3.438  50.662  1.00  0.00     0.036 A 
ENDBRANCH   9  11
ENDBRANCH   8   9
ENDBRANCH   1   2
BRANCH   1  18
HETATM   18  C14 UNL     1      24.344   0.092  53.175  1.00  0.00     0.089 C 
HETATM   19  C15 UNL     1      25.010  -1.086  53.177  1.00  0.00     0.168 C 
HETATM   20  O1  UNL     1      26.324  -0.871  52.642  1.00  0.00    -0.346 OA
HETATM   21  C16 UNL     1      27.160   0.108  53.157  1.00  0.00     0.222 C 
HETATM   22  C17 UNL     1      27.469   1.282  52.270  1.00  0.00     0.044 C 
HETATM   23  C23 UNL     1      26.446   0.685  54.351  1.00  0.00     0.277 C 
HETATM   24  C18 UNL     1      26.431   1.626  51.285  1.00  0.00     0.041 C 
HETATM   25  C19 UNL     1      25.474   2.706  51.556  1.00  0.00     0.246 C 
HETATM   26  C22 UNL     1      25.203   3.173  52.922  1.00  0.00     0.237 C 
HETATM   27  O2  UNL     1      24.452   2.290  53.730  1.00  0.00    -0.268 OA
HETATM   28  N5  UNL     1      25.164   1.106  53.838  1.00  0.00    -0.185 N 
HETATM   29  O3  UNL     1      27.021   0.700  55.469  1.00  0.00    -0.268 OA
BRANCH  25  30
HETATM   30  N4  UNL     1      25.685   3.880  50.692  1.00  0.00     0.089 N 
HETATM   31  H20 UNL     1      24.750   4.237  50.405  1.00  0.00     0.316 HD
BRANCH  30  32
HETATM   32  C20 UNL     1      26.506   3.657  49.563  1.00  0.00     0.265 C 
HETATM   33  C21 UNL     1      27.020   4.858  48.847  1.00  0.00     0.037 C 
ENDBRANCH  30  32
ENDBRANCH  25  30
ENDBRANCH   1  18
TORSDOF 6
ENDMDL
MODEL 4
REMARK VINA RESULT:      -8.8      2.019      5.395
REMARK  6 active torsions:
REMARK  status: ('A' for Active; 'I' for Inactive)
REMARK    1  A    between atoms: C4_6  and  N3_7 
REMARK    2  A    between atoms: N3_7  and  C5_8 
REMARK    3  A    between atoms: C12_15  and  C13_16 
REMARK    4  A    between atoms: C13_16  and  C14_17 
REMARK    5  A    between atoms: C19_23  and  N4_24 
REMARK    6  A    between atoms: N4_24  and  C20_25 
ROOT
HETATM    1  C13 UNL     1      23.961   2.049  50.850  1.00  0.00     0.051 C 
ENDROOT
BRANCH   1   2
HETATM    2  C12 UNL     1      25.024   2.064  51.548  1.00  0.00     0.037 A 
HETATM    3  C2  UNL     1      25.170   1.636  52.874  1.00  0.00     0.050 A 
HETATM    4  C1  UNL     1      24.140   1.201  53.516  1.00  0.00     0.066 C 
HETATM    5  N1  UNL     1      26.347   1.670  53.503  1.00  0.00    -0.245 NA
HETATM    6  C3  UNL     1      27.422   2.117  52.869  1.00  0.00     0.235 A 
HETATM    7  N2  UNL     1      27.309   2.529  51.610  1.00  0.00    -0.224 NA
HETATM    8  C4  UNL     1      26.161   2.520  50.924  1.00  0.00     0.141 A 
BRANCH   8   9
HETATM    9  N3  UNL     1      26.387   2.994  49.614  1.00  0.00    -0.340 N 
HETATM   10  H4  UNL     1      26.547   2.924  48.617  1.00  0.00     0.167 HD
BRANCH   9  11
HETATM   11  C5  UNL     1      26.487   4.410  49.393  1.00  0.00     0.034 A 
HETATM   12  C6  UNL     1      27.558   4.890  48.627  1.00  0.00     0.029 A 
HETATM   13  C7  UNL     1      27.799   6.245  48.361  1.00  0.00     0.003 A 
HETATM   14  C8  UNL     1      26.899   7.133  48.905  1.00  0.00     0.007 A 
HETATM   15  C9  UNL     1      25.818   6.771  49.670  1.00  0.00    -0.060 A 
HETATM   16  C10 UNL     1      24.840   7.708  50.267  1.00  0.00     0.048 C 
HETATM   17  C11 UNL     1      25.651   5.422  49.885  1.00  0.00     0.036 A 
ENDBRANCH   9  11
ENDBRANCH   8   9
ENDBRANCH   1   2
BRANCH   1  18
HETATM   18  C14 UNL     1      22.925   2.528  50.016  1.00  0.00     0.089 C 
HETATM   19  C15 UNL     1      22.856   2.434  48.668  1.00  0.00     0.168 C 
HETATM   20  O1  UNL     1      21.590   1.860  48.313  1.00  0.00    -0.346 OA
HETATM   21  C16 UNL     1      20.399   2.397  48.779  1.00  0.00     0.222 C 
HETATM   22  C17 UNL     1      19.607   1.569  49.752  1.00  0.00     0.044 C 
HETATM   23  C23 UNL     1      20.769   3.651  49.527  1.00  0.00     0.277 C 
HETATM   24  C18 UNL     1      20.392   0.649  50.591  1.00  0.00     0.041 C 
HETATM   25  C19 UNL     1      20.762   1.022  51.962  1.00  0.00     0.246 C 
HETATM   26  C22 UNL     1      20.782   2.424  52.402  1.00  0.00     0.237 C 
HETATM   27  O2  UNL     1      21.841   3.208  51.891  1.00  0.00    -0.268 OA
HETATM   28  N5  UNL     1      21.732   3.216  50.510  1.00  0.00    -0.185 N 
HETATM   29  O3  UNL     1      20.236   4.744  49.205  1.00  0.00    -0.268 OA
BRANCH  25  30
HETATM   30  N4  UNL     1      20.057   0.221  52.977  1.00  0.00     0.089 N 
HETATM   31  H20 UNL     1      19.092   0.600  53.068  1.00  0.00     0.316 HD
BRANCH  30  32
HETATM   32  C20 UNL     1      20.692   0.155  54.239  1.00  0.00     0.265 C 
HETATM   33  C21 UNL     1      21.406  -1.108  54.576  1.00  0.00     0.037 C 
ENDBRANCH  30  32
ENDBRANCH  25  30
ENDBRANCH   1  18
TORSDOF 6
ENDMDL
MODEL 5
REMARK VINA RESULT:      -8.5      1.953      3.844
REMARK  6 active torsions:
REMARK  status: ('A' for Active; 'I' for Inactive)
REMARK    1  A    between atoms: C4_6  and  N3_7 
REMARK    2  A    between atoms: N3_7  and  C5_8 
REMARK    3  A    between atoms: C12_15  and  C13_16 
REMARK    4  A    between atoms: C13_16  and  C14_17 
REMARK    5  A    between atoms: C19_23  and  N4_24 
REMARK    6  A    between atoms: N4_24  and  C20_25 
ROOT
HETATM    1  C13 UNL     1      23.685   1.568  51.623  1.00  0.00     0.051 C 
ENDROOT
BRANCH   1   2
HETATM    2  C12 UNL     1      23.236   0.707  52.443  1.00  0.00     0.037 A 
HETATM    3  C2  UNL     1      21.981   0.085  52.410  1.00  0.00     0.050 A 
HETATM    4  C1  UNL     1      21.138   0.406  51.490  1.00  0.00     0.066 C 
HETATM    5  N1  UNL     1      21.623  -0.833  53.311  1.00  0.00    -0.245 NA
HETATM    6  C3  UNL     1      22.467  -1.180  54.273  1.00  0.00     0.235 A 
HETATM    7  N2  UNL     1      23.664  -0.603  54.325  1.00  0.00    -0.224 NA
HETATM    8  C4  UNL     1      24.083   0.321  53.453  1.00  0.00     0.141 A 
BRANCH   8   9
HETATM    9  N3  UNL     1      25.403   0.709  53.772  1.00  0.00    -0.340 N 
HETATM   10  H4  UNL     1      26.131   1.314  54.127  1.00  0.00     0.167 HD
BRANCH   9  11
HETATM   11  C5  UNL     1      26.486  -0.179  53.449  1.00  0.00     0.034 A 
HETATM   12  C6  UNL     1      26.186  -1.391  52.812  1.00  0.00     0.029 A 
HETATM   13  C7  UNL     1      27.135  -2.364  52.471  1.00  0.00     0.003 A 
HETATM   14  C8  UNL     1      28.440  -2.072  52.799  1.00  0.00     0.007 A 
HETATM   15  C9  UNL     1      28.842  -0.917  53.423  1.00  0.00    -0.060 A 
HETATM   16  C10 UNL     1      30.238  -0.584  53.788  1.00  0.00     0.048 C 
HETATM   17  C11 UNL     1      27.850  -0.012  53.725  1.00  0.00     0.036 A 
ENDBRANCH   9  11
ENDBRANCH   8   9
ENDBRANCH   1   2
BRANCH   1  18
HETATM   18  C14 UNL     1      24.238   2.784  51.160  1.00  0.00     0.089 C 
HETATM   19  C15 UNL     1      25.480   2.974  50.656  1.00  0.00     0.168 C 
HETATM   20  O1  UNL     1      25.365   3.640  49.391  1.00  0.00    -0.346 OA
HETATM   21  C16 UNL     1      24.651   4.822  49.261  1.00  0.00     0.222 C 
HETATM   22  C17 UNL     1      23.382   4.773  48.456  1.00  0.00     0.044 C 
HETATM   23  C23 UNL     1      24.227   5.212  50.653  1.00  0.00     0.277 C 
HETATM   24  C18 UNL     1      22.689   3.475  48.438  1.00  0.00     0.041 C 
HETATM   25  C19 UNL     1      21.553   3.224  49.335  1.00  0.00     0.246 C 
HETATM   26  C22 UNL     1      21.340   4.018  50.551  1.00  0.00     0.237 C 
HETATM   27  O2  UNL     1      22.242   3.768  51.609  1.00  0.00    -0.268 OA
HETATM   28  N5  UNL     1      23.519   4.058  51.153  1.00  0.00    -0.185 N 
HETATM   29  O3  UNL     1      24.529   6.349  51.097  1.00  0.00    -0.268 OA
BRANCH  25  30
HETATM   30  N4  UNL     1      20.274   3.118  48.612  1.00  0.00     0.089 N 
HETATM   31  H20 UNL     1      20.276   3.834  47.856  1.00  0.00     0.316 HD
BRANCH  30  32
HETATM   32  C20 UNL     1      19.117   3.239  49.415  1.00  0.00     0.265 C 
HETATM   33  C21 UNL     1      18.049   2.217  49.229  1.00  0.00     0.037 C 
ENDBRANCH  30  32
ENDBRANCH  25  30
ENDBRANCH   1  18
TORSDOF 6
ENDMDL
MODEL 6
REMARK VINA RESULT:      -8.5      2.399      5.197
REMARK  6 active torsions:
REMARK  status: ('A' for Active; 'I' for Inactive)
REMARK    1  A    between atoms: C4_6  and  N3_7 
REMARK    2  A    between atoms: N3_7  and  C5_8 
REMARK    3  A    between atoms: C12_15  and  C13_16 
REMARK    4  A    between atoms: C13_16  and  C14_17 
REMARK    5  A    between atoms: C19_23  and  N4_24 
REMARK    6  A    between atoms: N4_24  and  C20_25 
ROOT
HETATM    1  C13 UNL     1      23.451   3.087  51.846  1.00  0.00     0.051 C 
ENDROOT
BRANCH   1   2
HETATM    2  C12 UNL     1      23.886   1.958  52.236  1.00  0.00     0.037 A 
HETATM    3  C2  UNL     1      25.150   1.408  51.987  1.00  0.00     0.050 A 
HETATM    4  C1  UNL     1      25.992   2.060  51.262  1.00  0.00     0.066 C 
HETATM    5  N1  UNL     1      25.513   0.219  52.475  1.00  0.00    -0.245 NA
HETATM    6  C3  UNL     1      24.665  -0.476  53.221  1.00  0.00     0.235 A 
HETATM    7  N2  UNL     1      23.459   0.026  53.471  1.00  0.00    -0.224 NA
HETATM    8  C4  UNL     1      23.035   1.209  53.014  1.00  0.00     0.141 A 
BRANCH   8   9
HETATM    9  N3  UNL     1      21.725   1.455  53.479  1.00  0.00    -0.340 N 
HETATM   10  H4  UNL     1      21.013   1.862  54.072  1.00  0.00     0.167 HD
BRANCH   9  11
HETATM   11  C5  UNL     1      20.623   0.798  52.834  1.00  0.00     0.034 A 
HETATM   12  C6  UNL     1      20.289   1.186  51.529  1.00  0.00     0.029 A 
HETATM   13  C7  UNL     1      19.219   0.656  50.793  1.00  0.00     0.003 A 
HETATM   14  C8  UNL     1      18.471  -0.308  51.430  1.00  0.00     0.007 A 
HETATM   15  C9  UNL     1      18.711  -0.759  52.705  1.00  0.00    -0.060 A 
HETATM   16  C10 UNL     1      17.918  -1.791  53.410  1.00  0.00     0.048 C 
HETATM   17  C11 UNL     1      19.779  -0.189  53.360  1.00  0.00     0.036 A 
ENDBRANCH   9  11
ENDBRANCH   8   9
ENDBRANCH   1   2
BRANCH   1  18
HETATM   18  C14 UNL     1      22.576   4.033  51.264  1.00  0.00     0.089 C 
HETATM   19  C15 UNL     1      21.537   4.658  51.864  1.00  0.00     0.168 C 
HETATM   20  O1  UNL     1      21.675   6.072  51.664  1.00  0.00    -0.346 OA
HETATM   21  C16 UNL     1      21.839   6.608  50.395  1.00  0.00     0.222 C 
HETATM   22  C17 UNL     1      23.169   7.235  50.082  1.00  0.00     0.044 C 
HETATM   23  C23 UNL     1      21.700   5.458  49.433  1.00  0.00     0.277 C 
HETATM   24  C18 UNL     1      24.320   6.686  50.817  1.00  0.00     0.041 C 
HETATM   25  C19 UNL     1      25.195   5.685  50.193  1.00  0.00     0.246 C 
HETATM   26  C22 UNL     1      24.748   4.871  49.055  1.00  0.00     0.237 C 
HETATM   27  O2  UNL     1      23.799   3.869  49.358  1.00  0.00    -0.268 OA
HETATM   28  N5  UNL     1      22.676   4.493  49.878  1.00  0.00    -0.185 N 
HETATM   29  O3  UNL     1      20.851   5.524  48.507  1.00  0.00    -0.268 OA
BRANCH  25  30
HETATM   30  N4  UNL     1      26.537   6.213  49.894  1.00  0.00     0.089 N 
HETATM   31  H20 UNL     1      26.538   7.229  50.123  1.00  0.00     0.316 HD
BRANCH  30  32
HETATM   32  C20 UNL     1      26.988   5.996  48.572  1.00  0.00     0.265 C 
HETATM   33  C21 UNL     1      28.278   5.269  48.403  1.00  0.00     0.037 C 
ENDBRANCH  30  32
ENDBRANCH  25  30
ENDBRANCH   1  18
TORSDOF 6
ENDMDL
MODEL 7
REMARK VINA RESULT:      -8.3      1.595      4.759
REMARK  6 active torsions:
REMARK  status: ('A' for Active; 'I' for Inactive)
REMARK    1  A    between atoms: C4_6  and  N3_7 
REMARK    2  A    between atoms: N3_7  and  C5_8 
REMARK    3  A    between atoms: C12_15  and  C13_16 
REMARK    4  A    between atoms: C13_16  and  C14_17 
REMARK    5  A    between atoms: C19_23  and  N4_24 
REMARK    6  A    between atoms: N4_24  and  C20_25 
ROOT
HETATM    1  C13 UNL     1      22.664   3.659  50.806  1.00  0.00     0.051 C 
ENDROOT
BRANCH   1   2
HETATM    2  C12 UNL     1      23.887   3.684  50.461  1.00  0.00     0.037 A 
HETATM    3  C2  UNL     1      24.438   4.335  49.349  1.00  0.00     0.050 A 
HETATM    4  C1  UNL     1      23.663   4.965  48.536  1.00  0.00     0.066 C 
HETATM    5  N1  UNL     1      25.750   4.319  49.098  1.00  0.00    -0.245 NA
HETATM    6  C3  UNL     1      26.571   3.674  49.915  1.00  0.00     0.235 A 
HETATM    7  N2  UNL     1      26.072   3.048  50.977  1.00  0.00    -0.224 NA
HETATM    8  C4  UNL     1      24.771   3.027  51.284  1.00  0.00     0.141 A 
BRANCH   8   9
HETATM    9  N3  UNL     1      24.578   2.303  52.480  1.00  0.00    -0.340 N 
HETATM   10  H4  UNL     1      24.105   2.025  53.330  1.00  0.00     0.167 HD
BRANCH   9  11
HETATM   11  C5  UNL     1      25.573   1.348  52.884  1.00  0.00     0.034 A 
HETATM   12  C6  UNL     1      26.530   1.743  53.829  1.00  0.00     0.029 A 
HETATM   13  C7  UNL     1      27.576   0.930  54.287  1.00  0.00     0.003 A 
HETATM   14  C8  UNL     1      27.632  -0.336  53.750  1.00  0.00     0.007 A 
HETATM   15  C9  UNL     1      26.746  -0.824  52.820  1.00  0.00    -0.060 A 
HETATM   16  C10 UNL     1      26.789  -2.180  52.228  1.00  0.00     0.048 C 
HETATM   17  C11 UNL     1      25.749   0.037  52.422  1.00  0.00     0.036 A 
ENDBRANCH   9  11
ENDBRANCH   8   9
ENDBRANCH   1   2
BRANCH   1  18
HETATM   18  C14 UNL     1      21.262   3.540  50.679  1.00  0.00     0.089 C 
HETATM   19  C15 UNL     1      20.527   3.720  49.557  1.00  0.00     0.168 C 
HETATM   20  O1  UNL     1      19.693   2.569  49.365  1.00  0.00    -0.346 OA
HETATM   21  C16 UNL     1      18.855   2.110  50.371  1.00  0.00     0.222 C 
HETATM   22  C17 UNL     1      19.189   0.781  50.989  1.00  0.00     0.044 C 
HETATM   23  C23 UNL     1      18.958   3.111  51.492  1.00  0.00     0.277 C 
HETATM   24  C18 UNL     1      20.614   0.413  50.976  1.00  0.00     0.041 C 
HETATM   25  C19 UNL     1      21.450   0.626  52.165  1.00  0.00     0.246 C 
HETATM   26  C22 UNL     1      21.071   1.581  53.214  1.00  0.00     0.237 C 
HETATM   27  O2  UNL     1      21.196   2.946  52.869  1.00  0.00    -0.268 OA
HETATM   28  N5  UNL     1      20.369   3.185  51.783  1.00  0.00    -0.185 N 
HETATM   29  O3  UNL     1      17.913   3.654  51.934  1.00  0.00    -0.268 OA
BRANCH  25  30
HETATM   30  N4  UNL     1      21.856  -0.637  52.804  1.00  0.00     0.089 N 
HETATM   31  H20 UNL     1      21.227  -1.389  52.453  1.00  0.00     0.316 HD
BRANCH  30  32
HETATM   32  C20 UNL     1      21.875  -0.617  54.218  1.00  0.00     0.265 C 
HETATM   33  C21 UNL     1      23.073  -1.194  54.891  1.00  0.00     0.037 C 
ENDBRANCH  30  32
ENDBRANCH  25  30
ENDBRANCH   1  18
TORSDOF 6
ENDMDL
MODEL 8
REMARK VINA RESULT:      -8.1      2.372      5.887
REMARK  6 active torsions:
REMARK  status: ('A' for Active; 'I' for Inactive)
REMARK    1  A    between atoms: C4_6  and  N3_7 
REMARK    2  A    between atoms: N3_7  and  C5_8 
REMARK    3  A    between atoms: C12_15  and  C13_16 
REMARK    4  A    between atoms: C13_16  and  C14_17 
REMARK    5  A    between atoms: C19_23  and  N4_24 
REMARK    6  A    between atoms: N4_24  and  C20_25 
ROOT
HETATM    1  C13 UNL     1      24.517   2.205  51.524  1.00  0.00     0.051 C 
ENDROOT
BRANCH   1   2
HETATM    2  C12 UNL     1      24.496   1.196  52.298  1.00  0.00     0.037 A 
HETATM    3  C2  UNL     1      25.538   0.289  52.530  1.00  0.00     0.050 A 
HETATM    4  C1  UNL     1      26.650   0.424  51.892  1.00  0.00     0.066 C 
HETATM    5  N1  UNL     1      25.415  -0.723  53.392  1.00  0.00    -0.245 NA
HETATM    6  C3  UNL     1      24.282  -0.890  54.059  1.00  0.00     0.235 A 
HETATM    7  N2  UNL     1      23.278  -0.041  53.855  1.00  0.00    -0.224 NA
HETATM    8  C4  UNL     1      23.337   0.991  53.008  1.00  0.00     0.141 A 
BRANCH   8   9
HETATM    9  N3  UNL     1      22.121   1.706  53.046  1.00  0.00    -0.340 N 
HETATM   10  H4  UNL     1      21.520   2.507  53.194  1.00  0.00     0.167 HD
BRANCH   9  11
HETATM   11  C5  UNL     1      20.902   1.024  52.709  1.00  0.00     0.034 A 
HETATM   12  C6  UNL     1      20.402   0.072  53.608  1.00  0.00     0.029 A 
HETATM   13  C7  UNL     1      19.246  -0.691  53.393  1.00  0.00     0.003 A 
HETATM   14  C8  UNL     1      18.584  -0.459  52.209  1.00  0.00     0.007 A 
HETATM   15  C9  UNL     1      18.986   0.449  51.261  1.00  0.00    -0.060 A 
HETATM   16  C10 UNL     1      18.293   0.712  49.980  1.00  0.00     0.048 C 
HETATM   17  C11 UNL     1      20.131   1.158  51.547  1.00  0.00     0.036 A 
ENDBRANCH   9  11
ENDBRANCH   8   9
ENDBRANCH   1   2
BRANCH   1  18
HETATM   18  C14 UNL     1      24.936   3.441  50.982  1.00  0.00     0.089 C 
HETATM   19  C15 UNL     1      26.077   3.684  50.296  1.00  0.00     0.168 C 
HETATM   20  O1  UNL     1      25.742   4.333  49.062  1.00  0.00    -0.346 OA
HETATM   21  C16 UNL     1      24.962   5.481  49.040  1.00  0.00     0.222 C 
HETATM   22  C17 UNL     1      23.590   5.366  48.436  1.00  0.00     0.044 C 
HETATM   23  C23 UNL     1      24.736   5.862  50.480  1.00  0.00     0.277 C 
HETATM   24  C18 UNL     1      22.964   4.037  48.524  1.00  0.00     0.041 C 
HETATM   25  C19 UNL     1      21.989   3.742  49.582  1.00  0.00     0.246 C 
HETATM   26  C22 UNL     1      21.924   4.535  50.816  1.00  0.00     0.237 C 
HETATM   27  O2  UNL     1      22.987   4.336  51.726  1.00  0.00    -0.268 OA
HETATM   28  N5  UNL     1      24.165   4.680  51.082  1.00  0.00    -0.185 N 
HETATM   29  O3  UNL     1      25.048   7.015  50.872  1.00  0.00    -0.268 OA
BRANCH  25  30
HETATM   30  N4  UNL     1      20.623   3.572  49.061  1.00  0.00     0.089 N 
HETATM   31  H20 UNL     1      20.045   3.142  49.813  1.00  0.00     0.316 HD
BRANCH  30  32
HETATM   32  C20 UNL     1      20.523   2.824  47.864  1.00  0.00     0.265 C 
HETATM   33  C21 UNL     1      19.451   3.214  46.905  1.00  0.00     0.037 C 
ENDBRANCH  30  32
ENDBRANCH  25  30
ENDBRANCH   1  18
TORSDOF 6
ENDMDL
MODEL 9
REMARK VINA RESULT:      -8.1      8.929     12.916
REMARK  6 active torsions:
REMARK  status: ('A' for Active; 'I' for Inactive)
REMARK    1  A    between atoms: C4_6  and  N3_7 
REMARK    2  A    between atoms: N3_7  and  C5_8 
REMARK    3  A    between atoms: C12_15  and  C13_16 
REMARK    4  A    between atoms: C13_16  and  C14_17 
REMARK    5  A    between atoms: C19_23  and  N4_24 
REMARK    6  A    between atoms: N4_24  and  C20_25 
ROOT
HETATM    1  C13 UNL     1      33.984   6.913  46.964  1.00  0.00     0.051 C 
ENDROOT
BRANCH   1   2
HETATM    2  C12 UNL     1      34.151   5.655  47.026  1.00  0.00     0.037 A 
HETATM    3  C2  UNL     1      34.774   4.936  48.055  1.00  0.00     0.050 A 
HETATM    4  C1  UNL     1      35.280   5.571  49.056  1.00  0.00     0.066 C 
HETATM    5  N1  UNL     1      34.868   3.604  48.030  1.00  0.00    -0.245 NA
HETATM    6  C3  UNL     1      34.362   2.924  47.011  1.00  0.00     0.235 A 
HETATM    7  N2  UNL     1      33.766   3.584  46.023  1.00  0.00    -0.224 NA
HETATM    8  C4  UNL     1      33.638   4.915  45.988  1.00  0.00     0.141 A 
BRANCH   8   9
HETATM    9  N3  UNL     1      32.938   5.294  44.822  1.00  0.00    -0.340 N 
HETATM   10  H4  UNL     1      32.135   5.568  44.271  1.00  0.00     0.167 HD
BRANCH   9  11
HETATM   11  C5  UNL     1      33.650   5.374  43.577  1.00  0.00     0.034 A 
HETATM   12  C6  UNL     1      33.159   4.651  42.481  1.00  0.00     0.029 A 
HETATM   13  C7  UNL     1      33.770   4.610  41.220  1.00  0.00     0.003 A 
HETATM   14  C8  UNL     1      34.927   5.343  41.088  1.00  0.00     0.007 A 
HETATM   15  C9  UNL     1      35.493   6.086  42.095  1.00  0.00    -0.060 A 
HETATM   16  C10 UNL     1      36.737   6.879  41.977  1.00  0.00     0.048 C 
HETATM   17  C11 UNL     1      34.833   6.074  43.303  1.00  0.00     0.036 A 
ENDBRANCH   9  11
ENDBRANCH   8   9
ENDBRANCH   1   2
BRANCH   1  18
HETATM   18  C14 UNL     1      33.333   8.146  46.727  1.00  0.00     0.089 C 
HETATM   19  C15 UNL     1      33.220   8.793  45.544  1.00  0.00     0.168 C 
HETATM   20  O1  UNL     1      31.838   9.101  45.320  1.00  0.00    -0.346 OA
HETATM   21  C16 UNL     1      31.088   9.782  46.268  1.00  0.00     0.222 C 
HETATM   22  C17 UNL     1      29.989   9.018  46.952  1.00  0.00     0.044 C 
HETATM   23  C23 UNL     1      32.048  10.170  47.362  1.00  0.00     0.277 C 
HETATM   24  C18 UNL     1      30.198   7.566  47.066  1.00  0.00     0.041 C 
HETATM   25  C19 UNL     1      30.713   6.983  48.312  1.00  0.00     0.246 C 
HETATM   26  C22 UNL     1      31.445   7.789  49.297  1.00  0.00     0.237 C 
HETATM   27  O2  UNL     1      32.753   8.168  48.922  1.00  0.00    -0.268 OA
HETATM   28  N5  UNL     1      32.659   8.926  47.765  1.00  0.00    -0.185 N 
HETATM   29  O3  UNL     1      32.146  11.377  47.701  1.00  0.00    -0.268 OA
BRANCH  25  30
HETATM   30  N4  UNL     1      29.702   6.180  49.020  1.00  0.00     0.089 N 
HETATM   31  H20 UNL     1      30.188   5.645  49.770  1.00  0.00     0.316 HD
BRANCH  30  32
HETATM   32  C20 UNL     1      28.938   5.315  48.203  1.00  0.00     0.265 C 
HETATM   33  C21 UNL     1      27.546   5.014  48.643  1.00  0.00     0.037 C 
ENDBRANCH  30  32
ENDBRANCH  25  30
ENDBRANCH   1  18
TORSDOF 6
ENDMDL
