MODEL 1
REMARK VINA RESULT:      -8.3      0.000      0.000
REMARK  5 active torsions:
REMARK  status: ('A' for Active; 'I' for Inactive)
REMARK    1  A    between atoms: C2_2  and  C3_4 
REMARK    2  A    between atoms: C4_6  and  C5_7 
REMARK    3  A    between atoms: C6_8  and  N1_9 
REMARK    4  A    between atoms: N1_9  and  C7_10 
REMARK    5  A    between atoms: C14_20  and  N5_21 
ROOT
HETATM    1  C7  UNL     1      23.290   0.010  53.464  1.00  0.00     0.159 A 
HETATM    2  N2  UNL     1      22.644  -0.601  54.473  1.00  0.00    -0.222 NA
HETATM    3  C8  UNL     1      23.356  -1.301  55.403  1.00  0.00     0.238 A 
HETATM    4  N3  UNL     1      24.716  -1.389  55.322  1.00  0.00    -0.215 NA
HETATM    5  C9  UNL     1      25.376  -0.781  54.318  1.00  0.00     0.202 A 
HETATM    6  C10 UNL     1      24.652  -0.074  53.381  1.00  0.00     0.129 A 
HETATM    7  N4  UNL     1      25.116   0.650  52.268  1.00  0.00    -0.379 N 
HETATM    8  C11 UNL     1      26.363   1.268  51.945  1.00  0.00     0.161 C 
HETATM    9  C12 UNL     1      27.417   1.153  52.965  1.00  0.00    -0.004 C 
HETATM   10  C13 UNL     1      28.353   2.100  53.175  1.00  0.00     0.041 C 
HETATM   11  C14 UNL     1      29.232   1.637  54.273  1.00  0.00     0.040 C 
HETATM   12  C15 UNL     1      28.949   0.343  54.291  1.00  0.00     0.040 C 
HETATM   13  C16 UNL     1      27.715   0.080  53.942  1.00  0.00     0.099 C 
HETATM   14  O1  UNL     1      26.780  -0.919  54.305  1.00  0.00    -0.288 OA
HETATM   15  H8  UNL     1      24.383   0.760  51.516  1.00  0.00     0.160 HD
ENDROOT
BRANCH   1  16
HETATM   16  N1  UNL     1      22.447   0.712  52.553  1.00  0.00    -0.349 N 
HETATM   17  H6  UNL     1      22.439   1.567  51.990  1.00  0.00     0.167 HD
BRANCH  16  18
HETATM   18  C6  UNL     1      21.253  -0.040  52.408  1.00  0.00     0.090 C 
HETATM   19  C5  UNL     1      19.949   0.056  52.493  1.00  0.00     0.020 C 
BRANCH  19  20
HETATM   20  C4  UNL     1      18.571  -0.434  52.427  1.00  0.00     0.041 C 
HETATM   21  C3  UNL     1      18.117  -1.468  53.160  1.00  0.00     0.119 C 
HETATM   22  F1  UNL     1      19.065  -2.004  53.963  1.00  0.00    -0.209 F 
BRANCH  21  23
HETATM   23  C2  UNL     1      16.780  -1.424  52.643  1.00  0.00     0.114 A 
HETATM   24  C1  UNL     1      15.731  -2.127  52.420  1.00  0.00     0.133 A 
HETATM   25 CL1  UNL     1      16.552  -3.151  52.984  1.00  0.00    -0.200 Cl
ENDBRANCH  21  23
ENDBRANCH  19  20
ENDBRANCH  16  18
ENDBRANCH   1  16
BRANCH  11  26
HETATM   26  N5  UNL     1      30.146   2.393  55.097  1.00  0.00    -0.398 N 
HETATM   27  H12 UNL     1      30.162   3.417  55.052  1.00  0.00     0.156 HD
HETATM   28  H13 UNL     1      30.704   1.687  55.668  1.00  0.00     0.156 HD
ENDBRANCH  11  26
TORSDOF 5
ENDMDL
MODEL 2
REMARK VINA RESULT:      -7.6      5.746      7.109
REMARK  5 active torsions:
REMARK  status: ('A' for Active; 'I' for Inactive)
REMARK    1  A    between atoms: C2_2  and  C3_4 
REMARK    2  A    between atoms: C4_6  and  C5_7 
REMARK    3  A    between atoms: C6_8  and  N1_9 
REMARK    4  A    between atoms: N1_9  and  C7_10 
REMARK    5  A    between atoms: C14_20  and  N5_21 
ROOT
HETATM    1  C7  UNL     1      24.976   4.495  50.584  1.00  0.00     0.159 A 
HETATM    2  N2  UNL     1      25.467   3.247  50.473  1.00  0.00    -0.222 NA
HETATM    3  C8  UNL     1      26.556   3.020  49.682  1.00  0.00     0.238 A 
HETATM    4  N3  UNL     1      27.154   4.042  49.002  1.00  0.00    -0.215 NA
HETATM    5  C9  UNL     1      26.673   5.296  49.105  1.00  0.00     0.202 A 
HETATM    6  C10 UNL     1      25.573   5.521  49.905  1.00  0.00     0.129 A 
HETATM    7  N4  UNL     1      24.913   6.732  50.180  1.00  0.00    -0.379 N 
HETATM    8  C11 UNL     1      25.313   8.103  50.140  1.00  0.00     0.161 C 
HETATM    9  C12 UNL     1      26.705   8.352  49.735  1.00  0.00    -0.004 C 
HETATM   10  C13 UNL     1      27.443   9.380  50.202  1.00  0.00     0.041 C 
HETATM   11  C14 UNL     1      28.781   9.303  49.575  1.00  0.00     0.040 C 
HETATM   12  C15 UNL     1      28.532   8.500  48.550  1.00  0.00     0.040 C 
HETATM   13  C16 UNL     1      27.593   7.623  48.799  1.00  0.00     0.099 C 
HETATM   14  O1  UNL     1      27.346   6.297  48.372  1.00  0.00    -0.288 OA
HETATM   15  H8  UNL     1      23.911   6.594  50.483  1.00  0.00     0.160 HD
ENDROOT
BRANCH   1  16
HETATM   16  N1  UNL     1      23.840   4.615  51.435  1.00  0.00    -0.349 N 
HETATM   17  H6  UNL     1      23.336   5.323  51.976  1.00  0.00     0.167 HD
BRANCH  16  18
HETATM   18  C6  UNL     1      23.248   3.331  51.545  1.00  0.00     0.090 C 
HETATM   19  C5  UNL     1      22.949   2.396  52.413  1.00  0.00     0.020 C 
BRANCH  19  20
HETATM   20  C4  UNL     1      22.411   1.106  52.848  1.00  0.00     0.041 C 
HETATM   21  C3  UNL     1      23.149   0.168  53.470  1.00  0.00     0.119 C 
HETATM   22  F1  UNL     1      24.437   0.542  53.652  1.00  0.00    -0.209 F 
BRANCH  21  23
HETATM   23  C2  UNL     1      22.081  -0.778  53.604  1.00  0.00     0.114 A 
HETATM   24  C1  UNL     1      21.560  -1.653  54.386  1.00  0.00     0.133 A 
HETATM   25 CL1  UNL     1      22.648  -1.247  55.220  1.00  0.00    -0.200 Cl
ENDBRANCH  21  23
ENDBRANCH  19  20
ENDBRANCH  16  18
ENDBRANCH   1  16
BRANCH  11  26
HETATM   26  N5  UNL     1      30.018   9.931  49.974  1.00  0.00    -0.398 N 
HETATM   27  H12 UNL     1      30.890   9.733  49.471  1.00  0.00     0.156 HD
HETATM   28  H13 UNL     1      29.794  10.555  50.808  1.00  0.00     0.156 HD
ENDBRANCH  11  26
TORSDOF 5
ENDMDL
MODEL 3
REMARK VINA RESULT:      -7.5      4.246      5.368
REMARK  5 active torsions:
REMARK  status: ('A' for Active; 'I' for Inactive)
REMARK    1  A    between atoms: C2_2  and  C3_4 
REMARK    2  A    between atoms: C4_6  and  C5_7 
REMARK    3  A    between atoms: C6_8  and  N1_9 
REMARK    4  A    between atoms: N1_9  and  C7_10 
REMARK    5  A    between atoms: C14_20  and  N5_21 
ROOT
HETATM    1  C7  UNL     1      23.198  -0.113  53.244  1.00  0.00     0.159 A 
HETATM    2  N2  UNL     1      22.472  -0.590  54.272  1.00  0.00    -0.222 NA
HETATM    3  C8  UNL     1      23.105  -1.168  55.333  1.00  0.00     0.238 A 
HETATM    4  N3  UNL     1      24.466  -1.268  55.367  1.00  0.00    -0.215 NA
HETATM    5  C9  UNL     1      25.206  -0.794  54.347  1.00  0.00     0.202 A 
HETATM    6  C10 UNL     1      24.562  -0.210  53.276  1.00  0.00     0.129 A 
HETATM    7  N4  UNL     1      25.115   0.366  52.119  1.00  0.00    -0.379 N 
HETATM    8  C11 UNL     1      26.390   0.936  51.815  1.00  0.00     0.161 C 
HETATM    9  C12 UNL     1      27.364   0.949  52.918  1.00  0.00    -0.004 C 
HETATM   10  C13 UNL     1      28.293   1.914  53.077  1.00  0.00     0.041 C 
HETATM   11  C14 UNL     1      29.082   1.592  54.288  1.00  0.00     0.040 C 
HETATM   12  C15 UNL     1      28.783   0.311  54.447  1.00  0.00     0.040 C 
HETATM   13  C16 UNL     1      27.576   0.008  54.042  1.00  0.00     0.099 C 
HETATM   14  O1  UNL     1      26.605  -0.935  54.457  1.00  0.00    -0.288 OA
HETATM   15  H8  UNL     1      24.442   0.382  51.306  1.00  0.00     0.160 HD
ENDROOT
BRANCH   1  16
HETATM   16  N1  UNL     1      22.433   0.470  52.192  1.00  0.00    -0.349 N 
HETATM   17  H6  UNL     1      21.877   0.191  51.379  1.00  0.00     0.167 HD
BRANCH  16  18
HETATM   18  C6  UNL     1      22.483   1.878  52.355  1.00  0.00     0.090 C 
HETATM   19  C5  UNL     1      22.903   2.976  51.775  1.00  0.00     0.020 C 
BRANCH  19  20
HETATM   20  C4  UNL     1      23.112   4.419  51.650  1.00  0.00     0.041 C 
HETATM   21  C3  UNL     1      23.964   4.970  50.766  1.00  0.00     0.119 C 
HETATM   22  F1  UNL     1      24.604   4.052  50.005  1.00  0.00    -0.209 F 
BRANCH  21  23
HETATM   23  C2  UNL     1      23.701   6.326  51.150  1.00  0.00     0.114 A 
HETATM   24  C1  UNL     1      24.171   7.520  51.130  1.00  0.00     0.133 A 
HETATM   25 CL1  UNL     1      25.245   6.861  50.457  1.00  0.00    -0.200 Cl
ENDBRANCH  21  23
ENDBRANCH  19  20
ENDBRANCH  16  18
ENDBRANCH   1  16
BRANCH  11  26
HETATM   26  N5  UNL     1      29.940   2.444  55.076  1.00  0.00    -0.398 N 
HETATM   27  H12 UNL     1      30.745   2.052  55.578  1.00  0.00     0.156 HD
HETATM   28  H13 UNL     1      29.552   3.433  54.997  1.00  0.00     0.156 HD
ENDBRANCH  11  26
TORSDOF 5
ENDMDL
MODEL 4
REMARK VINA RESULT:      -7.5      6.067      8.485
REMARK  5 active torsions:
REMARK  status: ('A' for Active; 'I' for Inactive)
REMARK    1  A    between atoms: C2_2  and  C3_4 
REMARK    2  A    between atoms: C4_6  and  C5_7 
REMARK    3  A    between atoms: C6_8  and  N1_9 
REMARK    4  A    between atoms: N1_9  and  C7_10 
REMARK    5  A    between atoms: C14_20  and  N5_21 
ROOT
HETATM    1  C7  UNL     1      23.331   4.731  52.257  1.00  0.00     0.159 A 
HETATM    2  N2  UNL     1      22.020   4.994  52.103  1.00  0.00    -0.222 NA
HETATM    3  C8  UNL     1      21.137   3.962  51.977  1.00  0.00     0.238 A 
HETATM    4  N3  UNL     1      21.566   2.666  52.005  1.00  0.00    -0.215 NA
HETATM    5  C9  UNL     1      22.874   2.388  52.159  1.00  0.00     0.202 A 
HETATM    6  C10 UNL     1      23.763   3.434  52.287  1.00  0.00     0.129 A 
HETATM    7  N4  UNL     1      25.156   3.392  52.475  1.00  0.00    -0.379 N 
HETATM    8  C11 UNL     1      26.050   2.412  53.008  1.00  0.00     0.161 C 
HETATM    9  C12 UNL     1      25.425   1.165  53.476  1.00  0.00    -0.004 C 
HETATM   10  C13 UNL     1      25.900   0.439  54.509  1.00  0.00     0.041 C 
HETATM   11  C14 UNL     1      25.015  -0.735  54.685  1.00  0.00     0.040 C 
HETATM   12  C15 UNL     1      24.391  -0.756  53.517  1.00  0.00     0.040 C 
HETATM   13  C16 UNL     1      24.229   0.434  52.997  1.00  0.00     0.099 C 
HETATM   14  O1  UNL     1      23.237   1.024  52.178  1.00  0.00    -0.288 OA
HETATM   15  H8  UNL     1      25.640   4.275  52.157  1.00  0.00     0.160 HD
ENDROOT
BRANCH   1  16
HETATM   16  N1  UNL     1      24.161   5.884  52.380  1.00  0.00    -0.349 N 
HETATM   17  H6  UNL     1      24.618   6.448  53.101  1.00  0.00     0.167 HD
BRANCH  16  18
HETATM   18  C6  UNL     1      24.406   6.377  51.073  1.00  0.00     0.090 C 
HETATM   19  C5  UNL     1      25.365   6.799  50.286  1.00  0.00     0.020 C 
BRANCH  19  20
HETATM   20  C4  UNL     1      25.934   7.321  49.042  1.00  0.00     0.041 C 
HETATM   21  C3  UNL     1      26.901   6.691  48.349  1.00  0.00     0.119 C 
HETATM   22  F1  UNL     1      27.291   5.529  48.921  1.00  0.00    -0.209 F 
BRANCH  21  23
HETATM   23  C2  UNL     1      26.989   7.678  47.313  1.00  0.00     0.114 A 
HETATM   24  C1  UNL     1      27.781   8.223  46.463  1.00  0.00     0.133 A 
HETATM   25 CL1  UNL     1      28.705   7.306  47.052  1.00  0.00    -0.200 Cl
ENDBRANCH  21  23
ENDBRANCH  19  20
ENDBRANCH  16  18
ENDBRANCH   1  16
BRANCH  11  26
HETATM   26  N5  UNL     1      24.874  -1.614  55.822  1.00  0.00    -0.398 N 
HETATM   27  H12 UNL     1      25.365  -1.413  56.700  1.00  0.00     0.156 HD
HETATM   28  H13 UNL     1      24.219  -2.401  55.526  1.00  0.00     0.156 HD
ENDBRANCH  11  26
TORSDOF 5
ENDMDL
MODEL 5
REMARK VINA RESULT:      -7.4      3.952      4.913
REMARK  5 active torsions:
REMARK  status: ('A' for Active; 'I' for Inactive)
REMARK    1  A    between atoms: C2_2  and  C3_4 
REMARK    2  A    between atoms: C4_6  and  C5_7 
REMARK    3  A    between atoms: C6_8  and  N1_9 
REMARK    4  A    between atoms: N1_9  and  C7_10 
REMARK    5  A    between atoms: C14_20  and  N5_21 
ROOT
HETATM    1  C7  UNL     1      24.418   2.771  52.023  1.00  0.00     0.159 A 
HETATM    2  N2  UNL     1      25.045   2.008  52.937  1.00  0.00    -0.222 NA
HETATM    3  C8  UNL     1      26.362   1.697  52.765  1.00  0.00     0.238 A 
HETATM    4  N3  UNL     1      27.053   2.150  51.677  1.00  0.00    -0.215 NA
HETATM    5  C9  UNL     1      26.439   2.914  50.755  1.00  0.00     0.202 A 
HETATM    6  C10 UNL     1      25.107   3.227  50.933  1.00  0.00     0.129 A 
HETATM    7  N4  UNL     1      24.269   4.015  50.125  1.00  0.00    -0.379 N 
HETATM    8  C11 UNL     1      24.509   5.058  49.178  1.00  0.00     0.161 C 
HETATM    9  C12 UNL     1      25.919   5.423  48.973  1.00  0.00    -0.004 C 
HETATM   10  C13 UNL     1      26.328   6.673  48.673  1.00  0.00     0.041 C 
HETATM   11  C14 UNL     1      27.803   6.653  48.546  1.00  0.00     0.040 C 
HETATM   12  C15 UNL     1      28.024   5.355  48.397  1.00  0.00     0.040 C 
HETATM   13  C16 UNL     1      27.156   4.608  49.031  1.00  0.00     0.099 C 
HETATM   14  O1  UNL     1      27.220   3.342  49.661  1.00  0.00    -0.288 OA
HETATM   15  H8  UNL     1      23.245   3.787  50.250  1.00  0.00     0.160 HD
ENDROOT
BRANCH   1  16
HETATM   16  N1  UNL     1      23.045   3.033  52.304  1.00  0.00    -0.349 N 
HETATM   17  H6  UNL     1      22.385   3.815  52.330  1.00  0.00     0.167 HD
BRANCH  16  18
HETATM   18  C6  UNL     1      22.437   1.801  52.655  1.00  0.00     0.090 C 
HETATM   19  C5  UNL     1      21.269   1.234  52.834  1.00  0.00     0.020 C 
BRANCH  19  20
HETATM   20  C4  UNL     1      20.359   0.133  53.156  1.00  0.00     0.041 C 
HETATM   21  C3  UNL     1      19.182  -0.059  52.532  1.00  0.00     0.119 C 
HETATM   22  F1  UNL     1      18.929   0.867  51.579  1.00  0.00    -0.209 F 
BRANCH  21  23
HETATM   23  C2  UNL     1      18.821  -1.227  53.282  1.00  0.00     0.114 A 
HETATM   24  C1  UNL     1      17.887  -2.083  53.484  1.00  0.00     0.133 A 
HETATM   25 CL1  UNL     1      17.228  -1.283  52.500  1.00  0.00    -0.200 Cl
ENDBRANCH  21  23
ENDBRANCH  19  20
ENDBRANCH  16  18
ENDBRANCH   1  16
BRANCH  11  26
HETATM   26  N5  UNL     1      28.740   7.750  48.577  1.00  0.00    -0.398 N 
HETATM   27  H12 UNL     1      29.669   7.655  48.153  1.00  0.00     0.156 HD
HETATM   28  H13 UNL     1      28.261   8.553  49.088  1.00  0.00     0.156 HD
ENDBRANCH  11  26
TORSDOF 5
ENDMDL
MODEL 6
REMARK VINA RESULT:      -7.4      6.761      9.080
REMARK  5 active torsions:
REMARK  status: ('A' for Active; 'I' for Inactive)
REMARK    1  A    between atoms: C2_2  and  C3_4 
REMARK    2  A    between atoms: C4_6  and  C5_7 
REMARK    3  A    between atoms: C6_8  and  N1_9 
REMARK    4  A    between atoms: N1_9  and  C7_10 
REMARK    5  A    between atoms: C14_20  and  N5_21 
ROOT
HETATM    1  C7  UNL     1      25.005   4.834  49.900  1.00  0.00     0.159 A 
HETATM    2  N2  UNL     1      23.829   5.202  50.440  1.00  0.00    -0.222 NA
HETATM    3  C8  UNL     1      23.632   6.503  50.802  1.00  0.00     0.238 A 
HETATM    4  N3  UNL     1      24.613   7.436  50.625  1.00  0.00    -0.215 NA
HETATM    5  C9  UNL     1      25.794   7.082  50.085  1.00  0.00     0.202 A 
HETATM    6  C10 UNL     1      25.989   5.767  49.719  1.00  0.00     0.129 A 
HETATM    7  N4  UNL     1      27.116   5.171  49.126  1.00  0.00    -0.379 N 
HETATM    8  C11 UNL     1      28.195   5.675  48.335  1.00  0.00     0.161 C 
HETATM    9  C12 UNL     1      28.159   7.117  48.050  1.00  0.00    -0.004 C 
HETATM   10  C13 UNL     1      28.632   7.661  46.909  1.00  0.00     0.041 C 
HETATM   11  C14 UNL     1      28.423   9.125  46.981  1.00  0.00     0.040 C 
HETATM   12  C15 UNL     1      28.226   9.287  48.281  1.00  0.00     0.040 C 
HETATM   13  C16 UNL     1      27.650   8.257  48.848  1.00  0.00     0.099 C 
HETATM   14  O1  UNL     1      26.756   8.103  49.934  1.00  0.00    -0.288 OA
HETATM   15  H8  UNL     1      27.173   4.132  49.303  1.00  0.00     0.160 HD
ENDROOT
BRANCH   1  16
HETATM   16  N1  UNL     1      25.099   3.454  49.558  1.00  0.00    -0.349 N 
HETATM   17  H6  UNL     1      24.987   2.836  48.750  1.00  0.00     0.167 HD
BRANCH  16  18
HETATM   18  C6  UNL     1      25.463   2.745  50.732  1.00  0.00     0.090 C 
HETATM   19  C5  UNL     1      26.503   2.317  51.405  1.00  0.00     0.020 C 
BRANCH  19  20
HETATM   20  C4  UNL     1      27.188   1.641  52.508  1.00  0.00     0.041 C 
HETATM   21  C3  UNL     1      27.289   0.302  52.607  1.00  0.00     0.119 C 
HETATM   22  F1  UNL     1      26.694  -0.351  51.582  1.00  0.00    -0.209 F 
BRANCH  21  23
HETATM   23  C2  UNL     1      28.026   0.312  53.836  1.00  0.00     0.114 A 
HETATM   24  C1  UNL     1      28.998  -0.238  54.468  1.00  0.00     0.133 A 
HETATM   25 CL1  UNL     1      29.076  -0.999  53.262  1.00  0.00    -0.200 Cl
ENDBRANCH  21  23
ENDBRANCH  19  20
ENDBRANCH  16  18
ENDBRANCH   1  16
BRANCH  11  26
HETATM   26  N5  UNL     1      28.430  10.105  45.921  1.00  0.00    -0.398 N 
HETATM   27  H12 UNL     1      27.853  10.950  45.988  1.00  0.00     0.156 HD
HETATM   28  H13 UNL     1      29.100   9.748  45.173  1.00  0.00     0.156 HD
ENDBRANCH  11  26
TORSDOF 5
ENDMDL
MODEL 7
REMARK VINA RESULT:      -7.2      5.939      7.390
REMARK  5 active torsions:
REMARK  status: ('A' for Active; 'I' for Inactive)
REMARK    1  A    between atoms: C2_2  and  C3_4 
REMARK    2  A    between atoms: C4_6  and  C5_7 
REMARK    3  A    between atoms: C6_8  and  N1_9 
REMARK    4  A    between atoms: N1_9  and  C7_10 
REMARK    5  A    between atoms: C14_20  and  N5_21 
ROOT
HETATM    1  C7  UNL     1      24.492   4.634  50.106  1.00  0.00     0.159 A 
HETATM    2  N2  UNL     1      23.334   5.035  50.662  1.00  0.00    -0.222 NA
HETATM    3  C8  UNL     1      23.195   6.330  51.069  1.00  0.00     0.238 A 
HETATM    4  N3  UNL     1      24.216   7.224  50.919  1.00  0.00    -0.215 NA
HETATM    5  C9  UNL     1      25.380   6.838  50.364  1.00  0.00     0.202 A 
HETATM    6  C10 UNL     1      25.516   5.528  49.954  1.00  0.00     0.129 A 
HETATM    7  N4  UNL     1      26.615   4.905  49.338  1.00  0.00    -0.379 N 
HETATM    8  C11 UNL     1      27.713   5.387  48.560  1.00  0.00     0.161 C 
HETATM    9  C12 UNL     1      27.740   6.838  48.323  1.00  0.00    -0.004 C 
HETATM   10  C13 UNL     1      28.235   7.399  47.201  1.00  0.00     0.041 C 
HETATM   11  C14 UNL     1      28.090   8.868  47.322  1.00  0.00     0.040 C 
HETATM   12  C15 UNL     1      27.903   8.994  48.628  1.00  0.00     0.040 C 
HETATM   13  C16 UNL     1      27.283   7.972  49.161  1.00  0.00     0.099 C 
HETATM   14  O1  UNL     1      26.385   7.821  50.245  1.00  0.00    -0.288 OA
HETATM   15  H8  UNL     1      26.627   3.858  49.480  1.00  0.00     0.160 HD
ENDROOT
BRANCH   1  16
HETATM   16  N1  UNL     1      24.525   3.263  49.718  1.00  0.00    -0.349 N 
HETATM   17  H6  UNL     1      24.533   2.687  48.872  1.00  0.00     0.167 HD
BRANCH  16  18
HETATM   18  C6  UNL     1      24.556   2.483  50.903  1.00  0.00     0.090 C 
HETATM   19  C5  UNL     1      23.830   1.667  51.628  1.00  0.00     0.020 C 
BRANCH  19  20
HETATM   20  C4  UNL     1      23.552   0.783  52.760  1.00  0.00     0.041 C 
HETATM   21  C3  UNL     1      22.564  -0.131  52.760  1.00  0.00     0.119 C 
HETATM   22  F1  UNL     1      21.858  -0.148  51.606  1.00  0.00    -0.209 F 
BRANCH  21  23
HETATM   23  C2  UNL     1      22.828  -0.616  54.083  1.00  0.00     0.114 A 
HETATM   24  C1  UNL     1      22.323  -1.259  55.073  1.00  0.00     0.133 A 
HETATM   25 CL1  UNL     1      21.200  -1.316  54.192  1.00  0.00    -0.200 Cl
ENDBRANCH  21  23
ENDBRANCH  19  20
ENDBRANCH  16  18
ENDBRANCH   1  16
BRANCH  11  26
HETATM   26  N5  UNL     1      28.138   9.881  46.295  1.00  0.00    -0.398 N 
HETATM   27  H12 UNL     1      27.324  10.478  46.113  1.00  0.00     0.156 HD
HETATM   28  H13 UNL     1      29.107   9.832  45.856  1.00  0.00     0.156 HD
ENDBRANCH  11  26
TORSDOF 5
ENDMDL
MODEL 8
REMARK VINA RESULT:      -7.1      4.578      9.544
REMARK  5 active torsions:
REMARK  status: ('A' for Active; 'I' for Inactive)
REMARK    1  A    between atoms: C2_2  and  C3_4 
REMARK    2  A    between atoms: C4_6  and  C5_7 
REMARK    3  A    between atoms: C6_8  and  N1_9 
REMARK    4  A    between atoms: N1_9  and  C7_10 
REMARK    5  A    between atoms: C14_20  and  N5_21 
ROOT
HETATM    1  C7  UNL     1      20.823   1.234  52.070  1.00  0.00     0.159 A 
HETATM    2  N2  UNL     1      21.495   2.362  52.363  1.00  0.00    -0.222 NA
HETATM    3  C8  UNL     1      20.850   3.563  52.310  1.00  0.00     0.238 A 
HETATM    4  N3  UNL     1      19.532   3.635  51.964  1.00  0.00    -0.215 NA
HETATM    5  C9  UNL     1      18.846   2.515  51.668  1.00  0.00     0.202 A 
HETATM    6  C10 UNL     1      19.502   1.303  51.724  1.00  0.00     0.129 A 
HETATM    7  N4  UNL     1      18.997   0.013  51.480  1.00  0.00    -0.379 N 
HETATM    8  C11 UNL     1      17.688  -0.558  51.528  1.00  0.00     0.161 C 
HETATM    9  C12 UNL     1      16.604   0.358  51.914  1.00  0.00    -0.004 C 
HETATM   10  C13 UNL     1      15.512  -0.031  52.603  1.00  0.00     0.041 C 
HETATM   11  C14 UNL     1      14.653   1.158  52.807  1.00  0.00     0.040 C 
HETATM   12  C15 UNL     1      15.146   1.982  51.893  1.00  0.00     0.040 C 
HETATM   13  C16 UNL     1      16.426   1.811  51.681  1.00  0.00     0.099 C 
HETATM   14  O1  UNL     1      17.488   2.673  51.320  1.00  0.00    -0.288 OA
HETATM   15  H8  UNL     1      19.748  -0.677  51.206  1.00  0.00     0.160 HD
ENDROOT
BRANCH   1  16
HETATM   16  N1  UNL     1      21.595   0.039  52.158  1.00  0.00    -0.349 N 
HETATM   17  H6  UNL     1      21.601  -0.920  51.800  1.00  0.00     0.167 HD
BRANCH  16  18
HETATM   18  C6  UNL     1      22.688   0.297  53.025  1.00  0.00     0.090 C 
HETATM   19  C5  UNL     1      23.981   0.121  53.146  1.00  0.00     0.020 C 
BRANCH  19  20
HETATM   20  C4  UNL     1      25.283   0.230  53.806  1.00  0.00     0.041 C 
HETATM   21  C3  UNL     1      26.328  -0.567  53.515  1.00  0.00     0.119 C 
HETATM   22  F1  UNL     1      26.050  -1.474  52.551  1.00  0.00    -0.209 F 
BRANCH  21  23
HETATM   23  C2  UNL     1      27.223   0.034  54.461  1.00  0.00     0.114 A 
HETATM   24  C1  UNL     1      28.457   0.150  54.793  1.00  0.00     0.133 A 
HETATM   25 CL1  UNL     1      28.626  -0.698  53.656  1.00  0.00    -0.200 Cl
ENDBRANCH  21  23
ENDBRANCH  19  20
ENDBRANCH  16  18
ENDBRANCH   1  16
BRANCH  11  26
HETATM   26  N5  UNL     1      13.576   1.360  53.746  1.00  0.00    -0.398 N 
HETATM   27  H12 UNL     1      12.679   0.879  53.622  1.00  0.00     0.156 HD
HETATM   28  H13 UNL     1      13.930   2.045  54.482  1.00  0.00     0.156 HD
ENDBRANCH  11  26
TORSDOF 5
ENDMDL
MODEL 9
REMARK VINA RESULT:      -7.1      3.097      5.185
REMARK  5 active torsions:
REMARK  status: ('A' for Active; 'I' for Inactive)
REMARK    1  A    between atoms: C2_2  and  C3_4 
REMARK    2  A    between atoms: C4_6  and  C5_7 
REMARK    3  A    between atoms: C6_8  and  N1_9 
REMARK    4  A    between atoms: N1_9  and  C7_10 
REMARK    5  A    between atoms: C14_20  and  N5_21 
ROOT
HETATM    1  C7  UNL     1      18.936  -1.041  53.345  1.00  0.00     0.159 A 
HETATM    2  N2  UNL     1      18.092  -0.686  52.359  1.00  0.00    -0.222 NA
HETATM    3  C8  UNL     1      18.403   0.371  51.554  1.00  0.00     0.238 A 
HETATM    4  N3  UNL     1      19.559   1.074  51.737  1.00  0.00    -0.215 NA
HETATM    5  C9  UNL     1      20.413   0.730  52.720  1.00  0.00     0.202 A 
HETATM    6  C10 UNL     1      20.095  -0.339  53.530  1.00  0.00     0.129 A 
HETATM    7  N4  UNL     1      20.829  -0.890  54.595  1.00  0.00    -0.379 N 
HETATM    8  C11 UNL     1      22.216  -0.887  54.942  1.00  0.00     0.161 C 
HETATM    9  C12 UNL     1      23.105  -0.172  54.014  1.00  0.00    -0.004 C 
HETATM   10  C13 UNL     1      24.381  -0.538  53.776  1.00  0.00     0.041 C 
HETATM   11  C14 UNL     1      24.953   0.410  52.793  1.00  0.00     0.040 C 
HETATM   12  C15 UNL     1      24.092   1.413  52.883  1.00  0.00     0.040 C 
HETATM   13  C16 UNL     1      22.875   1.025  53.171  1.00  0.00     0.099 C 
HETATM   14  O1  UNL     1      21.585   1.506  52.844  1.00  0.00    -0.288 OA
HETATM   15  H8  UNL     1      20.225  -1.419  55.281  1.00  0.00     0.160 HD
ENDROOT
BRANCH   1  16
HETATM   16  N1  UNL     1      18.511  -2.158  54.121  1.00  0.00    -0.349 N 
HETATM   17  H6  UNL     1      18.719  -2.621  55.011  1.00  0.00     0.167 HD
BRANCH  16  18
HETATM   18  C6  UNL     1      17.476  -2.810  53.403  1.00  0.00     0.090 C 
HETATM   19  C5  UNL     1      16.750  -3.902  53.389  1.00  0.00     0.020 C 
BRANCH  19  20
HETATM   20  C4  UNL     1      15.723  -4.811  52.878  1.00  0.00     0.041 C 
HETATM   21  C3  UNL     1      14.821  -4.458  51.944  1.00  0.00     0.119 C 
HETATM   22  F1  UNL     1      14.963  -3.178  51.528  1.00  0.00    -0.209 F 
BRANCH  21  23
HETATM   23  C2  UNL     1      14.160  -5.729  51.907  1.00  0.00     0.114 A 
HETATM   24  C1  UNL     1      13.057  -6.317  51.616  1.00  0.00     0.133 A 
HETATM   25 CL1  UNL     1      12.674  -4.981  51.285  1.00  0.00    -0.200 Cl
ENDBRANCH  21  23
ENDBRANCH  19  20
ENDBRANCH  16  18
ENDBRANCH   1  16
BRANCH  11  26
HETATM   26  N5  UNL     1      26.127   0.274  51.964  1.00  0.00    -0.398 N 
HETATM   27  H12 UNL     1      26.922   0.912  52.078  1.00  0.00     0.156 HD
HETATM   28  H13 UNL     1      25.949  -0.547  51.308  1.00  0.00     0.156 HD
ENDBRANCH  11  26
TORSDOF 5
ENDMDL
