MODEL 1
REMARK VINA RESULT:      -8.0      0.000      0.000
REMARK  8 active torsions:
REMARK  status: ('A' for Active; 'I' for Inactive)
REMARK    1  A    between atoms: N1_2  and  C2_3 
REMARK    2  A    between atoms: C2_3  and  C3_4 
REMARK    3  A    between atoms: C3_4  and  C4_5 
REMARK    4  A    between atoms: C4_5  and  C5_6 
REMARK    5  A    between atoms: C5_6  and  O1_7 
REMARK    6  A    between atoms: O1_7  and  C6_8 
REMARK    7  A    between atoms: C9_11  and  N2_12 
REMARK    8  A    between atoms: N2_12  and  C10_13 
ROOT
HETATM    1  C6  UNL     1      25.521  -0.677  54.731  1.00  0.00     0.164 A 
HETATM    2  C7  UNL     1      24.705  -0.152  53.721  1.00  0.00     0.074 A 
HETATM    3  C8  UNL     1      23.317  -0.333  53.718  1.00  0.00     0.026 A 
HETATM    4  C9  UNL     1      22.475   0.164  52.748  1.00  0.00     0.068 A 
HETATM    5  C16 UNL     1      21.113  -0.045  52.793  1.00  0.00     0.089 A 
HETATM    6  C17 UNL     1      20.262   0.498  51.749  1.00  0.00     0.103 C 
HETATM    7  N3  UNL     1      19.611   0.933  50.925  1.00  0.00    -0.191 NA
HETATM    8  C18 UNL     1      20.560  -0.776  53.842  1.00  0.00     0.142 A 
HETATM    9  N4  UNL     1      21.403  -1.254  54.783  1.00  0.00    -0.257 NA
HETATM   10  C19 UNL     1      22.720  -1.050  54.735  1.00  0.00     0.086 A 
HETATM   11  C20 UNL     1      23.556  -1.546  55.702  1.00  0.00     0.152 A 
HETATM   12  N5  UNL     1      24.885  -1.364  55.692  1.00  0.00    -0.235 NA
ENDROOT
BRANCH   4  13
HETATM   13  N2  UNL     1      23.039   0.905  51.687  1.00  0.00    -0.354 N 
HETATM   14  H14 UNL     1      23.354   0.185  51.015  1.00  0.00     0.166 HD
BRANCH  13  15
HETATM   15  C10 UNL     1      23.182   2.304  51.501  1.00  0.00     0.033 A 
HETATM   16  C11 UNL     1      23.329   3.060  52.644  1.00  0.00     0.029 A 
HETATM   17  C12 UNL     1      23.473   4.428  52.529  1.00  0.00     0.004 A 
HETATM   18  C13 UNL     1      23.467   4.996  51.249  1.00  0.00     0.019 A 
HETATM   19  C14 UNL     1      23.316   4.179  50.148  1.00  0.00     0.013 A 
HETATM   20 BR1  UNL     1      23.318   5.035  48.445  1.00  0.00    -0.051 Br
HETATM   21  C15 UNL     1      23.169   2.811  50.221  1.00  0.00     0.048 A 
ENDBRANCH  13  15
ENDBRANCH   4  13
BRANCH   1  22
HETATM   22  O1  UNL     1      26.819  -0.345  54.474  1.00  0.00    -0.334 OA
BRANCH  22  23
HETATM   23  C5  UNL     1      27.608  -0.927  53.461  1.00  0.00     0.177 C 
BRANCH  23  24
HETATM   24  C4  UNL     1      29.004  -0.320  53.554  1.00  0.00     0.028 C 
BRANCH  24  25
HETATM   25  C3  UNL     1      29.067   0.899  54.396  1.00  0.00     0.032 C 
BRANCH  25  26
HETATM   26  C2  UNL     1      28.779   2.211  53.755  1.00  0.00     0.269 C 
BRANCH  26  27
HETATM   27  N1  UNL     1      27.453   2.586  53.517  1.00  0.00     0.079 N 
HETATM   28  C1  UNL     1      26.925   2.432  52.213  1.00  0.00     0.306 C 
HETATM   29  H4  UNL     1      26.805   2.212  54.227  1.00  0.00     0.315 HD
ENDBRANCH  26  27
ENDBRANCH  25  26
ENDBRANCH  24  25
ENDBRANCH  23  24
ENDBRANCH  22  23
ENDBRANCH   1  22
TORSDOF 8
ENDMDL
MODEL 2
REMARK VINA RESULT:      -7.8      2.367      4.143
REMARK  8 active torsions:
REMARK  status: ('A' for Active; 'I' for Inactive)
REMARK    1  A    between atoms: N1_2  and  C2_3 
REMARK    2  A    between atoms: C2_3  and  C3_4 
REMARK    3  A    between atoms: C3_4  and  C4_5 
REMARK    4  A    between atoms: C4_5  and  C5_6 
REMARK    5  A    between atoms: C5_6  and  O1_7 
REMARK    6  A    between atoms: O1_7  and  C6_8 
REMARK    7  A    between atoms: C9_11  and  N2_12 
REMARK    8  A    between atoms: N2_12  and  C10_13 
ROOT
HETATM    1  C6  UNL     1      27.028   1.597  52.430  1.00  0.00     0.164 A 
HETATM    2  C7  UNL     1      25.705   1.140  52.473  1.00  0.00     0.074 A 
HETATM    3  C8  UNL     1      25.231   0.332  53.513  1.00  0.00     0.026 A 
HETATM    4  C9  UNL     1      23.940  -0.141  53.599  1.00  0.00     0.068 A 
HETATM    5  C16 UNL     1      23.527  -0.935  54.647  1.00  0.00     0.089 A 
HETATM    6  C17 UNL     1      22.157  -1.412  54.697  1.00  0.00     0.103 C 
HETATM    7  N3  UNL     1      21.079  -1.773  54.722  1.00  0.00    -0.191 NA
HETATM    8  C18 UNL     1      24.428  -1.276  55.654  1.00  0.00     0.142 A 
HETATM    9  N4  UNL     1      25.688  -0.801  55.551  1.00  0.00    -0.257 NA
HETATM   10  C19 UNL     1      26.084  -0.035  54.535  1.00  0.00     0.086 A 
HETATM   11  C20 UNL     1      27.370   0.435  54.453  1.00  0.00     0.152 A 
HETATM   12  N5  UNL     1      27.809   1.209  53.449  1.00  0.00    -0.235 NA
ENDROOT
BRANCH   4  13
HETATM   13  N2  UNL     1      23.031   0.206  52.577  1.00  0.00    -0.354 N 
HETATM   14  H14 UNL     1      23.102  -0.571  51.900  1.00  0.00     0.166 HD
BRANCH  13  15
HETATM   15  C10 UNL     1      22.181   1.332  52.431  1.00  0.00     0.033 A 
HETATM   16  C11 UNL     1      20.831   1.103  52.586  1.00  0.00     0.029 A 
HETATM   17  C12 UNL     1      19.952   2.159  52.456  1.00  0.00     0.004 A 
HETATM   18  C13 UNL     1      20.469   3.429  52.171  1.00  0.00     0.019 A 
HETATM   19  C14 UNL     1      21.832   3.587  52.028  1.00  0.00     0.013 A 
HETATM   20 BR1  UNL     1      22.450   5.347  51.640  1.00  0.00    -0.051 Br
HETATM   21  C15 UNL     1      22.741   2.558  52.150  1.00  0.00     0.048 A 
ENDBRANCH  13  15
ENDBRANCH   4  13
BRANCH   1  22
HETATM   22  O1  UNL     1      27.202   2.357  51.311  1.00  0.00    -0.334 OA
BRANCH  22  23
HETATM   23  C5  UNL     1      26.259   3.281  50.817  1.00  0.00     0.177 C 
BRANCH  23  24
HETATM   24  C4  UNL     1      26.476   3.409  49.313  1.00  0.00     0.028 C 
BRANCH  24  25
HETATM   25  C3  UNL     1      27.353   4.544  48.934  1.00  0.00     0.032 C 
BRANCH  25  26
HETATM   26  C2  UNL     1      26.720   5.867  48.684  1.00  0.00     0.269 C 
BRANCH  26  27
HETATM   27  N1  UNL     1      26.805   6.867  49.660  1.00  0.00     0.079 N 
HETATM   28  C1  UNL     1      25.620   7.289  50.307  1.00  0.00     0.306 C 
HETATM   29  H4  UNL     1      27.558   6.689  50.341  1.00  0.00     0.315 HD
ENDBRANCH  26  27
ENDBRANCH  25  26
ENDBRANCH  24  25
ENDBRANCH  23  24
ENDBRANCH  22  23
ENDBRANCH   1  22
TORSDOF 8
ENDMDL
MODEL 3
REMARK VINA RESULT:      -7.7      2.083      6.024
REMARK  8 active torsions:
REMARK  status: ('A' for Active; 'I' for Inactive)
REMARK    1  A    between atoms: N1_2  and  C2_3 
REMARK    2  A    between atoms: C2_3  and  C3_4 
REMARK    3  A    between atoms: C3_4  and  C4_5 
REMARK    4  A    between atoms: C4_5  and  C5_6 
REMARK    5  A    between atoms: C5_6  and  O1_7 
REMARK    6  A    between atoms: O1_7  and  C6_8 
REMARK    7  A    between atoms: C9_11  and  N2_12 
REMARK    8  A    between atoms: N2_12  and  C10_13 
ROOT
HETATM    1  C6  UNL     1      21.615  -0.839  53.770  1.00  0.00     0.164 A 
HETATM    2  C7  UNL     1      22.639  -0.098  53.168  1.00  0.00     0.074 A 
HETATM    3  C8  UNL     1      23.938  -0.064  53.689  1.00  0.00     0.026 A 
HETATM    4  C9  UNL     1      24.976   0.649  53.132  1.00  0.00     0.068 A 
HETATM    5  C16 UNL     1      26.237   0.648  53.688  1.00  0.00     0.089 A 
HETATM    6  C17 UNL     1      27.303   1.415  53.068  1.00  0.00     0.103 C 
HETATM    7  N3  UNL     1      28.126   2.018  52.566  1.00  0.00    -0.191 NA
HETATM    8  C18 UNL     1      26.482  -0.089  54.845  1.00  0.00     0.142 A 
HETATM    9  N4  UNL     1      25.451  -0.782  55.375  1.00  0.00    -0.257 NA
HETATM   10  C19 UNL     1      24.233  -0.777  54.834  1.00  0.00     0.086 A 
HETATM   11  C20 UNL     1      23.201  -1.488  55.391  1.00  0.00     0.152 A 
HETATM   12  N5  UNL     1      21.961  -1.512  54.879  1.00  0.00    -0.235 NA
ENDROOT
BRANCH   4  13
HETATM   13  N2  UNL     1      24.724   1.395  51.961  1.00  0.00    -0.354 N 
HETATM   14  H14 UNL     1      24.868   0.717  51.194  1.00  0.00     0.166 HD
BRANCH  13  15
HETATM   15  C10 UNL     1      24.354   2.753  51.783  1.00  0.00     0.033 A 
HETATM   16  C11 UNL     1      23.882   3.409  52.899  1.00  0.00     0.029 A 
HETATM   17  C12 UNL     1      23.507   4.732  52.790  1.00  0.00     0.004 A 
HETATM   18  C13 UNL     1      23.622   5.361  51.545  1.00  0.00     0.019 A 
HETATM   19  C14 UNL     1      24.103   4.644  50.469  1.00  0.00     0.013 A 
HETATM   20 BR1  UNL     1      24.226   5.575  48.811  1.00  0.00    -0.051 Br
HETATM   21  C15 UNL     1      24.487   3.322  50.537  1.00  0.00     0.048 A 
ENDBRANCH  13  15
ENDBRANCH   4  13
BRANCH   1  22
HETATM   22  O1  UNL     1      20.468  -0.686  53.049  1.00  0.00    -0.334 OA
BRANCH  22  23
HETATM   23  C5  UNL     1      20.314   0.213  51.974  1.00  0.00     0.177 C 
BRANCH  23  24
HETATM   24  C4  UNL     1      18.862   0.679  51.963  1.00  0.00     0.028 C 
BRANCH  24  25
HETATM   25  C3  UNL     1      17.893  -0.402  51.654  1.00  0.00     0.032 C 
BRANCH  25  26
HETATM   26  C2  UNL     1      17.031  -0.907  52.757  1.00  0.00     0.269 C 
BRANCH  26  27
HETATM   27  N1  UNL     1      17.610  -1.617  53.815  1.00  0.00     0.079 N 
HETATM   28  C1  UNL     1      17.679  -3.027  53.731  1.00  0.00     0.306 C 
HETATM   29  H4  UNL     1      18.513  -1.216  54.108  1.00  0.00     0.315 HD
ENDBRANCH  26  27
ENDBRANCH  25  26
ENDBRANCH  24  25
ENDBRANCH  23  24
ENDBRANCH  22  23
ENDBRANCH   1  22
TORSDOF 8
ENDMDL
MODEL 4
REMARK VINA RESULT:      -7.6      2.626      4.317
REMARK  8 active torsions:
REMARK  status: ('A' for Active; 'I' for Inactive)
REMARK    1  A    between atoms: N1_2  and  C2_3 
REMARK    2  A    between atoms: C2_3  and  C3_4 
REMARK    3  A    between atoms: C3_4  and  C4_5 
REMARK    4  A    between atoms: C4_5  and  C5_6 
REMARK    5  A    between atoms: C5_6  and  O1_7 
REMARK    6  A    between atoms: O1_7  and  C6_8 
REMARK    7  A    between atoms: C9_11  and  N2_12 
REMARK    8  A    between atoms: N2_12  and  C10_13 
ROOT
HETATM    1  C6  UNL     1      26.748   2.110  51.665  1.00  0.00     0.164 A 
HETATM    2  C7  UNL     1      25.353   2.079  51.783  1.00  0.00     0.074 A 
HETATM    3  C8  UNL     1      24.696   1.149  52.596  1.00  0.00     0.026 A 
HETATM    4  C9  UNL     1      23.328   1.081  52.744  1.00  0.00     0.068 A 
HETATM    5  C16 UNL     1      22.733   0.143  53.559  1.00  0.00     0.089 A 
HETATM    6  C17 UNL     1      21.287   0.107  53.685  1.00  0.00     0.103 C 
HETATM    7  N3  UNL     1      20.154   0.096  53.775  1.00  0.00    -0.191 NA
HETATM    8  C18 UNL     1      23.523  -0.767  54.258  1.00  0.00     0.142 A 
HETATM    9  N4  UNL     1      24.861  -0.683  54.100  1.00  0.00    -0.257 NA
HETATM   10  C19 UNL     1      25.433   0.225  53.310  1.00  0.00     0.086 A 
HETATM   11  C20 UNL     1      26.796   0.291  53.165  1.00  0.00     0.152 A 
HETATM   12  N5  UNL     1      27.411   1.189  52.381  1.00  0.00    -0.235 NA
ENDROOT
BRANCH   4  13
HETATM   13  N2  UNL     1      22.532   2.005  52.034  1.00  0.00    -0.354 N 
HETATM   14  H14 UNL     1      22.159   2.632  52.767  1.00  0.00     0.166 HD
BRANCH  13  15
HETATM   15  C10 UNL     1      22.252   2.122  50.649  1.00  0.00     0.033 A 
HETATM   16  C11 UNL     1      21.729   1.003  50.035  1.00  0.00     0.029 A 
HETATM   17  C12 UNL     1      21.435   1.054  48.688  1.00  0.00     0.004 A 
HETATM   18  C13 UNL     1      21.678   2.245  47.993  1.00  0.00     0.019 A 
HETATM   19  C14 UNL     1      22.202   3.327  48.671  1.00  0.00     0.013 A 
HETATM   20 BR1  UNL     1      22.503   4.908  47.651  1.00  0.00    -0.051 Br
HETATM   21  C15 UNL     1      22.510   3.315  50.014  1.00  0.00     0.048 A 
ENDBRANCH  13  15
ENDBRANCH   4  13
BRANCH   1  22
HETATM   22  O1  UNL     1      27.103   3.112  50.812  1.00  0.00    -0.334 OA
BRANCH  22  23
HETATM   23  C5  UNL     1      26.209   3.790  49.959  1.00  0.00     0.177 C 
BRANCH  23  24
HETATM   24  C4  UNL     1      27.035   4.662  49.017  1.00  0.00     0.028 C 
BRANCH  24  25
HETATM   25  C3  UNL     1      26.401   5.966  48.707  1.00  0.00     0.032 C 
BRANCH  25  26
HETATM   26  C2  UNL     1      25.629   6.646  49.782  1.00  0.00     0.269 C 
BRANCH  26  27
HETATM   27  N1  UNL     1      26.285   7.524  50.652  1.00  0.00     0.079 N 
HETATM   28  C1  UNL     1      26.830   8.720  50.128  1.00  0.00     0.306 C 
HETATM   29  H4  UNL     1      25.743   7.706  51.510  1.00  0.00     0.315 HD
ENDBRANCH  26  27
ENDBRANCH  25  26
ENDBRANCH  24  25
ENDBRANCH  23  24
ENDBRANCH  22  23
ENDBRANCH   1  22
TORSDOF 8
ENDMDL
MODEL 5
REMARK VINA RESULT:      -7.4      1.201      1.823
REMARK  8 active torsions:
REMARK  status: ('A' for Active; 'I' for Inactive)
REMARK    1  A    between atoms: N1_2  and  C2_3 
REMARK    2  A    between atoms: C2_3  and  C3_4 
REMARK    3  A    between atoms: C3_4  and  C4_5 
REMARK    4  A    between atoms: C4_5  and  C5_6 
REMARK    5  A    between atoms: C5_6  and  O1_7 
REMARK    6  A    between atoms: O1_7  and  C6_8 
REMARK    7  A    between atoms: C9_11  and  N2_12 
REMARK    8  A    between atoms: N2_12  and  C10_13 
ROOT
HETATM    1  C6  UNL     1      23.524  -0.915  54.427  1.00  0.00     0.164 A 
HETATM    2  C7  UNL     1      23.168  -0.161  53.302  1.00  0.00     0.074 A 
HETATM    3  C8  UNL     1      21.844  -0.067  52.859  1.00  0.00     0.026 A 
HETATM    4  C9  UNL     1      21.446   0.661  51.759  1.00  0.00     0.068 A 
HETATM    5  C16 UNL     1      20.126   0.719  51.367  1.00  0.00     0.089 A 
HETATM    6  C17 UNL     1      19.751   1.498  50.201  1.00  0.00     0.103 C 
HETATM    7  N3  UNL     1      19.475   2.116  49.288  1.00  0.00    -0.191 NA
HETATM    8  C18 UNL     1      19.157   0.028  52.093  1.00  0.00     0.142 A 
HETATM    9  N4  UNL     1      19.568  -0.678  53.168  1.00  0.00    -0.257 NA
HETATM   10  C19 UNL     1      20.846  -0.733  53.543  1.00  0.00     0.086 A 
HETATM   11  C20 UNL     1      21.240  -1.458  54.639  1.00  0.00     0.152 A 
HETATM   12  N5  UNL     1      22.514  -1.539  55.051  1.00  0.00    -0.235 NA
ENDROOT
BRANCH   4  13
HETATM   13  N2  UNL     1      22.429   1.359  51.027  1.00  0.00    -0.354 N 
HETATM   14  H14 UNL     1      22.794   0.657  50.361  1.00  0.00     0.166 HD
BRANCH  13  15
HETATM   15  C10 UNL     1      22.877   2.702  51.114  1.00  0.00     0.033 A 
HETATM   16  C11 UNL     1      22.846   3.276  52.368  1.00  0.00     0.029 A 
HETATM   17  C12 UNL     1      23.269   4.581  52.518  1.00  0.00     0.004 A 
HETATM   18  C13 UNL     1      23.718   5.274  51.387  1.00  0.00     0.019 A 
HETATM   19  C14 UNL     1      23.723   4.637  50.163  1.00  0.00     0.013 A 
HETATM   20 BR1  UNL     1      24.348   5.653  48.677  1.00  0.00    -0.051 Br
HETATM   21  C15 UNL     1      23.308   3.337  49.972  1.00  0.00     0.048 A 
ENDBRANCH  13  15
ENDBRANCH   4  13
BRANCH   1  22
HETATM   22  O1  UNL     1      24.871  -0.824  54.618  1.00  0.00    -0.334 OA
BRANCH  22  23
HETATM   23  C5  UNL     1      25.731   0.004  53.868  1.00  0.00     0.177 C 
BRANCH  23  24
HETATM   24  C4  UNL     1      26.774  -0.890  53.203  1.00  0.00     0.028 C 
BRANCH  24  25
HETATM   25  C3  UNL     1      28.169  -0.554  53.580  1.00  0.00     0.032 C 
BRANCH  25  26
HETATM   26  C2  UNL     1      28.387   0.294  54.783  1.00  0.00     0.269 C 
BRANCH  26  27
HETATM   27  N1  UNL     1      29.067   1.510  54.654  1.00  0.00     0.079 N 
HETATM   28  C1  UNL     1      28.644   2.425  53.662  1.00  0.00     0.306 C 
HETATM   29  H4  UNL     1      29.205   1.981  55.561  1.00  0.00     0.315 HD
ENDBRANCH  26  27
ENDBRANCH  25  26
ENDBRANCH  24  25
ENDBRANCH  23  24
ENDBRANCH  22  23
ENDBRANCH   1  22
TORSDOF 8
ENDMDL
MODEL 6
REMARK VINA RESULT:      -7.4      1.877      5.166
REMARK  8 active torsions:
REMARK  status: ('A' for Active; 'I' for Inactive)
REMARK    1  A    between atoms: N1_2  and  C2_3 
REMARK    2  A    between atoms: C2_3  and  C3_4 
REMARK    3  A    between atoms: C3_4  and  C4_5 
REMARK    4  A    between atoms: C4_5  and  C5_6 
REMARK    5  A    between atoms: C5_6  and  O1_7 
REMARK    6  A    between atoms: O1_7  and  C6_8 
REMARK    7  A    between atoms: C9_11  and  N2_12 
REMARK    8  A    between atoms: N2_12  and  C10_13 
ROOT
HETATM    1  C6  UNL     1      21.896  -1.131  53.972  1.00  0.00     0.164 A 
HETATM    2  C7  UNL     1      22.847  -0.337  53.318  1.00  0.00     0.074 A 
HETATM    3  C8  UNL     1      24.143  -0.168  53.817  1.00  0.00     0.026 A 
HETATM    4  C9  UNL     1      25.111   0.601  53.210  1.00  0.00     0.068 A 
HETATM    5  C16 UNL     1      26.374   0.734  53.747  1.00  0.00     0.089 A 
HETATM    6  C17 UNL     1      27.363   1.555  53.074  1.00  0.00     0.103 C 
HETATM    7  N3  UNL     1      28.127   2.200  52.531  1.00  0.00    -0.191 NA
HETATM    8  C18 UNL     1      26.694   0.078  54.934  1.00  0.00     0.142 A 
HETATM    9  N4  UNL     1      25.731  -0.672  55.512  1.00  0.00    -0.257 NA
HETATM   10  C19 UNL     1      24.511  -0.796  54.990  1.00  0.00     0.086 A 
HETATM   11  C20 UNL     1      23.549  -1.564  55.597  1.00  0.00     0.152 A 
HETATM   12  N5  UNL     1      22.310  -1.716  55.106  1.00  0.00    -0.235 NA
ENDROOT
BRANCH   4  13
HETATM   13  N2  UNL     1      24.783   1.264  52.008  1.00  0.00    -0.354 N 
HETATM   14  H14 UNL     1      24.823   0.521  51.291  1.00  0.00     0.166 HD
BRANCH  13  15
HETATM   15  C10 UNL     1      24.462   2.621  51.751  1.00  0.00     0.033 A 
HETATM   16  C11 UNL     1      23.590   3.221  52.634  1.00  0.00     0.029 A 
HETATM   17  C12 UNL     1      23.238   4.541  52.438  1.00  0.00     0.004 A 
HETATM   18  C13 UNL     1      23.786   5.224  51.345  1.00  0.00     0.019 A 
HETATM   19  C14 UNL     1      24.654   4.562  50.501  1.00  0.00     0.013 A 
HETATM   20 BR1  UNL     1      25.352   5.566  49.039  1.00  0.00    -0.051 Br
HETATM   21  C15 UNL     1      25.028   3.246  50.663  1.00  0.00     0.048 A 
ENDBRANCH  13  15
ENDBRANCH   4  13
BRANCH   1  22
HETATM   22  O1  UNL     1      20.732  -1.110  53.262  1.00  0.00    -0.334 OA
BRANCH  22  23
HETATM   23  C5  UNL     1      19.782  -0.070  53.314  1.00  0.00     0.177 C 
BRANCH  23  24
HETATM   24  C4  UNL     1      19.406   0.288  51.879  1.00  0.00     0.028 C 
BRANCH  24  25
HETATM   25  C3  UNL     1      20.273   1.334  51.282  1.00  0.00     0.032 C 
BRANCH  25  26
HETATM   26  C2  UNL     1      20.640   1.206  49.846  1.00  0.00     0.269 C 
BRANCH  26  27
HETATM   27  N1  UNL     1      21.986   1.273  49.471  1.00  0.00     0.079 N 
HETATM   28  C1  UNL     1      22.343   2.066  48.354  1.00  0.00     0.306 C 
HETATM   29  H4  UNL     1      22.609   1.456  50.271  1.00  0.00     0.315 HD
ENDBRANCH  26  27
ENDBRANCH  25  26
ENDBRANCH  24  25
ENDBRANCH  23  24
ENDBRANCH  22  23
ENDBRANCH   1  22
TORSDOF 8
ENDMDL
MODEL 7
REMARK VINA RESULT:      -7.4      2.130      3.308
REMARK  8 active torsions:
REMARK  status: ('A' for Active; 'I' for Inactive)
REMARK    1  A    between atoms: N1_2  and  C2_3 
REMARK    2  A    between atoms: C2_3  and  C3_4 
REMARK    3  A    between atoms: C3_4  and  C4_5 
REMARK    4  A    between atoms: C4_5  and  C5_6 
REMARK    5  A    between atoms: C5_6  and  O1_7 
REMARK    6  A    between atoms: O1_7  and  C6_8 
REMARK    7  A    between atoms: C9_11  and  N2_12 
REMARK    8  A    between atoms: N2_12  and  C10_13 
ROOT
HETATM    1  C6  UNL     1      23.091  -0.338  53.530  1.00  0.00     0.164 A 
HETATM    2  C7  UNL     1      23.260   0.990  53.118  1.00  0.00     0.074 A 
HETATM    3  C8  UNL     1      22.194   1.763  52.646  1.00  0.00     0.026 A 
HETATM    4  C9  UNL     1      22.311   3.071  52.231  1.00  0.00     0.068 A 
HETATM    5  C16 UNL     1      21.226   3.787  51.774  1.00  0.00     0.089 A 
HETATM    6  C17 UNL     1      21.395   5.164  51.346  1.00  0.00     0.103 C 
HETATM    7  N3  UNL     1      21.546   6.242  51.019  1.00  0.00    -0.191 NA
HETATM    8  C18 UNL     1      19.970   3.184  51.725  1.00  0.00     0.142 A 
HETATM    9  N4  UNL     1      19.877   1.902  52.137  1.00  0.00    -0.257 NA
HETATM   10  C19 UNL     1      20.929   1.213  52.578  1.00  0.00     0.086 A 
HETATM   11  C20 UNL     1      20.809  -0.090  52.991  1.00  0.00     0.152 A 
HETATM   12  N5  UNL     1      21.842  -0.819  53.441  1.00  0.00    -0.235 NA
ENDROOT
BRANCH   4  13
HETATM   13  N2  UNL     1      23.584   3.678  52.282  1.00  0.00    -0.354 N 
HETATM   14  H14 UNL     1      23.618   4.116  53.218  1.00  0.00     0.166 HD
BRANCH  13  15
HETATM   15  C10 UNL     1      24.632   3.726  51.327  1.00  0.00     0.033 A 
HETATM   16  C11 UNL     1      25.414   2.596  51.220  1.00  0.00     0.029 A 
HETATM   17  C12 UNL     1      26.449   2.581  50.308  1.00  0.00     0.004 A 
HETATM   18  C13 UNL     1      26.665   3.719  49.521  1.00  0.00     0.019 A 
HETATM   19  C14 UNL     1      25.843   4.816  49.681  1.00  0.00     0.013 A 
HETATM   20 BR1  UNL     1      26.208   6.323  48.572  1.00  0.00    -0.051 Br
HETATM   21  C15 UNL     1      24.801   4.870  50.580  1.00  0.00     0.048 A 
ENDBRANCH  13  15
ENDBRANCH   4  13
BRANCH   1  22
HETATM   22  O1  UNL     1      24.293  -0.837  53.936  1.00  0.00    -0.334 OA
BRANCH  22  23
HETATM   23  C5  UNL     1      25.487  -0.089  54.005  1.00  0.00     0.177 C 
BRANCH  23  24
HETATM   24  C4  UNL     1      26.437  -0.631  52.941  1.00  0.00     0.028 C 
BRANCH  24  25
HETATM   25  C3  UNL     1      27.870  -0.466  53.286  1.00  0.00     0.032 C 
BRANCH  25  26
HETATM   26  C2  UNL     1      28.211   0.167  54.589  1.00  0.00     0.269 C 
BRANCH  26  27
HETATM   27  N1  UNL     1      28.843   1.415  54.605  1.00  0.00     0.079 N 
HETATM   28  C1  UNL     1      28.567   2.331  53.563  1.00  0.00     0.306 C 
HETATM   29  H4  UNL     1      28.787   1.872  55.527  1.00  0.00     0.315 HD
ENDBRANCH  26  27
ENDBRANCH  25  26
ENDBRANCH  24  25
ENDBRANCH  23  24
ENDBRANCH  22  23
ENDBRANCH   1  22
TORSDOF 8
ENDMDL
MODEL 8
REMARK VINA RESULT:      -7.0      2.306      5.719
REMARK  8 active torsions:
REMARK  status: ('A' for Active; 'I' for Inactive)
REMARK    1  A    between atoms: N1_2  and  C2_3 
REMARK    2  A    between atoms: C2_3  and  C3_4 
REMARK    3  A    between atoms: C3_4  and  C4_5 
REMARK    4  A    between atoms: C4_5  and  C5_6 
REMARK    5  A    between atoms: C5_6  and  O1_7 
REMARK    6  A    between atoms: O1_7  and  C6_8 
REMARK    7  A    between atoms: C9_11  and  N2_12 
REMARK    8  A    between atoms: N2_12  and  C10_13 
ROOT
HETATM    1  C6  UNL     1      21.880   0.091  53.672  1.00  0.00     0.164 A 
HETATM    2  C7  UNL     1      22.455   1.044  52.823  1.00  0.00     0.074 A 
HETATM    3  C8  UNL     1      23.830   1.074  52.562  1.00  0.00     0.026 A 
HETATM    4  C9  UNL     1      24.440   1.991  51.734  1.00  0.00     0.068 A 
HETATM    5  C16 UNL     1      25.800   1.974  51.513  1.00  0.00     0.089 A 
HETATM    6  C17 UNL     1      26.402   2.960  50.633  1.00  0.00     0.103 C 
HETATM    7  N3  UNL     1      26.856   3.737  49.938  1.00  0.00    -0.191 NA
HETATM    8  C18 UNL     1      26.591   1.011  52.135  1.00  0.00     0.142 A 
HETATM    9  N4  UNL     1      25.973   0.121  52.941  1.00  0.00    -0.257 NA
HETATM   10  C19 UNL     1      24.657   0.141  53.153  1.00  0.00     0.086 A 
HETATM   11  C20 UNL     1      24.052  -0.774  53.977  1.00  0.00     0.152 A 
HETATM   12  N5  UNL     1      22.732  -0.789  54.218  1.00  0.00    -0.235 NA
ENDROOT
BRANCH   4  13
HETATM   13  N2  UNL     1      23.636   2.965  51.106  1.00  0.00    -0.354 N 
HETATM   14  H14 UNL     1      23.502   3.689  51.832  1.00  0.00     0.166 HD
BRANCH  13  15
HETATM   15  C10 UNL     1      23.094   3.022  49.796  1.00  0.00     0.033 A 
HETATM   16  C11 UNL     1      22.596   1.840  49.289  1.00  0.00     0.029 A 
HETATM   17  C12 UNL     1      22.055   1.830  48.020  1.00  0.00     0.004 A 
HETATM   18  C13 UNL     1      22.030   3.027  47.294  1.00  0.00     0.019 A 
HETATM   19  C14 UNL     1      22.545   4.173  47.863  1.00  0.00     0.013 A 
HETATM   20 BR1  UNL     1      22.473   5.757  46.805  1.00  0.00    -0.051 Br
HETATM   21  C15 UNL     1      23.095   4.223  49.126  1.00  0.00     0.048 A 
ENDBRANCH  13  15
ENDBRANCH   4  13
BRANCH   1  22
HETATM   22  O1  UNL     1      20.535   0.304  53.737  1.00  0.00    -0.334 OA
BRANCH  22  23
HETATM   23  C5  UNL     1      19.556  -0.683  53.501  1.00  0.00     0.177 C 
BRANCH  23  24
HETATM   24  C4  UNL     1      18.549  -0.110  52.508  1.00  0.00     0.028 C 
BRANCH  24  25
HETATM   25  C3  UNL     1      19.146   0.254  51.200  1.00  0.00     0.032 C 
BRANCH  25  26
HETATM   26  C2  UNL     1      19.245   1.697  50.851  1.00  0.00     0.269 C 
BRANCH  26  27
HETATM   27  N1  UNL     1      19.400   2.643  51.871  1.00  0.00     0.079 N 
HETATM   28  C1  UNL     1      20.002   3.886  51.561  1.00  0.00     0.306 C 
HETATM   29  H4  UNL     1      18.537   2.774  52.420  1.00  0.00     0.315 HD
ENDBRANCH  26  27
ENDBRANCH  25  26
ENDBRANCH  24  25
ENDBRANCH  23  24
ENDBRANCH  22  23
ENDBRANCH   1  22
TORSDOF 8
ENDMDL
MODEL 9
REMARK VINA RESULT:      -6.9      2.930      5.337
REMARK  8 active torsions:
REMARK  status: ('A' for Active; 'I' for Inactive)
REMARK    1  A    between atoms: N1_2  and  C2_3 
REMARK    2  A    between atoms: C2_3  and  C3_4 
REMARK    3  A    between atoms: C3_4  and  C4_5 
REMARK    4  A    between atoms: C4_5  and  C5_6 
REMARK    5  A    between atoms: C5_6  and  O1_7 
REMARK    6  A    between atoms: O1_7  and  C6_8 
REMARK    7  A    between atoms: C9_11  and  N2_12 
REMARK    8  A    between atoms: N2_12  and  C10_13 
ROOT
HETATM    1  C6  UNL     1      25.667   3.275  51.064  1.00  0.00     0.164 A 
HETATM    2  C7  UNL     1      24.577   2.696  51.726  1.00  0.00     0.074 A 
HETATM    3  C8  UNL     1      24.687   1.486  52.421  1.00  0.00     0.026 A 
HETATM    4  C9  UNL     1      23.644   0.879  53.086  1.00  0.00     0.068 A 
HETATM    5  C16 UNL     1      23.808  -0.314  53.756  1.00  0.00     0.089 A 
HETATM    6  C17 UNL     1      22.682  -0.919  54.443  1.00  0.00     0.103 C 
HETATM    7  N3  UNL     1      21.789  -1.376  54.979  1.00  0.00    -0.191 NA
HETATM    8  C18 UNL     1      25.056  -0.934  53.769  1.00  0.00     0.142 A 
HETATM    9  N4  UNL     1      26.064  -0.322  53.112  1.00  0.00    -0.257 NA
HETATM   10  C19 UNL     1      25.901   0.831  52.465  1.00  0.00     0.086 A 
HETATM   11  C20 UNL     1      26.941   1.434  51.804  1.00  0.00     0.152 A 
HETATM   12  N5  UNL     1      26.821   2.594  51.141  1.00  0.00    -0.235 NA
ENDROOT
BRANCH   4  13
HETATM   13  N2  UNL     1      22.382   1.511  53.070  1.00  0.00    -0.354 N 
HETATM   14  H14 UNL     1      22.344   2.021  53.968  1.00  0.00     0.166 HD
BRANCH  13  15
HETATM   15  C10 UNL     1      21.349   1.503  52.098  1.00  0.00     0.033 A 
HETATM   16  C11 UNL     1      21.554   0.700  50.996  1.00  0.00     0.029 A 
HETATM   17  C12 UNL     1      20.585   0.650  50.015  1.00  0.00     0.004 A 
HETATM   18  C13 UNL     1      19.425   1.417  50.178  1.00  0.00     0.019 A 
HETATM   19  C14 UNL     1      19.286   2.198  51.307  1.00  0.00     0.013 A 
HETATM   20 BR1  UNL     1      17.679   3.212  51.450  1.00  0.00    -0.051 Br
HETATM   21  C15 UNL     1      20.230   2.276  52.308  1.00  0.00     0.048 A 
ENDBRANCH  13  15
ENDBRANCH   4  13
BRANCH   1  22
HETATM   22  O1  UNL     1      25.268   4.439  50.478  1.00  0.00    -0.334 OA
BRANCH  22  23
HETATM   23  C5  UNL     1      24.020   4.632  49.851  1.00  0.00     0.177 C 
BRANCH  23  24
HETATM   24  C4  UNL     1      24.248   5.502  48.619  1.00  0.00     0.028 C 
BRANCH  24  25
HETATM   25  C3  UNL     1      24.944   6.779  48.916  1.00  0.00     0.032 C 
BRANCH  25  26
HETATM   26  C2  UNL     1      26.350   6.936  48.455  1.00  0.00     0.269 C 
BRANCH  26  27
HETATM   27  N1  UNL     1      27.376   6.264  49.129  1.00  0.00     0.079 N 
HETATM   28  C1  UNL     1      28.020   5.182  48.484  1.00  0.00     0.306 C 
HETATM   29  H4  UNL     1      28.061   6.910  49.547  1.00  0.00     0.315 HD
ENDBRANCH  26  27
ENDBRANCH  25  26
ENDBRANCH  24  25
ENDBRANCH  23  24
ENDBRANCH  22  23
ENDBRANCH   1  22
TORSDOF 8
ENDMDL
