MODEL 1
REMARK VINA RESULT:      -8.4      0.000      0.000
REMARK  2 active torsions:
REMARK  status: ('A' for Active; 'I' for Inactive)
REMARK    1  A    between atoms: C9_11  and  C10_12 
REMARK    2  A    between atoms: C16_19  and  N3_20 
ROOT
HETATM    1  C1  UNL     1      22.575   2.217  50.306  1.00  0.00     0.023 C 
HETATM    2  C2  UNL     1      22.869   2.261  51.819  1.00  0.00     0.092 C 
HETATM    3  C3  UNL     1      21.688   1.796  52.527  1.00  0.00    -0.013 C 
HETATM    4 BR1  UNL     1      20.407   3.148  51.861  1.00  0.00    -0.059 Br
HETATM    5  C4  UNL     1      21.351   0.827  53.364  1.00  0.00     0.057 C 
HETATM    6  C5  UNL     1      20.798  -0.157  54.279  1.00  0.00    -0.019 C 
HETATM    7  C6  UNL     1      21.594  -1.148  54.752  1.00  0.00    -0.011 C 
HETATM    8  C7  UNL     1      22.950  -1.091  54.241  1.00  0.00     0.146 C 
HETATM    9  N1  UNL     1      24.074  -0.854  55.019  1.00  0.00    -0.394 N 
HETATM   10  C8  UNL     1      25.274  -0.714  54.208  1.00  0.00     0.111 C 
HETATM   11  C9  UNL     1      25.730  -0.043  53.118  1.00  0.00     0.059 C 
HETATM   12  N2  UNL     1      24.590   0.659  52.823  1.00  0.00    -0.233 NA
HETATM   13  C16 UNL     1      24.168   1.550  52.065  1.00  0.00     0.164 C 
HETATM   14  H10 UNL     1      24.276  -0.754  56.015  1.00  0.00     0.159 HD
ENDROOT
BRANCH  11  15
HETATM   15  C10 UNL     1      27.111  -0.136  52.507  1.00  0.00     0.065 A 
HETATM   16  C11 UNL     1      27.686  -1.491  52.723  1.00  0.00    -0.016 A 
HETATM   17  C12 UNL     1      28.782  -1.899  53.283  1.00  0.00    -0.004 A 
HETATM   18  C13 UNL     1      29.639  -0.865  53.813  1.00  0.00    -0.004 A 
HETATM   19  C14 UNL     1      29.195   0.361  53.657  1.00  0.00    -0.026 A 
HETATM   20  C15 UNL     1      27.998   0.958  53.056  1.00  0.00     0.042 A 
ENDBRANCH  11  15
BRANCH  13  21
HETATM   21  N3  UNL     1      25.089   2.152  51.140  1.00  0.00    -0.082 NA
HETATM   22  O1  UNL     1      25.678   3.171  51.542  1.00  0.00    -0.059 OA
ENDBRANCH  13  21
TORSDOF 2
ENDMDL
MODEL 2
REMARK VINA RESULT:      -7.9      3.204      4.968
REMARK  2 active torsions:
REMARK  status: ('A' for Active; 'I' for Inactive)
REMARK    1  A    between atoms: C9_11  and  C10_12 
REMARK    2  A    between atoms: C16_19  and  N3_20 
ROOT
HETATM    1  C1  UNL     1      21.654   0.253  51.583  1.00  0.00     0.023 C 
HETATM    2  C2  UNL     1      22.583   1.074  52.501  1.00  0.00     0.092 C 
HETATM    3  C3  UNL     1      23.198   0.167  53.456  1.00  0.00    -0.013 C 
HETATM    4 BR1  UNL     1      21.546  -0.519  54.299  1.00  0.00    -0.059 Br
HETATM    5  C4  UNL     1      24.411  -0.229  53.808  1.00  0.00     0.057 C 
HETATM    6  C5  UNL     1      25.651  -0.779  54.329  1.00  0.00    -0.019 C 
HETATM    7  C6  UNL     1      26.831  -0.397  53.780  1.00  0.00    -0.011 C 
HETATM    8  C7  UNL     1      26.681   0.543  52.687  1.00  0.00     0.146 C 
HETATM    9  N1  UNL     1      27.138   1.852  52.706  1.00  0.00    -0.394 N 
HETATM   10  C8  UNL     1      26.717   2.591  51.525  1.00  0.00     0.111 C 
HETATM   11  C9  UNL     1      25.601   2.857  50.799  1.00  0.00     0.059 C 
HETATM   12  N2  UNL     1      24.702   2.132  51.539  1.00  0.00    -0.233 NA
HETATM   13  C16 UNL     1      23.483   1.906  51.633  1.00  0.00     0.164 C 
HETATM   14  H10 UNL     1      27.695   2.430  53.337  1.00  0.00     0.159 HD
ENDROOT
BRANCH  11  15
HETATM   15  C10 UNL     1      25.510   3.713  49.555  1.00  0.00     0.065 A 
HETATM   16  C11 UNL     1      26.855   3.891  48.946  1.00  0.00    -0.016 A 
HETATM   17  C12 UNL     1      27.551   4.944  48.648  1.00  0.00    -0.004 A 
HETATM   18  C13 UNL     1      26.931   6.212  48.952  1.00  0.00    -0.004 A 
HETATM   19  C14 UNL     1      25.737   6.134  49.492  1.00  0.00    -0.026 A 
HETATM   20  C15 UNL     1      24.848   5.033  49.878  1.00  0.00     0.042 A 
ENDBRANCH  11  15
BRANCH  13  21
HETATM   21  N3  UNL     1      22.590   2.581  50.732  1.00  0.00    -0.082 NA
HETATM   22  O1  UNL     1      22.031   3.598  51.178  1.00  0.00    -0.059 OA
ENDBRANCH  13  21
TORSDOF 2
ENDMDL
MODEL 3
REMARK VINA RESULT:      -7.9      2.008      3.553
REMARK  2 active torsions:
REMARK  status: ('A' for Active; 'I' for Inactive)
REMARK    1  A    between atoms: C9_11  and  C10_12 
REMARK    2  A    between atoms: C16_19  and  N3_20 
ROOT
HETATM    1  C1  UNL     1      20.477   0.094  53.882  1.00  0.00     0.023 C 
HETATM    2  C2  UNL     1      21.352   0.546  52.694  1.00  0.00     0.092 C 
HETATM    3  C3  UNL     1      20.965   1.899  52.333  1.00  0.00    -0.013 C 
HETATM    4 BR1  UNL     1      19.064   1.549  51.915  1.00  0.00    -0.059 Br
HETATM    5  C4  UNL     1      21.518   3.099  52.249  1.00  0.00     0.057 C 
HETATM    6  C5  UNL     1      21.945   4.480  52.096  1.00  0.00    -0.019 C 
HETATM    7  C6  UNL     1      23.221   4.819  52.402  1.00  0.00    -0.011 C 
HETATM    8  C7  UNL     1      24.017   3.703  52.876  1.00  0.00     0.146 C 
HETATM    9  N1  UNL     1      25.119   3.185  52.212  1.00  0.00    -0.394 N 
HETATM   10  C8  UNL     1      25.624   1.982  52.857  1.00  0.00     0.111 C 
HETATM   11  C9  UNL     1      25.188   0.787  53.332  1.00  0.00     0.059 C 
HETATM   12  N2  UNL     1      23.856   0.927  53.037  1.00  0.00    -0.233 NA
HETATM   13  C16 UNL     1      22.788   0.289  53.046  1.00  0.00     0.164 C 
HETATM   14  H10 UNL     1      25.668   3.432  51.387  1.00  0.00     0.159 HD
ENDROOT
BRANCH  11  15
HETATM   15  C10 UNL     1      26.027  -0.294  53.979  1.00  0.00     0.065 A 
HETATM   16  C11 UNL     1      27.095   0.310  54.819  1.00  0.00    -0.016 A 
HETATM   17  C12 UNL     1      28.386   0.191  54.815  1.00  0.00    -0.004 A 
HETATM   18  C13 UNL     1      28.932  -0.693  53.813  1.00  0.00    -0.004 A 
HETATM   19  C14 UNL     1      28.045  -1.266  53.032  1.00  0.00    -0.026 A 
HETATM   20  C15 UNL     1      26.583  -1.223  52.924  1.00  0.00     0.042 A 
ENDBRANCH  11  15
BRANCH  13  21
HETATM   21  N3  UNL     1      22.816  -1.083  53.472  1.00  0.00    -0.082 NA
HETATM   22  O1  UNL     1      22.952  -1.273  54.693  1.00  0.00    -0.059 OA
ENDBRANCH  13  21
TORSDOF 2
ENDMDL
MODEL 4
REMARK VINA RESULT:      -7.6      1.926      3.992
REMARK  2 active torsions:
REMARK  status: ('A' for Active; 'I' for Inactive)
REMARK    1  A    between atoms: C9_11  and  C10_12 
REMARK    2  A    between atoms: C16_19  and  N3_20 
ROOT
HETATM    1  C1  UNL     1      21.429   1.346  52.865  1.00  0.00     0.023 C 
HETATM    2  C2  UNL     1      22.384   1.004  51.703  1.00  0.00     0.092 C 
HETATM    3  C3  UNL     1      22.100   1.905  50.599  1.00  0.00    -0.013 C 
HETATM    4 BR1  UNL     1      20.202   1.424  50.321  1.00  0.00    -0.059 Br
HETATM    5  C4  UNL     1      22.730   2.820  49.879  1.00  0.00     0.057 C 
HETATM    6  C5  UNL     1      23.250   3.845  48.989  1.00  0.00    -0.019 C 
HETATM    7  C6  UNL     1      24.529   4.268  49.137  1.00  0.00    -0.011 C 
HETATM    8  C7  UNL     1      25.230   3.615  50.225  1.00  0.00     0.146 C 
HETATM    9  N1  UNL     1      26.327   2.782  50.066  1.00  0.00    -0.394 N 
HETATM   10  C8  UNL     1      26.726   2.164  51.322  1.00  0.00     0.111 C 
HETATM   11  C9  UNL     1      26.194   1.477  52.366  1.00  0.00     0.059 C 
HETATM   12  N2  UNL     1      24.889   1.452  51.947  1.00  0.00    -0.233 NA
HETATM   13  C16 UNL     1      23.784   0.964  52.243  1.00  0.00     0.164 C 
HETATM   14  H10 UNL     1      26.929   2.491  49.293  1.00  0.00     0.159 HD
ENDROOT
BRANCH  11  15
HETATM   15  C10 UNL     1      26.933   0.952  53.578  1.00  0.00     0.065 A 
HETATM   16  C11 UNL     1      28.160   1.755  53.827  1.00  0.00    -0.016 A 
HETATM   17  C12 UNL     1      29.413   1.434  53.922  1.00  0.00    -0.004 A 
HETATM   18  C13 UNL     1      29.717   0.033  53.760  1.00  0.00    -0.004 A 
HETATM   19  C14 UNL     1      28.679  -0.741  53.538  1.00  0.00    -0.026 A 
HETATM   20  C15 UNL     1      27.235  -0.519  53.407  1.00  0.00     0.042 A 
ENDBRANCH  11  15
BRANCH  13  21
HETATM   21  N3  UNL     1      23.706   0.093  53.384  1.00  0.00    -0.082 NA
HETATM   22  O1  UNL     1      23.783  -1.126  53.146  1.00  0.00    -0.059 OA
ENDBRANCH  13  21
TORSDOF 2
ENDMDL
MODEL 5
REMARK VINA RESULT:      -7.2      3.284      6.194
REMARK  2 active torsions:
REMARK  status: ('A' for Active; 'I' for Inactive)
REMARK    1  A    between atoms: C9_11  and  C10_12 
REMARK    2  A    between atoms: C16_19  and  N3_20 
ROOT
HETATM    1  C1  UNL     1      27.634   1.947  52.676  1.00  0.00     0.023 C 
HETATM    2  C2  UNL     1      26.558   1.331  51.758  1.00  0.00     0.092 C 
HETATM    3  C3  UNL     1      25.808   0.353  52.529  1.00  0.00    -0.013 C 
HETATM    4 BR1  UNL     1      27.309  -0.839  53.014  1.00  0.00    -0.059 Br
HETATM    5  C4  UNL     1      24.558   0.140  52.911  1.00  0.00     0.057 C 
HETATM    6  C5  UNL     1      23.256  -0.258  53.420  1.00  0.00    -0.019 C 
HETATM    7  C6  UNL     1      22.178   0.524  53.172  1.00  0.00    -0.011 C 
HETATM    8  C7  UNL     1      22.492   1.715  52.407  1.00  0.00     0.146 C 
HETATM    9  N1  UNL     1      22.022   1.976  51.129  1.00  0.00    -0.394 N 
HETATM   10  C8  UNL     1      22.620   3.177  50.566  1.00  0.00     0.111 C 
HETATM   11  C9  UNL     1      23.836   3.750  50.374  1.00  0.00     0.059 C 
HETATM   12  N2  UNL     1      24.612   2.772  50.941  1.00  0.00    -0.233 NA
HETATM   13  C16 UNL     1      25.802   2.451  51.105  1.00  0.00     0.164 C 
HETATM   14  H10 UNL     1      21.363   1.541  50.481  1.00  0.00     0.159 HD
ENDROOT
BRANCH  11  15
HETATM   15  C10 UNL     1      24.118   5.084  49.717  1.00  0.00     0.065 A 
HETATM   16  C11 UNL     1      24.488   6.099  50.739  1.00  0.00    -0.016 A 
HETATM   17  C12 UNL     1      23.993   7.260  51.041  1.00  0.00    -0.004 A 
HETATM   18  C13 UNL     1      22.861   7.684  50.253  1.00  0.00    -0.004 A 
HETATM   19  C14 UNL     1      22.477   6.836  49.327  1.00  0.00    -0.026 A 
HETATM   20  C15 UNL     1      22.933   5.514  48.883  1.00  0.00     0.042 A 
ENDBRANCH  11  15
BRANCH  13  21
HETATM   21  N3  UNL     1      26.821   3.295  50.544  1.00  0.00    -0.082 NA
HETATM   22  O1  UNL     1      27.038   3.153  49.328  1.00  0.00    -0.059 OA
ENDBRANCH  13  21
TORSDOF 2
ENDMDL
MODEL 6
REMARK VINA RESULT:      -7.1      3.190      6.237
REMARK  2 active torsions:
REMARK  status: ('A' for Active; 'I' for Inactive)
REMARK    1  A    between atoms: C9_11  and  C10_12 
REMARK    2  A    between atoms: C16_19  and  N3_20 
ROOT
HETATM    1  C1  UNL     1      20.676   0.070  52.331  1.00  0.00     0.023 C 
HETATM    2  C2  UNL     1      21.710   0.953  53.060  1.00  0.00     0.092 C 
HETATM    3  C3  UNL     1      22.838   0.117  53.436  1.00  0.00    -0.013 C 
HETATM    4 BR1  UNL     1      21.866  -1.181  54.568  1.00  0.00    -0.059 Br
HETATM    5  C4  UNL     1      24.141   0.051  53.211  1.00  0.00     0.057 C 
HETATM    6  C5  UNL     1      25.571  -0.181  53.083  1.00  0.00    -0.019 C 
HETATM    7  C6  UNL     1      26.309   0.634  52.291  1.00  0.00    -0.011 C 
HETATM    8  C7  UNL     1      25.528   1.668  51.640  1.00  0.00     0.146 C 
HETATM    9  N1  UNL     1      25.670   3.027  51.875  1.00  0.00    -0.394 N 
HETATM   10  C8  UNL     1      24.656   3.806  51.182  1.00  0.00     0.111 C 
HETATM   11  C9  UNL     1      23.310   3.848  51.002  1.00  0.00     0.059 C 
HETATM   12  N2  UNL     1      22.970   2.762  51.766  1.00  0.00    -0.233 NA
HETATM   13  C16 UNL     1      21.975   2.162  52.212  1.00  0.00     0.164 C 
HETATM   14  H10 UNL     1      26.306   3.622  52.409  1.00  0.00     0.159 HD
ENDROOT
BRANCH  11  15
HETATM   15  C10 UNL     1      22.536   4.849  50.171  1.00  0.00     0.065 A 
HETATM   16  C11 UNL     1      23.138   4.977  48.817  1.00  0.00    -0.016 A 
HETATM   17  C12 UNL     1      23.599   5.993  48.156  1.00  0.00    -0.004 A 
HETATM   18  C13 UNL     1      23.532   7.266  48.833  1.00  0.00    -0.004 A 
HETATM   19  C14 UNL     1      23.008   7.231  50.036  1.00  0.00    -0.026 A 
HETATM   20  C15 UNL     1      22.458   6.175  50.893  1.00  0.00     0.042 A 
ENDBRANCH  11  15
BRANCH  13  21
HETATM   21  N3  UNL     1      20.671   2.688  51.915  1.00  0.00    -0.082 NA
HETATM   22  O1  UNL     1      20.227   3.529  52.715  1.00  0.00    -0.059 OA
ENDBRANCH  13  21
TORSDOF 2
ENDMDL
MODEL 7
REMARK VINA RESULT:      -7.0      3.720      6.019
REMARK  2 active torsions:
REMARK  status: ('A' for Active; 'I' for Inactive)
REMARK    1  A    between atoms: C9_11  and  C10_12 
REMARK    2  A    between atoms: C16_19  and  N3_20 
ROOT
HETATM    1  C1  UNL     1      26.546   5.087  48.583  1.00  0.00     0.023 C 
HETATM    2  C2  UNL     1      26.027   5.390  50.003  1.00  0.00     0.092 C 
HETATM    3  C3  UNL     1      25.313   6.656  49.967  1.00  0.00    -0.013 C 
HETATM    4 BR1  UNL     1      26.796   7.800  49.333  1.00  0.00    -0.059 Br
HETATM    5  C4  UNL     1      24.097   7.115  50.216  1.00  0.00     0.057 C 
HETATM    6  C5  UNL     1      22.834   7.799  50.439  1.00  0.00    -0.019 C 
HETATM    7  C6  UNL     1      21.751   7.085  50.833  1.00  0.00    -0.011 C 
HETATM    8  C7  UNL     1      22.015   5.666  50.971  1.00  0.00     0.146 C 
HETATM    9  N1  UNL     1      21.962   4.969  52.169  1.00  0.00    -0.394 N 
HETATM   10  C8  UNL     1      22.412   3.594  52.016  1.00  0.00     0.111 C 
HETATM   11  C9  UNL     1      23.448   2.882  51.501  1.00  0.00     0.059 C 
HETATM   12  N2  UNL     1      24.192   3.929  51.021  1.00  0.00    -0.233 NA
HETATM   13  C16 UNL     1      25.296   4.178  50.503  1.00  0.00     0.164 C 
HETATM   14  H10 UNL     1      21.686   5.173  53.131  1.00  0.00     0.159 HD
ENDROOT
BRANCH  11  15
HETATM   15  C10 UNL     1      23.612   1.378  51.514  1.00  0.00     0.065 A 
HETATM   16  C11 UNL     1      22.284   0.711  51.571  1.00  0.00    -0.016 A 
HETATM   17  C12 UNL     1      21.767  -0.143  52.400  1.00  0.00    -0.004 A 
HETATM   18  C13 UNL     1      22.615  -0.549  53.494  1.00  0.00    -0.004 A 
HETATM   19  C14 UNL     1      23.808   0.000  53.508  1.00  0.00    -0.026 A 
HETATM   20  C15 UNL     1      24.513   0.962  52.654  1.00  0.00     0.042 A 
ENDBRANCH  11  15
BRANCH  13  21
HETATM   21  N3  UNL     1      26.214   3.092  50.295  1.00  0.00    -0.082 NA
HETATM   22  O1  UNL     1      27.030   2.884  51.210  1.00  0.00    -0.059 OA
ENDBRANCH  13  21
TORSDOF 2
ENDMDL
MODEL 8
REMARK VINA RESULT:      -6.9      2.696      5.877
REMARK  2 active torsions:
REMARK  status: ('A' for Active; 'I' for Inactive)
REMARK    1  A    between atoms: C9_11  and  C10_12 
REMARK    2  A    between atoms: C16_19  and  N3_20 
ROOT
HETATM    1  C1  UNL     1      27.687   2.369  53.413  1.00  0.00     0.023 C 
HETATM    2  C2  UNL     1      26.917   1.245  52.690  1.00  0.00     0.092 C 
HETATM    3  C3  UNL     1      26.598   0.213  53.663  1.00  0.00    -0.013 C 
HETATM    4 BR1  UNL     1      28.441  -0.231  54.223  1.00  0.00    -0.059 Br
HETATM    5  C4  UNL     1      25.524  -0.376  54.166  1.00  0.00     0.057 C 
HETATM    6  C5  UNL     1      24.473  -1.131  54.827  1.00  0.00    -0.019 C 
HETATM    7  C6  UNL     1      23.176  -0.862  54.536  1.00  0.00    -0.011 C 
HETATM    8  C7  UNL     1      23.012   0.204  53.566  1.00  0.00     0.146 C 
HETATM    9  N1  UNL     1      22.470   0.039  52.301  1.00  0.00    -0.394 N 
HETATM   10  C8  UNL     1      22.565   1.255  51.508  1.00  0.00     0.111 C 
HETATM   11  C9  UNL     1      23.473   2.194  51.136  1.00  0.00     0.059 C 
HETATM   12  N2  UNL     1      24.565   1.691  51.796  1.00  0.00    -0.233 NA
HETATM   13  C16 UNL     1      25.789   1.869  51.921  1.00  0.00     0.164 C 
HETATM   14  H10 UNL     1      22.019  -0.717  51.783  1.00  0.00     0.159 HD
ENDROOT
BRANCH  11  15
HETATM   15  C10 UNL     1      23.225   3.397  50.252  1.00  0.00     0.065 A 
HETATM   16  C11 UNL     1      21.835   3.895  50.429  1.00  0.00    -0.016 A 
HETATM   17  C12 UNL     1      20.860   4.087  49.595  1.00  0.00    -0.004 A 
HETATM   18  C13 UNL     1      21.141   3.767  48.216  1.00  0.00    -0.004 A 
HETATM   19  C14 UNL     1      22.354   3.321  47.983  1.00  0.00    -0.026 A 
HETATM   20  C15 UNL     1      23.535   3.058  48.812  1.00  0.00     0.042 A 
ENDBRANCH  11  15
BRANCH  13  21
HETATM   21  N3  UNL     1      26.410   2.916  51.156  1.00  0.00    -0.082 NA
HETATM   22  O1  UNL     1      26.842   2.591  50.037  1.00  0.00    -0.059 OA
ENDBRANCH  13  21
TORSDOF 2
ENDMDL
MODEL 9
REMARK VINA RESULT:      -6.9      3.061      6.892
REMARK  2 active torsions:
REMARK  status: ('A' for Active; 'I' for Inactive)
REMARK    1  A    between atoms: C9_11  and  C10_12 
REMARK    2  A    between atoms: C16_19  and  N3_20 
ROOT
HETATM    1  C1  UNL     1      26.536  -0.447  52.533  1.00  0.00     0.023 C 
HETATM    2  C2  UNL     1      25.829   0.913  52.709  1.00  0.00     0.092 C 
HETATM    3  C3  UNL     1      26.654   1.938  52.091  1.00  0.00    -0.013 C 
HETATM    4 BR1  UNL     1      28.290   1.675  53.169  1.00  0.00    -0.059 Br
HETATM    5  C4  UNL     1      26.557   2.839  51.126  1.00  0.00     0.057 C 
HETATM    6  C5  UNL     1      26.638   3.880  50.114  1.00  0.00    -0.019 C 
HETATM    7  C6  UNL     1      25.577   4.099  49.299  1.00  0.00    -0.011 C 
HETATM    8  C7  UNL     1      24.459   3.213  49.556  1.00  0.00     0.146 C 
HETATM    9  N1  UNL     1      23.219   3.624  50.020  1.00  0.00    -0.394 N 
HETATM   10  C8  UNL     1      22.349   2.497  50.315  1.00  0.00     0.111 C 
HETATM   11  C9  UNL     1      22.354   1.319  50.993  1.00  0.00     0.059 C 
HETATM   12  N2  UNL     1      23.636   1.371  51.476  1.00  0.00    -0.233 NA
HETATM   13  C16 UNL     1      24.410   0.768  52.241  1.00  0.00     0.164 C 
HETATM   14  H10 UNL     1      22.759   4.517  50.207  1.00  0.00     0.159 HD
ENDROOT
BRANCH  11  15
HETATM   15  C10 UNL     1      21.215   0.329  51.102  1.00  0.00     0.065 A 
HETATM   16  C11 UNL     1      20.204   0.582  50.041  1.00  0.00    -0.016 A 
HETATM   17  C12 UNL     1      18.931   0.829  50.084  1.00  0.00    -0.004 A 
HETATM   18  C13 UNL     1      18.345   0.876  51.402  1.00  0.00    -0.004 A 
HETATM   19  C14 UNL     1      19.180   0.659  52.392  1.00  0.00    -0.026 A 
HETATM   20  C15 UNL     1      20.616   0.374  52.489  1.00  0.00     0.042 A 
ENDBRANCH  11  15
BRANCH  13  21
HETATM   21  N3  UNL     1      23.917  -0.388  52.939  1.00  0.00    -0.082 NA
HETATM   22  O1  UNL     1      23.627  -0.221  54.136  1.00  0.00    -0.059 OA
ENDBRANCH  13  21
TORSDOF 2
ENDMDL
