MODEL 1
REMARK VINA RESULT:      -8.7      0.000      0.000
REMARK  5 active torsions:
REMARK  status: ('A' for Active; 'I' for Inactive)
REMARK    1  A    between atoms: C2_2  and  N1_3 
REMARK    2  A    between atoms: C2_2  and  C13_17 
REMARK    3  A    between atoms: C5_6  and  N2_7 
REMARK    4  A    between atoms: C13_17  and  N4_18 
REMARK    5  A    between atoms: N4_18  and  C14_19 
ROOT
HETATM    1  C13 UNL     1      22.985   2.377  50.962  1.00  0.00     0.174 A 
HETATM    2  C20 UNL     1      22.374   1.060  50.755  1.00  0.00     0.037 A 
HETATM    3  C21 UNL     1      21.074   1.068  51.087  1.00  0.00     0.090 A 
HETATM    4  N5  UNL     1      20.705   2.385  51.543  1.00  0.00    -0.335 N 
HETATM    5  C22 UNL     1      21.862   3.206  51.475  1.00  0.00     0.260 A 
HETATM    6  O2  UNL     1      22.167   4.393  51.725  1.00  0.00    -0.270 OA
HETATM    7  H24 UNL     1      19.863   2.888  51.895  1.00  0.00     0.168 HD
ENDROOT
BRANCH   1   8
HETATM    8  C2  UNL     1      23.453   2.892  49.632  1.00  0.00     0.044 C 
HETATM    9  C1  UNL     1      22.942   2.561  48.456  1.00  0.00     0.042 C 
BRANCH   8  10
HETATM   10  N1  UNL     1      24.533   3.814  49.381  1.00  0.00    -0.354 N 
HETATM   11  C3  UNL     1      25.893   3.411  49.501  1.00  0.00     0.093 A 
HETATM   12  C4  UNL     1      26.820   4.319  49.248  1.00  0.00     0.046 A 
HETATM   13  C5  UNL     1      26.568   5.694  48.859  1.00  0.00     0.036 A 
HETATM   14  C11 UNL     1      25.280   5.974  48.775  1.00  0.00     0.023 A 
HETATM   15  C12 UNL     1      24.080   5.139  49.007  1.00  0.00     0.158 A 
BRANCH  13  16
HETATM   16  N2  UNL     1      27.560   6.666  48.601  1.00  0.00    -0.315 N 
HETATM   17  C6  UNL     1      28.767   6.407  47.863  1.00  0.00     0.162 C 
HETATM   18  C7  UNL     1      29.197   7.591  47.005  1.00  0.00     0.292 C 
HETATM   19  N3  UNL     1      29.290   8.804  47.752  1.00  0.00     0.094 N 
HETATM   20  C8  UNL     1      30.129   8.559  48.903  1.00  0.00     0.310 C 
HETATM   21  C9  UNL     1      27.943   9.114  48.216  1.00  0.00     0.374 C 
HETATM   22  C10 UNL     1      27.414   7.996  49.057  1.00  0.00     0.252 C 
HETATM   23  O1  UNL     1      26.846   8.251  50.163  1.00  0.00    -0.271 OA
ENDBRANCH  13  16
ENDBRANCH   8  10
ENDBRANCH   1   8
BRANCH   1  24
HETATM   24  N4  UNL     1      24.107   2.387  51.855  1.00  0.00    -0.364 N 
HETATM   25  H17 UNL     1      24.442   3.345  52.164  1.00  0.00     0.161 HD
BRANCH  24  26
HETATM   26  C14 UNL     1      24.800   1.278  52.353  1.00  0.00     0.031 A 
HETATM   27  C15 UNL     1      25.932   0.732  51.808  1.00  0.00     0.029 A 
HETATM   28  C16 UNL     1      26.629  -0.357  52.288  1.00  0.00     0.004 A 
HETATM   29  C17 UNL     1      26.143  -0.961  53.426  1.00  0.00     0.024 A 
HETATM   30  C18 UNL     1      25.008  -0.474  54.037  1.00  0.00     0.036 A 
HETATM   31 CL1  UNL     1      24.402  -1.245  55.479  1.00  0.00    -0.084 Cl
HETATM   32  C19 UNL     1      24.374   0.620  53.489  1.00  0.00     0.053 A 
ENDBRANCH  24  26
ENDBRANCH   1  24
TORSDOF 5
ENDMDL
MODEL 2
REMARK VINA RESULT:      -8.7      1.430      1.753
REMARK  5 active torsions:
REMARK  status: ('A' for Active; 'I' for Inactive)
REMARK    1  A    between atoms: C2_2  and  N1_3 
REMARK    2  A    between atoms: C2_2  and  C13_17 
REMARK    3  A    between atoms: C5_6  and  N2_7 
REMARK    4  A    between atoms: C13_17  and  N4_18 
REMARK    5  A    between atoms: N4_18  and  C14_19 
ROOT
HETATM    1  C13 UNL     1      23.764   3.493  51.369  1.00  0.00     0.174 A 
HETATM    2  C20 UNL     1      22.720   2.464  51.393  1.00  0.00     0.037 A 
HETATM    3  C21 UNL     1      21.588   2.930  51.944  1.00  0.00     0.090 A 
HETATM    4  N5  UNL     1      21.777   4.304  52.334  1.00  0.00    -0.335 N 
HETATM    5  C22 UNL     1      23.107   4.672  51.992  1.00  0.00     0.260 A 
HETATM    6  O2  UNL     1      23.833   5.686  52.075  1.00  0.00    -0.270 OA
HETATM    7  H24 UNL     1      21.239   5.077  52.780  1.00  0.00     0.168 HD
ENDROOT
BRANCH   1   8
HETATM    8  C2  UNL     1      24.109   3.780  49.936  1.00  0.00     0.044 C 
HETATM    9  C1  UNL     1      23.392   3.413  48.885  1.00  0.00     0.042 C 
BRANCH   8  10
HETATM   10  N1  UNL     1      25.267   4.479  49.437  1.00  0.00    -0.354 N 
HETATM   11  C3  UNL     1      26.528   3.831  49.315  1.00  0.00     0.093 A 
HETATM   12  C4  UNL     1      27.535   4.546  48.844  1.00  0.00     0.046 A 
HETATM   13  C5  UNL     1      27.464   5.938  48.442  1.00  0.00     0.036 A 
HETATM   14  C11 UNL     1      26.257   6.454  48.593  1.00  0.00     0.023 A 
HETATM   15  C12 UNL     1      24.996   5.861  49.092  1.00  0.00     0.158 A 
BRANCH  13  16
HETATM   16  N2  UNL     1      28.545   6.704  47.951  1.00  0.00    -0.315 N 
HETATM   17  C6  UNL     1      28.424   7.696  46.917  1.00  0.00     0.162 C 
HETATM   18  C7  UNL     1      29.342   8.893  47.140  1.00  0.00     0.292 C 
HETATM   19  N3  UNL     1      30.702   8.508  47.340  1.00  0.00     0.094 N 
HETATM   20  C8  UNL     1      31.091   7.646  46.248  1.00  0.00     0.310 C 
HETATM   21  C9  UNL     1      30.742   7.737  48.577  1.00  0.00     0.374 C 
HETATM   22  C10 UNL     1      29.849   6.542  48.472  1.00  0.00     0.252 C 
HETATM   23  O1  UNL     1      30.269   5.405  48.846  1.00  0.00    -0.271 OA
ENDBRANCH  13  16
ENDBRANCH   8  10
ENDBRANCH   1   8
BRANCH   1  24
HETATM   24  N4  UNL     1      24.976   3.138  52.048  1.00  0.00    -0.364 N 
HETATM   25  H17 UNL     1      25.587   3.948  52.355  1.00  0.00     0.161 HD
BRANCH  24  26
HETATM   26  C14 UNL     1      25.432   1.848  52.342  1.00  0.00     0.031 A 
HETATM   27  C15 UNL     1      26.383   1.157  51.638  1.00  0.00     0.029 A 
HETATM   28  C16 UNL     1      26.847  -0.112  51.915  1.00  0.00     0.004 A 
HETATM   29  C17 UNL     1      26.304  -0.754  53.006  1.00  0.00     0.024 A 
HETATM   30  C18 UNL     1      25.341  -0.129  53.767  1.00  0.00     0.036 A 
HETATM   31 CL1  UNL     1      24.660  -0.949  55.148  1.00  0.00    -0.084 Cl
HETATM   32  C19 UNL     1      24.936   1.141  53.417  1.00  0.00     0.053 A 
ENDBRANCH  24  26
ENDBRANCH   1  24
TORSDOF 5
ENDMDL
MODEL 3
REMARK VINA RESULT:      -8.7      2.239      3.146
REMARK  5 active torsions:
REMARK  status: ('A' for Active; 'I' for Inactive)
REMARK    1  A    between atoms: C2_2  and  N1_3 
REMARK    2  A    between atoms: C2_2  and  C13_17 
REMARK    3  A    between atoms: C5_6  and  N2_7 
REMARK    4  A    between atoms: C13_17  and  N4_18 
REMARK    5  A    between atoms: N4_18  and  C14_19 
ROOT
HETATM    1  C13 UNL     1      24.110   2.362  51.618  1.00  0.00     0.174 A 
HETATM    2  C20 UNL     1      23.533   3.249  52.633  1.00  0.00     0.037 A 
HETATM    3  C21 UNL     1      24.432   3.555  53.582  1.00  0.00     0.090 A 
HETATM    4  N5  UNL     1      25.682   2.901  53.284  1.00  0.00    -0.335 N 
HETATM    5  C22 UNL     1      25.509   2.163  52.083  1.00  0.00     0.260 A 
HETATM    6  O2  UNL     1      26.197   1.421  51.349  1.00  0.00    -0.270 OA
HETATM    7  H24 UNL     1      26.641   2.818  53.684  1.00  0.00     0.168 HD
ENDROOT
BRANCH   1   8
HETATM    8  C2  UNL     1      24.093   3.081  50.300  1.00  0.00     0.044 C 
HETATM    9  C1  UNL     1      23.393   2.719  49.236  1.00  0.00     0.042 C 
BRANCH   8  10
HETATM   10  N1  UNL     1      24.827   4.269  49.941  1.00  0.00    -0.354 N 
HETATM   11  C3  UNL     1      26.091   4.189  49.291  1.00  0.00     0.093 A 
HETATM   12  C4  UNL     1      26.694   5.327  48.994  1.00  0.00     0.046 A 
HETATM   13  C5  UNL     1      26.175   6.653  49.273  1.00  0.00     0.036 A 
HETATM   14  C11 UNL     1      25.001   6.626  49.877  1.00  0.00     0.023 A 
HETATM   15  C12 UNL     1      24.147   5.496  50.306  1.00  0.00     0.158 A 
BRANCH  13  16
HETATM   16  N2  UNL     1      26.827   7.868  48.965  1.00  0.00    -0.315 N 
HETATM   17  C6  UNL     1      27.319   8.790  49.952  1.00  0.00     0.162 C 
HETATM   18  C7  UNL     1      28.618   9.466  49.530  1.00  0.00     0.292 C 
HETATM   19  N3  UNL     1      28.522  10.079  48.243  1.00  0.00     0.094 N 
HETATM   20  C8  UNL     1      27.365  10.944  48.242  1.00  0.00     0.310 C 
HETATM   21  C9  UNL     1      28.300   9.004  47.284  1.00  0.00     0.374 C 
HETATM   22  C10 UNL     1      27.050   8.255  47.624  1.00  0.00     0.252 C 
HETATM   23  O1  UNL     1      26.211   7.980  46.713  1.00  0.00    -0.271 OA
ENDBRANCH  13  16
ENDBRANCH   8  10
ENDBRANCH   1   8
BRANCH   1  24
HETATM   24  N4  UNL     1      23.423   1.116  51.445  1.00  0.00    -0.364 N 
HETATM   25  H17 UNL     1      23.432   0.716  50.463  1.00  0.00     0.161 HD
BRANCH  24  26
HETATM   26  C14 UNL     1      22.747   0.382  52.427  1.00  0.00     0.031 A 
HETATM   27  C15 UNL     1      23.324  -0.218  53.515  1.00  0.00     0.029 A 
HETATM   28  C16 UNL     1      22.673  -0.941  54.493  1.00  0.00     0.004 A 
HETATM   29  C17 UNL     1      21.309  -1.079  54.368  1.00  0.00     0.024 A 
HETATM   30  C18 UNL     1      20.651  -0.506  53.301  1.00  0.00     0.036 A 
HETATM   31 CL1  UNL     1      18.922  -0.684  53.153  1.00  0.00    -0.084 Cl
HETATM   32  C19 UNL     1      21.380   0.200  52.370  1.00  0.00     0.053 A 
ENDBRANCH  24  26
ENDBRANCH   1  24
TORSDOF 5
ENDMDL
MODEL 4
REMARK VINA RESULT:      -8.7      1.974      2.795
REMARK  5 active torsions:
REMARK  status: ('A' for Active; 'I' for Inactive)
REMARK    1  A    between atoms: C2_2  and  N1_3 
REMARK    2  A    between atoms: C2_2  and  C13_17 
REMARK    3  A    between atoms: C5_6  and  N2_7 
REMARK    4  A    between atoms: C13_17  and  N4_18 
REMARK    5  A    between atoms: N4_18  and  C14_19 
ROOT
HETATM    1  C13 UNL     1      23.735   2.501  51.360  1.00  0.00     0.174 A 
HETATM    2  C20 UNL     1      23.035   3.545  52.115  1.00  0.00     0.037 A 
HETATM    3  C21 UNL     1      23.760   3.956  53.167  1.00  0.00     0.090 A 
HETATM    4  N5  UNL     1      25.003   3.226  53.205  1.00  0.00    -0.335 N 
HETATM    5  C22 UNL     1      25.010   2.326  52.105  1.00  0.00     0.260 A 
HETATM    6  O2  UNL     1      25.777   1.464  51.624  1.00  0.00    -0.270 OA
HETATM    7  H24 UNL     1      25.865   3.171  53.787  1.00  0.00     0.168 HD
ENDROOT
BRANCH   1   8
HETATM    8  C2  UNL     1      24.002   3.021  49.977  1.00  0.00     0.044 C 
HETATM    9  C1  UNL     1      23.367   2.644  48.878  1.00  0.00     0.042 C 
BRANCH   8  10
HETATM   10  N1  UNL     1      24.988   3.996  49.583  1.00  0.00    -0.354 N 
HETATM   11  C3  UNL     1      26.350   3.632  49.382  1.00  0.00     0.093 A 
HETATM   12  C4  UNL     1      27.186   4.589  49.018  1.00  0.00     0.046 A 
HETATM   13  C5  UNL     1      26.834   5.980  48.805  1.00  0.00     0.036 A 
HETATM   14  C11 UNL     1      25.552   6.222  49.016  1.00  0.00     0.023 A 
HETATM   15  C12 UNL     1      24.443   5.330  49.424  1.00  0.00     0.158 A 
BRANCH  13  16
HETATM   16  N2  UNL     1      27.732   7.003  48.428  1.00  0.00    -0.315 N 
HETATM   17  C6  UNL     1      28.847   6.807  47.542  1.00  0.00     0.162 C 
HETATM   18  C7  UNL     1      29.101   8.010  46.641  1.00  0.00     0.292 C 
HETATM   19  N3  UNL     1      29.224   9.228  47.376  1.00  0.00     0.094 N 
HETATM   20  C8  UNL     1      30.214   9.031  48.410  1.00  0.00     0.310 C 
HETATM   21  C9  UNL     1      27.932   9.467  48.009  1.00  0.00     0.374 C 
HETATM   22  C10 UNL     1      27.575   8.324  48.906  1.00  0.00     0.252 C 
HETATM   23  O1  UNL     1      27.140   8.551  50.075  1.00  0.00    -0.271 OA
ENDBRANCH  13  16
ENDBRANCH   8  10
ENDBRANCH   1   8
BRANCH   1  24
HETATM   24  N4  UNL     1      23.018   1.266  51.232  1.00  0.00    -0.364 N 
HETATM   25  H17 UNL     1      22.974   0.857  50.254  1.00  0.00     0.161 HD
BRANCH  24  26
HETATM   26  C14 UNL     1      22.377   0.552  52.251  1.00  0.00     0.031 A 
HETATM   27  C15 UNL     1      22.976   0.063  53.382  1.00  0.00     0.029 A 
HETATM   28  C16 UNL     1      22.360  -0.638  54.397  1.00  0.00     0.004 A 
HETATM   29  C17 UNL     1      21.009  -0.874  54.267  1.00  0.00     0.024 A 
HETATM   30  C18 UNL     1      20.331  -0.415  53.158  1.00  0.00     0.036 A 
HETATM   31 CL1  UNL     1      18.621  -0.717  53.003  1.00  0.00    -0.084 Cl
HETATM   32  C19 UNL     1      21.027   0.277  52.191  1.00  0.00     0.053 A 
ENDBRANCH  24  26
ENDBRANCH   1  24
TORSDOF 5
ENDMDL
MODEL 5
REMARK VINA RESULT:      -8.7      1.611      2.624
REMARK  5 active torsions:
REMARK  status: ('A' for Active; 'I' for Inactive)
REMARK    1  A    between atoms: C2_2  and  N1_3 
REMARK    2  A    between atoms: C2_2  and  C13_17 
REMARK    3  A    between atoms: C5_6  and  N2_7 
REMARK    4  A    between atoms: C13_17  and  N4_18 
REMARK    5  A    between atoms: N4_18  and  C14_19 
ROOT
HETATM    1  C13 UNL     1      23.703   2.536  51.288  1.00  0.00     0.174 A 
HETATM    2  C20 UNL     1      23.021   3.593  52.041  1.00  0.00     0.037 A 
HETATM    3  C21 UNL     1      23.750   3.990  53.094  1.00  0.00     0.090 A 
HETATM    4  N5  UNL     1      24.979   3.237  53.137  1.00  0.00    -0.335 N 
HETATM    5  C22 UNL     1      24.972   2.337  52.037  1.00  0.00     0.260 A 
HETATM    6  O2  UNL     1      25.724   1.460  51.559  1.00  0.00    -0.270 OA
HETATM    7  H24 UNL     1      25.838   3.165  53.722  1.00  0.00     0.168 HD
ENDROOT
BRANCH   1   8
HETATM    8  C2  UNL     1      23.985   3.051  49.906  1.00  0.00     0.044 C 
HETATM    9  C1  UNL     1      23.364   2.666  48.801  1.00  0.00     0.042 C 
BRANCH   8  10
HETATM   10  N1  UNL     1      24.972   4.028  49.519  1.00  0.00    -0.354 N 
HETATM   11  C3  UNL     1      26.346   3.681  49.393  1.00  0.00     0.093 A 
HETATM   12  C4  UNL     1      27.183   4.639  49.030  1.00  0.00     0.046 A 
HETATM   13  C5  UNL     1      26.818   6.014  48.749  1.00  0.00     0.036 A 
HETATM   14  C11 UNL     1      25.525   6.240  48.893  1.00  0.00     0.023 A 
HETATM   15  C12 UNL     1      24.413   5.345  49.285  1.00  0.00     0.158 A 
BRANCH  13  16
HETATM   16  N2  UNL     1      27.715   7.038  48.372  1.00  0.00    -0.315 N 
HETATM   17  C6  UNL     1      28.814   6.851  47.463  1.00  0.00     0.162 C 
HETATM   18  C7  UNL     1      29.059   8.068  46.578  1.00  0.00     0.292 C 
HETATM   19  N3  UNL     1      29.202   9.272  47.332  1.00  0.00     0.094 N 
HETATM   20  C8  UNL     1      30.209   9.051  48.344  1.00  0.00     0.310 C 
HETATM   21  C9  UNL     1      27.924   9.508  47.992  1.00  0.00     0.374 C 
HETATM   22  C10 UNL     1      27.576   8.352  48.875  1.00  0.00     0.252 C 
HETATM   23  O1  UNL     1      27.163   8.561  50.056  1.00  0.00    -0.271 OA
ENDBRANCH  13  16
ENDBRANCH   8  10
ENDBRANCH   1   8
BRANCH   1  24
HETATM   24  N4  UNL     1      22.963   1.315  51.157  1.00  0.00    -0.364 N 
HETATM   25  H17 UNL     1      22.970   0.872  50.194  1.00  0.00     0.161 HD
BRANCH  24  26
HETATM   26  C14 UNL     1      22.239   0.656  52.158  1.00  0.00     0.031 A 
HETATM   27  C15 UNL     1      20.875   0.556  52.222  1.00  0.00     0.029 A 
HETATM   28  C16 UNL     1      20.145  -0.093  53.196  1.00  0.00     0.004 A 
HETATM   29  C17 UNL     1      20.854  -0.701  54.208  1.00  0.00     0.024 A 
HETATM   30  C18 UNL     1      22.230  -0.648  54.218  1.00  0.00     0.036 A 
HETATM   31 CL1  UNL     1      23.119  -1.423  55.503  1.00  0.00    -0.084 Cl
HETATM   32  C19 UNL     1      22.878   0.023  53.204  1.00  0.00     0.053 A 
ENDBRANCH  24  26
ENDBRANCH   1  24
TORSDOF 5
ENDMDL
MODEL 6
REMARK VINA RESULT:      -8.6      3.580      8.906
REMARK  5 active torsions:
REMARK  status: ('A' for Active; 'I' for Inactive)
REMARK    1  A    between atoms: C2_2  and  N1_3 
REMARK    2  A    between atoms: C2_2  and  C13_17 
REMARK    3  A    between atoms: C5_6  and  N2_7 
REMARK    4  A    between atoms: C13_17  and  N4_18 
REMARK    5  A    between atoms: N4_18  and  C14_19 
ROOT
HETATM    1  C13 UNL     1      25.098   1.658  52.231  1.00  0.00     0.174 A 
HETATM    2  C20 UNL     1      26.384   0.962  52.131  1.00  0.00     0.037 A 
HETATM    3  C21 UNL     1      27.269   1.442  53.019  1.00  0.00     0.090 A 
HETATM    4  N5  UNL     1      26.652   2.495  53.786  1.00  0.00    -0.335 N 
HETATM    5  C22 UNL     1      25.319   2.647  53.319  1.00  0.00     0.260 A 
HETATM    6  O2  UNL     1      24.328   3.365  53.576  1.00  0.00    -0.270 OA
HETATM    7  H24 UNL     1      26.896   3.154  54.555  1.00  0.00     0.168 HD
ENDROOT
BRANCH   1   8
HETATM    8  C2  UNL     1      24.052   0.659  52.633  1.00  0.00     0.044 C 
HETATM    9  C1  UNL     1      24.274  -0.450  53.323  1.00  0.00     0.042 C 
BRANCH   8  10
HETATM   10  N1  UNL     1      22.641   0.702  52.343  1.00  0.00    -0.354 N 
HETATM   11  C3  UNL     1      22.156   0.601  51.009  1.00  0.00     0.093 A 
HETATM   12  C4  UNL     1      20.847   0.646  50.833  1.00  0.00     0.046 A 
HETATM   13  C5  UNL     1      19.860   0.791  51.887  1.00  0.00     0.036 A 
HETATM   14  C11 UNL     1      20.403   0.878  53.088  1.00  0.00     0.023 A 
HETATM   15  C12 UNL     1      21.817   0.855  53.526  1.00  0.00     0.158 A 
BRANCH  13  16
HETATM   16  N2  UNL     1      18.462   0.851  51.695  1.00  0.00    -0.315 N 
HETATM   17  C6  UNL     1      17.735   2.066  51.447  1.00  0.00     0.162 C 
HETATM   18  C7  UNL     1      16.573   1.870  50.481  1.00  0.00     0.292 C 
HETATM   19  N3  UNL     1      15.702   0.812  50.881  1.00  0.00     0.094 N 
HETATM   20  C8  UNL     1      15.312   1.045  52.252  1.00  0.00     0.310 C 
HETATM   21  C9  UNL     1      16.483  -0.418  50.823  1.00  0.00     0.374 C 
HETATM   22  C10 UNL     1      17.671  -0.321  51.726  1.00  0.00     0.252 C 
HETATM   23  O1  UNL     1      17.953  -1.282  52.505  1.00  0.00    -0.271 OA
ENDBRANCH  13  16
ENDBRANCH   8  10
ENDBRANCH   1   8
BRANCH   1  24
HETATM   24  N4  UNL     1      24.657   2.288  51.020  1.00  0.00    -0.364 N 
HETATM   25  H17 UNL     1      23.759   1.909  50.604  1.00  0.00     0.161 HD
BRANCH  24  26
HETATM   26  C14 UNL     1      25.284   3.337  50.338  1.00  0.00     0.031 A 
HETATM   27  C15 UNL     1      26.500   3.268  49.710  1.00  0.00     0.029 A 
HETATM   28  C16 UNL     1      27.130   4.289  49.030  1.00  0.00     0.004 A 
HETATM   29  C17 UNL     1      26.478   5.501  48.975  1.00  0.00     0.024 A 
HETATM   30  C18 UNL     1      25.250   5.655  49.581  1.00  0.00     0.036 A 
HETATM   31 CL1  UNL     1      24.432   7.193  49.504  1.00  0.00    -0.084 Cl
HETATM   32  C19 UNL     1      24.694   4.580  50.239  1.00  0.00     0.053 A 
ENDBRANCH  24  26
ENDBRANCH   1  24
TORSDOF 5
ENDMDL
MODEL 7
REMARK VINA RESULT:      -8.5      4.003      5.993
REMARK  5 active torsions:
REMARK  status: ('A' for Active; 'I' for Inactive)
REMARK    1  A    between atoms: C2_2  and  N1_3 
REMARK    2  A    between atoms: C2_2  and  C13_17 
REMARK    3  A    between atoms: C5_6  and  N2_7 
REMARK    4  A    between atoms: C13_17  and  N4_18 
REMARK    5  A    between atoms: N4_18  and  C14_19 
ROOT
HETATM    1  C13 UNL     1      21.343   3.265  50.197  1.00  0.00     0.174 A 
HETATM    2  C20 UNL     1      21.793   2.029  49.549  1.00  0.00     0.037 A 
HETATM    3  C21 UNL     1      21.526   2.042  48.234  1.00  0.00     0.090 A 
HETATM    4  N5  UNL     1      20.877   3.283  47.891  1.00  0.00    -0.335 N 
HETATM    5  C22 UNL     1      20.753   4.050  49.080  1.00  0.00     0.260 A 
HETATM    6  O2  UNL     1      20.297   5.164  49.415  1.00  0.00    -0.270 OA
HETATM    7  H24 UNL     1      20.486   3.760  47.051  1.00  0.00     0.168 HD
ENDROOT
BRANCH   1   8
HETATM    8  C2  UNL     1      22.546   3.968  50.755  1.00  0.00     0.044 C 
HETATM    9  C1  UNL     1      22.700   5.282  50.836  1.00  0.00     0.042 C 
BRANCH   8  10
HETATM   10  N1  UNL     1      23.745   3.368  51.284  1.00  0.00    -0.354 N 
HETATM   11  C3  UNL     1      24.853   3.065  50.445  1.00  0.00     0.093 A 
HETATM   12  C4  UNL     1      25.914   2.519  51.014  1.00  0.00     0.046 A 
HETATM   13  C5  UNL     1      26.045   2.202  52.423  1.00  0.00     0.036 A 
HETATM   14  C11 UNL     1      24.968   2.517  53.120  1.00  0.00     0.023 A 
HETATM   15  C12 UNL     1      23.682   3.125  52.712  1.00  0.00     0.158 A 
BRANCH  13  16
HETATM   16  N2  UNL     1      27.175   1.607  53.027  1.00  0.00    -0.315 N 
HETATM   17  C6  UNL     1      28.456   2.250  53.145  1.00  0.00     0.162 C 
HETATM   18  C7  UNL     1      29.171   1.905  54.446  1.00  0.00     0.292 C 
HETATM   19  N3  UNL     1      29.271   0.496  54.657  1.00  0.00     0.094 N 
HETATM   20  C8  UNL     1      29.854  -0.095  53.475  1.00  0.00     0.310 C 
HETATM   21  C9  UNL     1      27.909  -0.003  54.803  1.00  0.00     0.374 C 
HETATM   22  C10 UNL     1      27.109   0.307  53.578  1.00  0.00     0.252 C 
HETATM   23  O1  UNL     1      26.386  -0.592  53.051  1.00  0.00    -0.271 OA
ENDBRANCH  13  16
ENDBRANCH   8  10
ENDBRANCH   1   8
BRANCH   1  24
HETATM   24  N4  UNL     1      20.409   3.078  51.269  1.00  0.00    -0.364 N 
HETATM   25  H17 UNL     1      19.954   3.960  51.644  1.00  0.00     0.161 HD
BRANCH  24  26
HETATM   26  C14 UNL     1      20.041   1.867  51.867  1.00  0.00     0.031 A 
HETATM   27  C15 UNL     1      19.003   1.066  51.473  1.00  0.00     0.029 A 
HETATM   28  C16 UNL     1      18.628  -0.132  52.047  1.00  0.00     0.004 A 
HETATM   29  C17 UNL     1      19.368  -0.569  53.124  1.00  0.00     0.024 A 
HETATM   30  C18 UNL     1      20.430   0.179  53.583  1.00  0.00     0.036 A 
HETATM   31 CL1  UNL     1      21.361  -0.384  54.946  1.00  0.00    -0.084 Cl
HETATM   32  C19 UNL     1      20.733   1.364  52.949  1.00  0.00     0.053 A 
ENDBRANCH  24  26
ENDBRANCH   1  24
TORSDOF 5
ENDMDL
MODEL 8
REMARK VINA RESULT:      -8.2      3.553      5.498
REMARK  5 active torsions:
REMARK  status: ('A' for Active; 'I' for Inactive)
REMARK    1  A    between atoms: C2_2  and  N1_3 
REMARK    2  A    between atoms: C2_2  and  C13_17 
REMARK    3  A    between atoms: C5_6  and  N2_7 
REMARK    4  A    between atoms: C13_17  and  N4_18 
REMARK    5  A    between atoms: N4_18  and  C14_19 
ROOT
HETATM    1  C13 UNL     1      24.720   2.738  51.567  1.00  0.00     0.174 A 
HETATM    2  C20 UNL     1      24.204   1.368  51.491  1.00  0.00     0.037 A 
HETATM    3  C21 UNL     1      22.959   1.287  51.984  1.00  0.00     0.090 A 
HETATM    4  N5  UNL     1      22.535   2.591  52.429  1.00  0.00    -0.335 N 
HETATM    5  C22 UNL     1      23.601   3.499  52.184  1.00  0.00     0.260 A 
HETATM    6  O2  UNL     1      23.830   4.717  52.346  1.00  0.00    -0.270 OA
HETATM    7  H24 UNL     1      21.703   3.041  52.865  1.00  0.00     0.168 HD
ENDROOT
BRANCH   1   8
HETATM    8  C2  UNL     1      24.975   3.223  50.169  1.00  0.00     0.044 C 
HETATM    9  C1  UNL     1      26.168   3.369  49.612  1.00  0.00     0.042 C 
BRANCH   8  10
HETATM   10  N1  UNL     1      23.998   3.628  49.190  1.00  0.00    -0.354 N 
HETATM   11  C3  UNL     1      23.037   2.710  48.679  1.00  0.00     0.093 A 
HETATM   12  C4  UNL     1      22.175   3.167  47.787  1.00  0.00     0.046 A 
HETATM   13  C5  UNL     1      22.125   4.527  47.284  1.00  0.00     0.036 A 
HETATM   14  C11 UNL     1      23.054   5.303  47.813  1.00  0.00     0.023 A 
HETATM   15  C12 UNL     1      24.111   5.023  48.810  1.00  0.00     0.158 A 
BRANCH  13  16
HETATM   16  N2  UNL     1      21.211   5.010  46.322  1.00  0.00    -0.315 N 
HETATM   17  C6  UNL     1      20.086   5.851  46.632  1.00  0.00     0.162 C 
HETATM   18  C7  UNL     1      19.807   6.884  45.546  1.00  0.00     0.292 C 
HETATM   19  N3  UNL     1      19.680   6.296  44.251  1.00  0.00     0.094 N 
HETATM   20  C8  UNL     1      18.706   5.232  44.335  1.00  0.00     0.310 C 
HETATM   21  C9  UNL     1      20.977   5.713  43.926  1.00  0.00     0.374 C 
HETATM   22  C10 UNL     1      21.358   4.694  44.952  1.00  0.00     0.252 C 
HETATM   23  O1  UNL     1      21.806   3.565  44.584  1.00  0.00    -0.271 OA
ENDBRANCH  13  16
ENDBRANCH   8  10
ENDBRANCH   1   8
BRANCH   1  24
HETATM   24  N4  UNL     1      25.937   2.884  52.309  1.00  0.00    -0.364 N 
HETATM   25  H17 UNL     1      26.430   3.818  52.210  1.00  0.00     0.161 HD
BRANCH  24  26
HETATM   26  C14 UNL     1      26.538   1.933  53.142  1.00  0.00     0.031 A 
HETATM   27  C15 UNL     1      25.949   1.333  54.224  1.00  0.00     0.029 A 
HETATM   28  C16 UNL     1      26.524   0.392  55.052  1.00  0.00     0.004 A 
HETATM   29  C17 UNL     1      27.817   0.014  54.769  1.00  0.00     0.024 A 
HETATM   30  C18 UNL     1      28.482   0.570  53.698  1.00  0.00     0.036 A 
HETATM   31 CL1  UNL     1      30.119   0.083  53.347  1.00  0.00    -0.084 Cl
HETATM   32  C19 UNL     1      27.831   1.504  52.923  1.00  0.00     0.053 A 
ENDBRANCH  24  26
ENDBRANCH   1  24
TORSDOF 5
ENDMDL
MODEL 9
REMARK VINA RESULT:      -8.2      1.929      2.367
REMARK  5 active torsions:
REMARK  status: ('A' for Active; 'I' for Inactive)
REMARK    1  A    between atoms: C2_2  and  N1_3 
REMARK    2  A    between atoms: C2_2  and  C13_17 
REMARK    3  A    between atoms: C5_6  and  N2_7 
REMARK    4  A    between atoms: C13_17  and  N4_18 
REMARK    5  A    between atoms: N4_18  and  C14_19 
ROOT
HETATM    1  C13 UNL     1      24.681   3.217  51.423  1.00  0.00     0.174 A 
HETATM    2  C20 UNL     1      23.982   2.304  50.513  1.00  0.00     0.037 A 
HETATM    3  C21 UNL     1      23.042   1.597  51.159  1.00  0.00     0.090 A 
HETATM    4  N5  UNL     1      23.031   1.974  52.550  1.00  0.00    -0.335 N 
HETATM    5  C22 UNL     1      24.030   2.968  52.736  1.00  0.00     0.260 A 
HETATM    6  O2  UNL     1      24.481   3.656  53.677  1.00  0.00    -0.270 OA
HETATM    7  H24 UNL     1      22.520   1.735  53.425  1.00  0.00     0.168 HD
ENDROOT
BRANCH   1   8
HETATM    8  C2  UNL     1      24.423   4.624  50.967  1.00  0.00     0.044 C 
HETATM    9  C1  UNL     1      23.317   5.316  51.199  1.00  0.00     0.042 C 
BRANCH   8  10
HETATM   10  N1  UNL     1      25.299   5.470  50.196  1.00  0.00    -0.354 N 
HETATM   11  C3  UNL     1      26.230   4.922  49.270  1.00  0.00     0.093 A 
HETATM   12  C4  UNL     1      26.992   5.771  48.601  1.00  0.00     0.046 A 
HETATM   13  C5  UNL     1      26.959   7.215  48.731  1.00  0.00     0.036 A 
HETATM   14  C11 UNL     1      26.067   7.629  49.612  1.00  0.00     0.023 A 
HETATM   15  C12 UNL     1      25.118   6.883  50.468  1.00  0.00     0.158 A 
BRANCH  13  16
HETATM   16  N2  UNL     1      27.783   8.119  48.024  1.00  0.00    -0.315 N 
HETATM   17  C6  UNL     1      28.129   7.975  46.636  1.00  0.00     0.162 C 
HETATM   18  C7  UNL     1      28.222   9.313  45.911  1.00  0.00     0.292 C 
HETATM   19  N3  UNL     1      29.089  10.234  46.574  1.00  0.00     0.094 N 
HETATM   20  C8  UNL     1      30.358   9.579  46.794  1.00  0.00     0.310 C 
HETATM   21  C9  UNL     1      28.483  10.522  47.869  1.00  0.00     0.374 C 
HETATM   22  C10 UNL     1      28.325   9.261  48.658  1.00  0.00     0.252 C 
HETATM   23  O1  UNL     1      28.675   9.230  49.876  1.00  0.00    -0.271 OA
ENDBRANCH  13  16
ENDBRANCH   8  10
ENDBRANCH   1   8
BRANCH   1  24
HETATM   24  N4  UNL     1      26.101   3.033  51.489  1.00  0.00    -0.364 N 
HETATM   25  H17 UNL     1      26.683   3.731  50.943  1.00  0.00     0.161 HD
BRANCH  24  26
HETATM   26  C14 UNL     1      26.792   2.038  52.190  1.00  0.00     0.031 A 
HETATM   27  C15 UNL     1      27.752   2.253  53.143  1.00  0.00     0.029 A 
HETATM   28  C16 UNL     1      28.440   1.285  53.846  1.00  0.00     0.004 A 
HETATM   29  C17 UNL     1      28.135  -0.028  53.567  1.00  0.00     0.024 A 
HETATM   30  C18 UNL     1      27.180  -0.331  52.621  1.00  0.00     0.036 A 
HETATM   31 CL1  UNL     1      26.800  -1.997  52.275  1.00  0.00    -0.084 Cl
HETATM   32  C19 UNL     1      26.542   0.700  51.966  1.00  0.00     0.053 A 
ENDBRANCH  24  26
ENDBRANCH   1  24
TORSDOF 5
ENDMDL
