MODEL 1
REMARK VINA RESULT:      -7.6      0.000      0.000
REMARK  6 active torsions:
REMARK  status: ('A' for Active; 'I' for Inactive)
REMARK    1  A    between atoms: C6_6  and  N1_7 
REMARK    2  A    between atoms: N1_7  and  C7_8 
REMARK    3  A    between atoms: C7_8  and  C8_9 
REMARK    4  A    between atoms: C8_9  and  C9_10 
REMARK    5  A    between atoms: C9_10  and  C10_12 
REMARK    6  A    between atoms: C15_20  and  O1_21 
ROOT
HETATM    1  C1  UNL     1      21.139   0.568  51.720  1.00  0.00     0.018 C 
HETATM    2  C2  UNL     1      22.273   0.571  52.119  1.00  0.00    -0.075 C 
HETATM    3  C3  UNL     1      23.637   0.571  52.579  1.00  0.00     0.051 A 
HETATM    4  C4  UNL     1      24.514   1.513  52.057  1.00  0.00     0.041 A 
HETATM    5  C5  UNL     1      25.804   1.462  52.536  1.00  0.00     0.040 A 
HETATM    6  C6  UNL     1      26.698   2.384  52.035  1.00  0.00     0.141 A 
HETATM    7  N2  UNL     1      27.969   2.378  52.471  1.00  0.00    -0.224 NA
HETATM    8  C12 UNL     1      28.449   1.530  53.368  1.00  0.00     0.236 A 
HETATM    9  N3  UNL     1      27.561   0.642  53.841  1.00  0.00    -0.241 NA
HETATM   10  C13 UNL     1      26.288   0.568  53.474  1.00  0.00     0.075 A 
HETATM   11  C14 UNL     1      25.388  -0.362  53.980  1.00  0.00     0.071 A 
HETATM   12  C15 UNL     1      24.073  -0.343  53.520  1.00  0.00     0.089 A 
ENDROOT
BRANCH  12  13
HETATM   13  O1  UNL     1      23.141  -1.246  53.990  1.00  0.00    -0.354 OA
HETATM   14  C16 UNL     1      22.715  -1.378  55.314  1.00  0.00     0.210 C 
ENDBRANCH  12  13
BRANCH   6  15
HETATM   15  N1  UNL     1      26.407   3.385  51.068  1.00  0.00    -0.343 N 
HETATM   16  H3  UNL     1      26.020   4.344  51.184  1.00  0.00     0.167 HD
BRANCH  15  17
HETATM   17  C7  UNL     1      26.599   3.268  49.681  1.00  0.00     0.149 C 
BRANCH  17  18
HETATM   18  C8  UNL     1      27.107   4.301  49.044  1.00  0.00    -0.068 C 
BRANCH  18  19
HETATM   19  C9  UNL     1      27.859   5.246  48.496  1.00  0.00     0.184 C 
HETATM   20  F1  UNL     1      28.984   4.766  47.996  1.00  0.00    -0.195 F 
BRANCH  19  21
HETATM   21  C10 UNL     1      27.366   6.582  48.525  1.00  0.00     0.071 C 
HETATM   22  C11 UNL     1      26.058   6.771  48.441  1.00  0.00     0.040 C 
HETATM   23 CL1  UNL     1      28.400   7.982  48.667  1.00  0.00    -0.081 Cl
ENDBRANCH  19  21
ENDBRANCH  18  19
ENDBRANCH  17  18
ENDBRANCH  15  17
ENDBRANCH   6  15
TORSDOF 6
ENDMDL
MODEL 2
REMARK VINA RESULT:      -7.6      3.529      5.530
REMARK  6 active torsions:
REMARK  status: ('A' for Active; 'I' for Inactive)
REMARK    1  A    between atoms: C6_6  and  N1_7 
REMARK    2  A    between atoms: N1_7  and  C7_8 
REMARK    3  A    between atoms: C7_8  and  C8_9 
REMARK    4  A    between atoms: C8_9  and  C9_10 
REMARK    5  A    between atoms: C9_10  and  C10_12 
REMARK    6  A    between atoms: C15_20  and  O1_21 
ROOT
HETATM    1  C1  UNL     1      22.044  -0.973  54.889  1.00  0.00     0.018 C 
HETATM    2  C2  UNL     1      22.343  -0.297  53.940  1.00  0.00    -0.075 C 
HETATM    3  C3  UNL     1      22.699   0.528  52.815  1.00  0.00     0.051 A 
HETATM    4  C4  UNL     1      23.911   1.206  52.848  1.00  0.00     0.041 A 
HETATM    5  C5  UNL     1      24.196   1.979  51.745  1.00  0.00     0.040 A 
HETATM    6  C6  UNL     1      25.391   2.665  51.748  1.00  0.00     0.141 A 
HETATM    7  N2  UNL     1      25.717   3.433  50.694  1.00  0.00    -0.224 NA
HETATM    8  C12 UNL     1      24.959   3.589  49.619  1.00  0.00     0.236 A 
HETATM    9  N3  UNL     1      23.801   2.912  49.639  1.00  0.00    -0.241 NA
HETATM   10  C13 UNL     1      23.391   2.131  50.630  1.00  0.00     0.075 A 
HETATM   11  C14 UNL     1      22.185   1.439  50.624  1.00  0.00     0.071 A 
HETATM   12  C15 UNL     1      21.861   0.647  51.723  1.00  0.00     0.089 A 
ENDROOT
BRANCH  12  13
HETATM   13  O1  UNL     1      20.676  -0.060  51.767  1.00  0.00    -0.354 OA
HETATM   14  C16 UNL     1      19.392   0.473  51.632  1.00  0.00     0.210 C 
ENDBRANCH  12  13
BRANCH   6  15
HETATM   15  N1  UNL     1      26.358   2.647  52.790  1.00  0.00    -0.343 N 
HETATM   16  H3  UNL     1      26.284   2.943  53.785  1.00  0.00     0.167 HD
BRANCH  15  17
HETATM   17  C7  UNL     1      27.684   2.197  52.674  1.00  0.00     0.149 C 
BRANCH  17  18
HETATM   18  C8  UNL     1      28.074   1.226  53.471  1.00  0.00    -0.068 C 
BRANCH  18  19
HETATM   19  C9  UNL     1      28.360   0.085  54.081  1.00  0.00     0.184 C 
HETATM   20  F1  UNL     1      28.716   0.262  55.341  1.00  0.00    -0.195 F 
BRANCH  19  21
HETATM   21  C10 UNL     1      28.245  -1.116  53.322  1.00  0.00     0.071 C 
HETATM   22  C11 UNL     1      29.303  -1.907  53.233  1.00  0.00     0.040 C 
HETATM   23 CL1  UNL     1      26.778  -1.595  52.505  1.00  0.00    -0.081 Cl
ENDBRANCH  19  21
ENDBRANCH  18  19
ENDBRANCH  17  18
ENDBRANCH  15  17
ENDBRANCH   6  15
TORSDOF 6
ENDMDL
MODEL 3
REMARK VINA RESULT:      -7.5      3.723      5.524
REMARK  6 active torsions:
REMARK  status: ('A' for Active; 'I' for Inactive)
REMARK    1  A    between atoms: C6_6  and  N1_7 
REMARK    2  A    between atoms: N1_7  and  C7_8 
REMARK    3  A    between atoms: C7_8  and  C8_9 
REMARK    4  A    between atoms: C8_9  and  C9_10 
REMARK    5  A    between atoms: C9_10  and  C10_12 
REMARK    6  A    between atoms: C15_20  and  O1_21 
ROOT
HETATM    1  C1  UNL     1      22.202  -1.136  54.947  1.00  0.00     0.018 C 
HETATM    2  C2  UNL     1      22.282  -0.465  53.951  1.00  0.00    -0.075 C 
HETATM    3  C3  UNL     1      22.377   0.354  52.771  1.00  0.00     0.051 A 
HETATM    4  C4  UNL     1      23.509   1.142  52.600  1.00  0.00     0.041 A 
HETATM    5  C5  UNL     1      23.541   1.902  51.453  1.00  0.00     0.040 A 
HETATM    6  C6  UNL     1      24.650   2.696  51.255  1.00  0.00     0.141 A 
HETATM    7  N2  UNL     1      24.732   3.457  50.151  1.00  0.00    -0.224 NA
HETATM    8  C12 UNL     1      23.804   3.510  49.208  1.00  0.00     0.236 A 
HETATM    9  N3  UNL     1      22.733   2.729  49.422  1.00  0.00    -0.241 NA
HETATM   10  C13 UNL     1      22.561   1.945  50.478  1.00  0.00     0.075 A 
HETATM   11  C14 UNL     1      21.441   1.146  50.676  1.00  0.00     0.071 A 
HETATM   12  C15 UNL     1      21.370   0.361  51.825  1.00  0.00     0.089 A 
ENDROOT
BRANCH  12  13
HETATM   13  O1  UNL     1      20.280  -0.450  52.068  1.00  0.00    -0.354 OA
HETATM   14  C16 UNL     1      18.943  -0.047  52.097  1.00  0.00     0.210 C 
ENDBRANCH  12  13
BRANCH   6  15
HETATM   15  N1  UNL     1      25.766   2.799  52.131  1.00  0.00    -0.343 N 
HETATM   16  H3  UNL     1      25.859   3.270  53.054  1.00  0.00     0.167 HD
BRANCH  15  17
HETATM   17  C7  UNL     1      27.041   2.251  51.906  1.00  0.00     0.149 C 
BRANCH  17  18
HETATM   18  C8  UNL     1      27.254   1.014  52.302  1.00  0.00    -0.068 C 
BRANCH  18  19
HETATM   19  C9  UNL     1      27.225  -0.203  52.825  1.00  0.00     0.184 C 
HETATM   20  F1  UNL     1      26.153  -0.883  52.459  1.00  0.00    -0.195 F 
BRANCH  19  21
HETATM   21  C10 UNL     1      28.308  -0.585  53.667  1.00  0.00     0.071 C 
HETATM   22  C11 UNL     1      28.497   0.086  54.793  1.00  0.00     0.040 C 
HETATM   23 CL1  UNL     1      29.399  -1.896  53.289  1.00  0.00    -0.081 Cl
ENDBRANCH  19  21
ENDBRANCH  18  19
ENDBRANCH  17  18
ENDBRANCH  15  17
ENDBRANCH   6  15
TORSDOF 6
ENDMDL
MODEL 4
REMARK VINA RESULT:      -7.4      3.018      4.217
REMARK  6 active torsions:
REMARK  status: ('A' for Active; 'I' for Inactive)
REMARK    1  A    between atoms: C6_6  and  N1_7 
REMARK    2  A    between atoms: N1_7  and  C7_8 
REMARK    3  A    between atoms: C7_8  and  C8_9 
REMARK    4  A    between atoms: C8_9  and  C9_10 
REMARK    5  A    between atoms: C9_10  and  C10_12 
REMARK    6  A    between atoms: C15_20  and  O1_21 
ROOT
HETATM    1  C1  UNL     1      20.322   1.027  50.017  1.00  0.00     0.018 C 
HETATM    2  C2  UNL     1      20.798   0.605  51.038  1.00  0.00    -0.075 C 
HETATM    3  C3  UNL     1      21.374   0.086  52.251  1.00  0.00     0.051 A 
HETATM    4  C4  UNL     1      22.758   0.059  52.368  1.00  0.00     0.041 A 
HETATM    5  C5  UNL     1      23.250  -0.449  53.550  1.00  0.00     0.040 A 
HETATM    6  C6  UNL     1      24.619  -0.490  53.696  1.00  0.00     0.141 A 
HETATM    7  N2  UNL     1      25.150  -0.976  54.831  1.00  0.00    -0.224 NA
HETATM    8  C12 UNL     1      24.442  -1.434  55.852  1.00  0.00     0.236 A 
HETATM    9  N3  UNL     1      23.111  -1.385  55.687  1.00  0.00    -0.241 NA
HETATM   10  C13 UNL     1      22.494  -0.924  54.607  1.00  0.00     0.075 A 
HETATM   11  C14 UNL     1      21.112  -0.884  54.461  1.00  0.00     0.071 A 
HETATM   12  C15 UNL     1      20.576  -0.377  53.280  1.00  0.00     0.089 A 
ENDROOT
BRANCH  12  13
HETATM   13  O1  UNL     1      19.211  -0.316  53.085  1.00  0.00    -0.354 OA
HETATM   14  C16 UNL     1      18.297  -1.345  53.320  1.00  0.00     0.210 C 
ENDBRANCH  12  13
BRANCH   6  15
HETATM   15  N1  UNL     1      25.572  -0.054  52.735  1.00  0.00    -0.343 N 
HETATM   16  H3  UNL     1      25.902  -0.506  51.858  1.00  0.00     0.167 HD
BRANCH  15  17
HETATM   17  C7  UNL     1      26.300   1.148  52.785  1.00  0.00     0.149 C 
BRANCH  17  18
HETATM   18  C8  UNL     1      26.126   2.009  51.806  1.00  0.00    -0.068 C 
BRANCH  18  19
HETATM   19  C9  UNL     1      25.728   2.728  50.765  1.00  0.00     0.184 C 
HETATM   20  F1  UNL     1      26.718   3.007  49.937  1.00  0.00    -0.195 F 
BRANCH  19  21
HETATM   21  C10 UNL     1      24.348   3.077  50.694  1.00  0.00     0.071 C 
HETATM   22  C11 UNL     1      23.747   3.029  49.515  1.00  0.00     0.040 C 
HETATM   23 CL1  UNL     1      23.411   3.563  52.086  1.00  0.00    -0.081 Cl
ENDBRANCH  19  21
ENDBRANCH  18  19
ENDBRANCH  17  18
ENDBRANCH  15  17
ENDBRANCH   6  15
TORSDOF 6
ENDMDL
MODEL 5
REMARK VINA RESULT:      -7.4      3.874      5.775
REMARK  6 active torsions:
REMARK  status: ('A' for Active; 'I' for Inactive)
REMARK    1  A    between atoms: C6_6  and  N1_7 
REMARK    2  A    between atoms: N1_7  and  C7_8 
REMARK    3  A    between atoms: C7_8  and  C8_9 
REMARK    4  A    between atoms: C8_9  and  C9_10 
REMARK    5  A    between atoms: C9_10  and  C10_12 
REMARK    6  A    between atoms: C15_20  and  O1_21 
ROOT
HETATM    1  C1  UNL     1      26.482   2.944  50.275  1.00  0.00     0.018 C 
HETATM    2  C2  UNL     1      26.221   2.208  51.190  1.00  0.00    -0.075 C 
HETATM    3  C3  UNL     1      25.898   1.340  52.292  1.00  0.00     0.051 A 
HETATM    4  C4  UNL     1      24.583   0.918  52.441  1.00  0.00     0.041 A 
HETATM    5  C5  UNL     1      24.336   0.091  53.514  1.00  0.00     0.040 A 
HETATM    6  C6  UNL     1      23.040  -0.344  53.688  1.00  0.00     0.141 A 
HETATM    7  N2  UNL     1      22.746  -1.154  54.719  1.00  0.00    -0.224 NA
HETATM    8  C12 UNL     1      23.628  -1.580  55.611  1.00  0.00     0.236 A 
HETATM    9  N3  UNL     1      24.883  -1.143  55.421  1.00  0.00    -0.241 NA
HETATM   10  C13 UNL     1      25.271  -0.344  54.436  1.00  0.00     0.075 A 
HETATM   11  C14 UNL     1      26.578   0.094  54.262  1.00  0.00     0.071 A 
HETATM   12  C15 UNL     1      26.868   0.932  53.188  1.00  0.00     0.089 A 
ENDROOT
BRANCH  12  13
HETATM   13  O1  UNL     1      28.150   1.395  52.971  1.00  0.00    -0.354 OA
HETATM   14  C16 UNL     1      28.809   2.378  53.713  1.00  0.00     0.210 C 
ENDBRANCH  12  13
BRANCH   6  15
HETATM   15  N1  UNL     1      21.933  -0.016  52.858  1.00  0.00    -0.343 N 
HETATM   16  H3  UNL     1      21.734  -0.265  51.868  1.00  0.00     0.167 HD
BRANCH  15  17
HETATM   17  C7  UNL     1      20.822   0.757  53.237  1.00  0.00     0.149 C 
BRANCH  17  18
HETATM   18  C8  UNL     1      20.749   1.989  52.780  1.00  0.00    -0.068 C 
BRANCH  18  19
HETATM   19  C9  UNL     1      20.877   3.149  52.152  1.00  0.00     0.184 C 
HETATM   20  F1  UNL     1      19.737   3.812  52.080  1.00  0.00    -0.195 F 
BRANCH  19  21
HETATM   21  C10 UNL     1      22.171   3.498  51.668  1.00  0.00     0.071 C 
HETATM   22  C11 UNL     1      22.483   3.180  50.421  1.00  0.00     0.040 C 
HETATM   23 CL1  UNL     1      23.365   4.326  52.638  1.00  0.00    -0.081 Cl
ENDBRANCH  19  21
ENDBRANCH  18  19
ENDBRANCH  17  18
ENDBRANCH  15  17
ENDBRANCH   6  15
TORSDOF 6
ENDMDL
MODEL 6
REMARK VINA RESULT:      -7.4      2.277      2.577
REMARK  6 active torsions:
REMARK  status: ('A' for Active; 'I' for Inactive)
REMARK    1  A    between atoms: C6_6  and  N1_7 
REMARK    2  A    between atoms: N1_7  and  C7_8 
REMARK    3  A    between atoms: C7_8  and  C8_9 
REMARK    4  A    between atoms: C8_9  and  C9_10 
REMARK    5  A    between atoms: C9_10  and  C10_12 
REMARK    6  A    between atoms: C15_20  and  O1_21 
ROOT
HETATM    1  C1  UNL     1      21.266   0.855  51.468  1.00  0.00     0.018 C 
HETATM    2  C2  UNL     1      22.369   0.754  51.938  1.00  0.00    -0.075 C 
HETATM    3  C3  UNL     1      23.695   0.629  52.484  1.00  0.00     0.051 A 
HETATM    4  C4  UNL     1      24.671   1.525  52.066  1.00  0.00     0.041 A 
HETATM    5  C5  UNL     1      25.919   1.355  52.622  1.00  0.00     0.040 A 
HETATM    6  C6  UNL     1      26.909   2.228  52.227  1.00  0.00     0.141 A 
HETATM    7  N2  UNL     1      28.144   2.105  52.741  1.00  0.00    -0.224 NA
HETATM    8  C12 UNL     1      28.500   1.184  53.624  1.00  0.00     0.236 A 
HETATM    9  N3  UNL     1      27.520   0.345  53.993  1.00  0.00    -0.241 NA
HETATM   10  C13 UNL     1      26.272   0.385  53.544  1.00  0.00     0.075 A 
HETATM   11  C14 UNL     1      25.275  -0.497  53.943  1.00  0.00     0.071 A 
HETATM   12  C15 UNL     1      23.999  -0.357  53.403  1.00  0.00     0.089 A 
ENDROOT
BRANCH  12  13
HETATM   13  O1  UNL     1      22.974  -1.207  53.767  1.00  0.00    -0.354 OA
HETATM   14  C16 UNL     1      22.302  -1.212  54.991  1.00  0.00     0.210 C 
ENDBRANCH  12  13
BRANCH   6  15
HETATM   15  N1  UNL     1      26.757   3.291  51.295  1.00  0.00    -0.343 N 
HETATM   16  H3  UNL     1      26.777   4.322  51.437  1.00  0.00     0.167 HD
BRANCH  15  17
HETATM   17  C7  UNL     1      26.538   3.149  49.914  1.00  0.00     0.149 C 
BRANCH  17  18
HETATM   18  C8  UNL     1      25.534   3.814  49.382  1.00  0.00    -0.068 C 
BRANCH  18  19
HETATM   19  C9  UNL     1      24.407   4.449  49.094  1.00  0.00     0.184 C 
HETATM   20  F1  UNL     1      24.620   5.596  48.475  1.00  0.00    -0.195 F 
BRANCH  19  21
HETATM   21  C10 UNL     1      23.183   3.827  49.475  1.00  0.00     0.071 C 
HETATM   22  C11 UNL     1      22.704   2.859  48.708  1.00  0.00     0.040 C 
HETATM   23 CL1  UNL     1      22.284   4.277  50.903  1.00  0.00    -0.081 Cl
ENDBRANCH  19  21
ENDBRANCH  18  19
ENDBRANCH  17  18
ENDBRANCH  15  17
ENDBRANCH   6  15
TORSDOF 6
ENDMDL
MODEL 7
REMARK VINA RESULT:      -7.3      3.735      5.499
REMARK  6 active torsions:
REMARK  status: ('A' for Active; 'I' for Inactive)
REMARK    1  A    between atoms: C6_6  and  N1_7 
REMARK    2  A    between atoms: N1_7  and  C7_8 
REMARK    3  A    between atoms: C7_8  and  C8_9 
REMARK    4  A    between atoms: C8_9  and  C9_10 
REMARK    5  A    between atoms: C9_10  and  C10_12 
REMARK    6  A    between atoms: C15_20  and  O1_21 
ROOT
HETATM    1  C1  UNL     1      26.695   2.923  50.483  1.00  0.00     0.018 C 
HETATM    2  C2  UNL     1      26.315   2.154  51.327  1.00  0.00    -0.075 C 
HETATM    3  C3  UNL     1      25.852   1.248  52.346  1.00  0.00     0.051 A 
HETATM    4  C4  UNL     1      24.483   1.061  52.494  1.00  0.00     0.041 A 
HETATM    5  C5  UNL     1      24.103   0.185  53.485  1.00  0.00     0.040 A 
HETATM    6  C6  UNL     1      22.751  -0.022  53.658  1.00  0.00     0.141 A 
HETATM    7  N2  UNL     1      22.327  -0.869  54.611  1.00  0.00    -0.224 NA
HETATM    8  C12 UNL     1      23.126  -1.542  55.424  1.00  0.00     0.236 A 
HETATM    9  N3  UNL     1      24.437  -1.325  55.238  1.00  0.00    -0.241 NA
HETATM   10  C13 UNL     1      24.953  -0.510  54.326  1.00  0.00     0.075 A 
HETATM   11  C14 UNL     1      26.317  -0.304  54.154  1.00  0.00     0.071 A 
HETATM   12  C15 UNL     1      26.742   0.576  53.162  1.00  0.00     0.089 A 
ENDROOT
BRANCH  12  13
HETATM   13  O1  UNL     1      28.085   0.816  52.950  1.00  0.00    -0.354 OA
HETATM   14  C16 UNL     1      29.046   1.055  53.935  1.00  0.00     0.210 C 
ENDBRANCH  12  13
BRANCH   6  15
HETATM   15  N1  UNL     1      21.713   0.590  52.903  1.00  0.00    -0.343 N 
HETATM   16  H3  UNL     1      21.212   1.491  53.050  1.00  0.00     0.167 HD
BRANCH  15  17
HETATM   17  C7  UNL     1      21.123   0.067  51.740  1.00  0.00     0.149 C 
BRANCH  17  18
HETATM   18  C8  UNL     1      21.340   0.698  50.606  1.00  0.00    -0.068 C 
BRANCH  18  19
HETATM   19  C9  UNL     1      21.815   1.358  49.559  1.00  0.00     0.184 C 
HETATM   20  F1  UNL     1      21.553   0.748  48.418  1.00  0.00    -0.195 F 
BRANCH  19  21
HETATM   21  C10 UNL     1      22.508   2.578  49.807  1.00  0.00     0.071 C 
HETATM   22  C11 UNL     1      23.417   2.975  48.931  1.00  0.00     0.040 C 
HETATM   23 CL1  UNL     1      22.215   3.577  51.210  1.00  0.00    -0.081 Cl
ENDBRANCH  19  21
ENDBRANCH  18  19
ENDBRANCH  17  18
ENDBRANCH  15  17
ENDBRANCH   6  15
TORSDOF 6
ENDMDL
MODEL 8
REMARK VINA RESULT:      -7.2      4.194      6.645
REMARK  6 active torsions:
REMARK  status: ('A' for Active; 'I' for Inactive)
REMARK    1  A    between atoms: C6_6  and  N1_7 
REMARK    2  A    between atoms: N1_7  and  C7_8 
REMARK    3  A    between atoms: C7_8  and  C8_9 
REMARK    4  A    between atoms: C8_9  and  C9_10 
REMARK    5  A    between atoms: C9_10  and  C10_12 
REMARK    6  A    between atoms: C15_20  and  O1_21 
ROOT
HETATM    1  C1  UNL     1      22.759   4.818  52.446  1.00  0.00     0.018 C 
HETATM    2  C2  UNL     1      23.532   3.900  52.367  1.00  0.00    -0.075 C 
HETATM    3  C3  UNL     1      24.463   2.805  52.291  1.00  0.00     0.051 A 
HETATM    4  C4  UNL     1      24.277   1.716  53.133  1.00  0.00     0.041 A 
HETATM    5  C5  UNL     1      25.200   0.702  53.014  1.00  0.00     0.040 A 
HETATM    6  C6  UNL     1      25.043  -0.392  53.837  1.00  0.00     0.141 A 
HETATM    7  N2  UNL     1      25.917  -1.411  53.760  1.00  0.00    -0.224 NA
HETATM    8  C12 UNL     1      26.949  -1.450  52.932  1.00  0.00     0.236 A 
HETATM    9  N3  UNL     1      27.082  -0.374  52.140  1.00  0.00    -0.241 NA
HETATM   10  C13 UNL     1      26.274   0.678  52.142  1.00  0.00     0.075 A 
HETATM   11  C14 UNL     1      26.435   1.781  51.311  1.00  0.00     0.071 A 
HETATM   12  C15 UNL     1      25.522   2.829  51.402  1.00  0.00     0.089 A 
ENDROOT
BRANCH  12  13
HETATM   13  O1  UNL     1      25.636   3.945  50.599  1.00  0.00    -0.354 OA
HETATM   14  C16 UNL     1      26.391   4.046  49.428  1.00  0.00     0.210 C 
ENDBRANCH  12  13
BRANCH   6  15
HETATM   15  N1  UNL     1      24.012  -0.567  54.800  1.00  0.00    -0.343 N 
HETATM   16  H3  UNL     1      23.890  -0.147  55.744  1.00  0.00     0.167 HD
BRANCH  15  17
HETATM   17  C7  UNL     1      22.884  -1.394  54.656  1.00  0.00     0.149 C 
BRANCH  17  18
HETATM   18  C8  UNL     1      21.793  -0.859  54.152  1.00  0.00    -0.068 C 
BRANCH  18  19
HETATM   19  C9  UNL     1      20.714  -0.523  53.459  1.00  0.00     0.184 C 
HETATM   20  F1  UNL     1      19.665  -1.263  53.770  1.00  0.00    -0.195 F 
BRANCH  19  21
HETATM   21  C10 UNL     1      20.838   0.542  52.521  1.00  0.00     0.071 C 
HETATM   22  C11 UNL     1      21.386   0.283  51.344  1.00  0.00     0.040 C 
HETATM   23 CL1  UNL     1      20.301   2.172  52.847  1.00  0.00    -0.081 Cl
ENDBRANCH  19  21
ENDBRANCH  18  19
ENDBRANCH  17  18
ENDBRANCH  15  17
ENDBRANCH   6  15
TORSDOF 6
ENDMDL
MODEL 9
REMARK VINA RESULT:      -7.2      4.509      5.769
REMARK  6 active torsions:
REMARK  status: ('A' for Active; 'I' for Inactive)
REMARK    1  A    between atoms: C6_6  and  N1_7 
REMARK    2  A    between atoms: N1_7  and  C7_8 
REMARK    3  A    between atoms: C7_8  and  C8_9 
REMARK    4  A    between atoms: C8_9  and  C9_10 
REMARK    5  A    between atoms: C9_10  and  C10_12 
REMARK    6  A    between atoms: C15_20  and  O1_21 
ROOT
HETATM    1  C1  UNL     1      19.586   1.270  50.106  1.00  0.00     0.018 C 
HETATM    2  C2  UNL     1      20.120   0.778  51.066  1.00  0.00    -0.075 C 
HETATM    3  C3  UNL     1      20.769   0.180  52.202  1.00  0.00     0.051 A 
HETATM    4  C4  UNL     1      22.137   0.366  52.359  1.00  0.00     0.041 A 
HETATM    5  C5  UNL     1      22.700  -0.231  53.465  1.00  0.00     0.040 A 
HETATM    6  C6  UNL     1      24.056  -0.065  53.648  1.00  0.00     0.141 A 
HETATM    7  N2  UNL     1      24.655  -0.627  54.711  1.00  0.00    -0.224 NA
HETATM    8  C12 UNL     1      24.029  -1.351  55.627  1.00  0.00     0.236 A 
HETATM    9  N3  UNL     1      22.710  -1.500  55.427  1.00  0.00    -0.241 NA
HETATM   10  C13 UNL     1      22.030  -0.986  54.411  1.00  0.00     0.075 A 
HETATM   11  C14 UNL     1      20.663  -1.155  54.228  1.00  0.00     0.071 A 
HETATM   12  C15 UNL     1      20.055  -0.566  53.121  1.00  0.00     0.089 A 
ENDROOT
BRANCH  12  13
HETATM   13  O1  UNL     1      18.701  -0.704  52.894  1.00  0.00    -0.354 OA
HETATM   14  C16 UNL     1      17.890  -1.745  53.351  1.00  0.00     0.210 C 
ENDBRANCH  12  13
BRANCH   6  15
HETATM   15  N1  UNL     1      24.927   0.670  52.797  1.00  0.00    -0.343 N 
HETATM   16  H3  UNL     1      24.948   1.684  52.566  1.00  0.00     0.167 HD
BRANCH  15  17
HETATM   17  C7  UNL     1      25.995   0.137  52.056  1.00  0.00     0.149 C 
BRANCH  17  18
HETATM   18  C8  UNL     1      27.153  -0.006  52.666  1.00  0.00    -0.068 C 
BRANCH  18  19
HETATM   19  C9  UNL     1      28.400   0.051  53.111  1.00  0.00     0.184 C 
HETATM   20  F1  UNL     1      28.825   1.293  53.258  1.00  0.00    -0.195 F 
BRANCH  19  21
HETATM   21  C10 UNL     1      29.070  -1.182  53.358  1.00  0.00     0.071 C 
HETATM   22  C11 UNL     1      30.262  -1.145  53.933  1.00  0.00     0.040 C 
HETATM   23 CL1  UNL     1      28.395  -2.738  52.941  1.00  0.00    -0.081 Cl
ENDBRANCH  19  21
ENDBRANCH  18  19
ENDBRANCH  17  18
ENDBRANCH  15  17
ENDBRANCH   6  15
TORSDOF 6
ENDMDL
