MODEL 1
REMARK VINA RESULT:      -9.3      0.000      0.000
REMARK  5 active torsions:
REMARK  status: ('A' for Active; 'I' for Inactive)
REMARK    1  A    between atoms: C4_6  and  C5_7 
REMARK    2  A    between atoms: C15_17  and  N3_18 
REMARK       I    between atoms: N3_18  and  C16_19 
REMARK    3  A    between atoms: C16_19  and  C17_21 
REMARK    4  A    between atoms: C17_21  and  C18_22 
REMARK    5  A    between atoms: C18_22  and  N4_23 
ROOT
HETATM    1  N1  UNL     1      20.537  -1.381  54.516  1.00  0.00    -0.191 NA
HETATM    2  C1  UNL     1      21.653  -1.113  54.367  1.00  0.00     0.102 C 
HETATM    3  C2  UNL     1      23.048  -0.794  54.198  1.00  0.00     0.073 A 
HETATM    4  C3  UNL     1      23.943  -1.318  55.125  1.00  0.00     0.140 A 
HETATM    5  N2  UNL     1      25.245  -1.019  54.965  1.00  0.00    -0.258 NA
HETATM    6  C4  UNL     1      25.717  -0.246  53.964  1.00  0.00     0.078 A 
HETATM    7  C11 UNL     1      24.871   0.282  53.042  1.00  0.00     0.018 A 
HETATM    8  C12 UNL     1      23.506   0.008  53.153  1.00  0.00    -0.004 A 
HETATM    9  C13 UNL     1      22.603   0.491  52.284  1.00  0.00    -0.007 C 
HETATM   10  C14 UNL     1      23.194   1.337  51.203  1.00  0.00     0.086 C 
HETATM   11  C15 UNL     1      24.411   2.041  51.678  1.00  0.00     0.027 C 
HETATM   12  C23 UNL     1      25.209   1.054  52.025  1.00  0.00     0.013 C 
ENDROOT
BRANCH   6  13
HETATM   13  C5  UNL     1      27.139   0.045  53.838  1.00  0.00    -0.006 A 
HETATM   14  C6  UNL     1      28.058  -0.936  53.459  1.00  0.00     0.014 A 
HETATM   15  C7  UNL     1      29.418  -0.718  53.322  1.00  0.00     0.001 A 
HETATM   16  C8  UNL     1      29.850   0.568  53.587  1.00  0.00     0.000 A 
HETATM   17  C9  UNL     1      29.003   1.584  53.964  1.00  0.00     0.001 A 
HETATM   18  C10 UNL     1      27.670   1.297  54.080  1.00  0.00     0.014 A 
ENDBRANCH   6  13
BRANCH  11  19
HETATM   19  N3  UNL     1      24.606   3.447  51.723  1.00  0.00    -0.330 N 
HETATM   20  C16 UNL     1      24.755   4.186  50.540  1.00  0.00     0.223 C 
HETATM   21  O1  UNL     1      24.712   3.575  49.432  1.00  0.00    -0.273 OA
HETATM   22  H10 UNL     1      24.621   3.811  52.699  1.00  0.00     0.168 HD
BRANCH  20  23
HETATM   23  C17 UNL     1      24.949   5.652  50.800  1.00  0.00     0.133 C 
BRANCH  23  24
HETATM   24  C18 UNL     1      24.459   6.511  49.680  1.00  0.00     0.283 C 
BRANCH  24  25
HETATM   25  N4  UNL     1      25.396   7.477  49.204  1.00  0.00     0.107 N 
HETATM   26  C19 UNL     1      26.167   8.073  50.251  1.00  0.00     0.300 C 
HETATM   27  C20 UNL     1      27.305   8.828  49.595  1.00  0.00     0.198 C 
HETATM   28  O2  UNL     1      28.201   8.013  48.942  1.00  0.00    -0.386 OA
HETATM   29  C21 UNL     1      27.642   6.864  48.399  1.00  0.00     0.215 C 
HETATM   30  C22 UNL     1      26.170   7.047  48.080  1.00  0.00     0.317 C 
HETATM   31 BR1  UNL     1      26.066   8.336  46.624  1.00  0.00    -0.056 Br
ENDBRANCH  24  25
ENDBRANCH  23  24
ENDBRANCH  20  23
ENDBRANCH  11  19
TORSDOF 5
ENDMDL
MODEL 2
REMARK VINA RESULT:      -9.1      1.726      2.135
REMARK  5 active torsions:
REMARK  status: ('A' for Active; 'I' for Inactive)
REMARK    1  A    between atoms: C4_6  and  C5_7 
REMARK    2  A    between atoms: C15_17  and  N3_18 
REMARK       I    between atoms: N3_18  and  C16_19 
REMARK    3  A    between atoms: C16_19  and  C17_21 
REMARK    4  A    between atoms: C17_21  and  C18_22 
REMARK    5  A    between atoms: C18_22  and  N4_23 
ROOT
HETATM    1  N1  UNL     1      18.696  -0.864  53.461  1.00  0.00    -0.191 NA
HETATM    2  C1  UNL     1      19.843  -0.709  53.441  1.00  0.00     0.102 C 
HETATM    3  C2  UNL     1      21.273  -0.532  53.432  1.00  0.00     0.073 A 
HETATM    4  C3  UNL     1      21.992  -1.060  54.500  1.00  0.00     0.140 A 
HETATM    5  N2  UNL     1      23.327  -0.892  54.490  1.00  0.00    -0.258 NA
HETATM    6  C4  UNL     1      23.992  -0.246  53.510  1.00  0.00     0.078 A 
HETATM    7  C11 UNL     1      23.322   0.282  52.453  1.00  0.00     0.018 A 
HETATM    8  C12 UNL     1      21.934   0.141  52.404  1.00  0.00    -0.004 A 
HETATM    9  C13 UNL     1      21.196   0.634  51.395  1.00  0.00    -0.007 C 
HETATM   10  C14 UNL     1      21.996   1.336  50.347  1.00  0.00     0.086 C 
HETATM   11  C15 UNL     1      23.210   1.962  50.927  1.00  0.00     0.027 C 
HETATM   12  C23 UNL     1      23.857   0.938  51.439  1.00  0.00     0.013 C 
ENDROOT
BRANCH   6  13
HETATM   13  C5  UNL     1      25.441  -0.095  53.549  1.00  0.00    -0.006 A 
HETATM   14  C6  UNL     1      26.295  -1.065  53.019  1.00  0.00     0.014 A 
HETATM   15  C7  UNL     1      27.675  -0.976  53.028  1.00  0.00     0.001 A 
HETATM   16  C8  UNL     1      28.200   0.164  53.608  1.00  0.00     0.000 A 
HETATM   17  C9  UNL     1      27.421   1.161  54.149  1.00  0.00     0.001 A 
HETATM   18  C10 UNL     1      26.062   1.005  54.106  1.00  0.00     0.014 A 
ENDBRANCH   6  13
BRANCH  11  19
HETATM   19  N3  UNL     1      23.536   3.344  50.902  1.00  0.00    -0.330 N 
HETATM   20  C16 UNL     1      22.899   4.245  51.768  1.00  0.00     0.223 C 
HETATM   21  O1  UNL     1      22.026   3.801  52.571  1.00  0.00    -0.273 OA
HETATM   22  H10 UNL     1      24.266   3.564  50.192  1.00  0.00     0.168 HD
BRANCH  20  23
HETATM   23  C17 UNL     1      23.382   5.655  51.587  1.00  0.00     0.133 C 
BRANCH  23  24
HETATM   24  C18 UNL     1      23.013   6.230  50.258  1.00  0.00     0.283 C 
BRANCH  24  25
HETATM   25  N4  UNL     1      24.107   6.433  49.363  1.00  0.00     0.107 N 
HETATM   26  C19 UNL     1      23.921   7.554  48.495  1.00  0.00     0.300 C 
HETATM   27  C20 UNL     1      25.253   7.835  47.833  1.00  0.00     0.198 C 
HETATM   28  O2  UNL     1      26.228   8.250  48.712  1.00  0.00    -0.386 OA
HETATM   29  C21 UNL     1      26.114   7.718  49.988  1.00  0.00     0.215 C 
HETATM   30  C22 UNL     1      25.396   6.381  49.983  1.00  0.00     0.317 C 
HETATM   31 BR1  UNL     1      26.563   5.120  49.066  1.00  0.00    -0.056 Br
ENDBRANCH  24  25
ENDBRANCH  23  24
ENDBRANCH  20  23
ENDBRANCH  11  19
TORSDOF 5
ENDMDL
MODEL 3
REMARK VINA RESULT:      -9.0      3.401      8.986
REMARK  5 active torsions:
REMARK  status: ('A' for Active; 'I' for Inactive)
REMARK    1  A    between atoms: C4_6  and  C5_7 
REMARK    2  A    between atoms: C15_17  and  N3_18 
REMARK       I    between atoms: N3_18  and  C16_19 
REMARK    3  A    between atoms: C16_19  and  C17_21 
REMARK    4  A    between atoms: C17_21  and  C18_22 
REMARK    5  A    between atoms: C18_22  and  N4_23 
ROOT
HETATM    1  N1  UNL     1      30.115   7.117  47.615  1.00  0.00    -0.191 NA
HETATM    2  C1  UNL     1      28.986   7.104  47.870  1.00  0.00     0.102 C 
HETATM    3  C2  UNL     1      27.579   7.109  48.179  1.00  0.00     0.073 A 
HETATM    4  C3  UNL     1      26.898   8.316  48.055  1.00  0.00     0.140 A 
HETATM    5  N2  UNL     1      25.584   8.317  48.345  1.00  0.00    -0.258 NA
HETATM    6  C4  UNL     1      24.905   7.221  48.746  1.00  0.00     0.078 A 
HETATM    7  C11 UNL     1      25.539   6.027  48.878  1.00  0.00     0.018 A 
HETATM    8  C12 UNL     1      26.904   5.959  48.591  1.00  0.00    -0.004 A 
HETATM    9  C13 UNL     1      27.605   4.818  48.697  1.00  0.00    -0.007 C 
HETATM   10  C14 UNL     1      26.792   3.647  49.144  1.00  0.00     0.086 C 
HETATM   11  C15 UNL     1      25.678   4.073  50.028  1.00  0.00     0.027 C 
HETATM   12  C23 UNL     1      24.987   4.891  49.264  1.00  0.00     0.013 C 
ENDROOT
BRANCH   6  13
HETATM   13  C5  UNL     1      23.481   7.280  49.045  1.00  0.00    -0.006 A 
HETATM   14  C6  UNL     1      23.012   7.505  50.342  1.00  0.00     0.014 A 
HETATM   15  C7  UNL     1      21.673   7.571  50.685  1.00  0.00     0.001 A 
HETATM   16  C8  UNL     1      20.777   7.399  49.647  1.00  0.00     0.000 A 
HETATM   17  C9  UNL     1      21.166   7.175  48.346  1.00  0.00     0.001 A 
HETATM   18  C10 UNL     1      22.507   7.121  48.079  1.00  0.00     0.014 A 
ENDBRANCH   6  13
BRANCH  11  19
HETATM   19  N3  UNL     1      25.466   3.659  51.371  1.00  0.00    -0.330 N 
HETATM   20  C16 UNL     1      24.589   2.605  51.664  1.00  0.00     0.223 C 
HETATM   21  O1  UNL     1      23.990   2.030  50.708  1.00  0.00    -0.273 OA
HETATM   22  H10 UNL     1      26.022   4.223  52.048  1.00  0.00     0.168 HD
BRANCH  20  23
HETATM   23  C17 UNL     1      24.503   2.322  53.136  1.00  0.00     0.133 C 
BRANCH  23  24
HETATM   24  C18 UNL     1      25.807   2.510  53.841  1.00  0.00     0.283 C 
BRANCH  24  25
HETATM   25  N4  UNL     1      26.836   1.598  53.460  1.00  0.00     0.107 N 
HETATM   26  C19 UNL     1      28.149   2.154  53.575  1.00  0.00     0.300 C 
HETATM   27  C20 UNL     1      29.133   1.010  53.443  1.00  0.00     0.198 C 
HETATM   28  O2  UNL     1      29.063   0.102  54.474  1.00  0.00    -0.386 OA
HETATM   29  C21 UNL     1      27.797  -0.049  55.021  1.00  0.00     0.215 C 
HETATM   30  C22 UNL     1      26.705   0.288  54.023  1.00  0.00     0.317 C 
HETATM   31 BR1  UNL     1      26.768  -1.079  52.637  1.00  0.00    -0.056 Br
ENDBRANCH  24  25
ENDBRANCH  23  24
ENDBRANCH  20  23
ENDBRANCH  11  19
TORSDOF 5
ENDMDL
MODEL 4
REMARK VINA RESULT:      -8.9      3.489      6.957
REMARK  5 active torsions:
REMARK  status: ('A' for Active; 'I' for Inactive)
REMARK    1  A    between atoms: C4_6  and  C5_7 
REMARK    2  A    between atoms: C15_17  and  N3_18 
REMARK       I    between atoms: N3_18  and  C16_19 
REMARK    3  A    between atoms: C16_19  and  C17_21 
REMARK    4  A    between atoms: C17_21  and  C18_22 
REMARK    5  A    between atoms: C18_22  and  N4_23 
ROOT
HETATM    1  N1  UNL     1      24.520   6.572  48.237  1.00  0.00    -0.191 NA
HETATM    2  C1  UNL     1      24.898   5.710  48.910  1.00  0.00     0.102 C 
HETATM    3  C2  UNL     1      25.390   4.638  49.737  1.00  0.00     0.073 A 
HETATM    4  C3  UNL     1      26.592   4.042  49.370  1.00  0.00     0.140 A 
HETATM    5  N2  UNL     1      27.048   3.041  50.144  1.00  0.00    -0.258 NA
HETATM    6  C4  UNL     1      26.405   2.592  51.242  1.00  0.00     0.078 A 
HETATM    7  C11 UNL     1      25.229   3.150  51.629  1.00  0.00     0.018 A 
HETATM    8  C12 UNL     1      24.702   4.195  50.868  1.00  0.00    -0.004 A 
HETATM    9  C13 UNL     1      23.545   4.801  51.181  1.00  0.00    -0.007 C 
HETATM   10  C14 UNL     1      22.888   4.254  52.407  1.00  0.00     0.086 C 
HETATM   11  C15 UNL     1      23.194   2.813  52.583  1.00  0.00     0.027 C 
HETATM   12  C23 UNL     1      24.506   2.796  52.677  1.00  0.00     0.013 C 
ENDROOT
BRANCH   6  13
HETATM   13  C5  UNL     1      26.946   1.503  52.045  1.00  0.00    -0.006 A 
HETATM   14  C6  UNL     1      27.919   1.726  53.023  1.00  0.00     0.014 A 
HETATM   15  C7  UNL     1      28.468   0.733  53.815  1.00  0.00     0.001 A 
HETATM   16  C8  UNL     1      27.995  -0.546  53.591  1.00  0.00     0.000 A 
HETATM   17  C9  UNL     1      27.039  -0.839  52.645  1.00  0.00     0.001 A 
HETATM   18  C10 UNL     1      26.540   0.192  51.897  1.00  0.00     0.014 A 
ENDBRANCH   6  13
BRANCH  11  19
HETATM   19  N3  UNL     1      22.250   1.752  52.629  1.00  0.00    -0.330 N 
HETATM   20  C16 UNL     1      21.905   1.050  51.466  1.00  0.00     0.223 C 
HETATM   21  O1  UNL     1      22.452   1.381  50.373  1.00  0.00    -0.273 OA
HETATM   22  H10 UNL     1      21.882   1.595  53.591  1.00  0.00     0.168 HD
BRANCH  20  23
HETATM   23  C17 UNL     1      20.894  -0.030  51.724  1.00  0.00     0.133 C 
BRANCH  23  24
HETATM   24  C18 UNL     1      19.529   0.508  52.005  1.00  0.00     0.283 C 
BRANCH  24  25
HETATM   25  N4  UNL     1      19.027   1.422  51.030  1.00  0.00     0.107 N 
HETATM   26  C19 UNL     1      17.995   0.862  50.214  1.00  0.00     0.300 C 
HETATM   27  C20 UNL     1      17.355   2.004  49.453  1.00  0.00     0.198 C 
HETATM   28  O2  UNL     1      16.693   2.901  50.261  1.00  0.00    -0.386 OA
HETATM   29  C21 UNL     1      17.244   3.048  51.526  1.00  0.00     0.215 C 
HETATM   30  C22 UNL     1      18.727   2.726  51.540  1.00  0.00     0.317 C 
HETATM   31 BR1  UNL     1      19.613   4.108  50.493  1.00  0.00    -0.056 Br
ENDBRANCH  24  25
ENDBRANCH  23  24
ENDBRANCH  20  23
ENDBRANCH  11  19
TORSDOF 5
ENDMDL
MODEL 5
REMARK VINA RESULT:      -8.8      4.093      7.980
REMARK  5 active torsions:
REMARK  status: ('A' for Active; 'I' for Inactive)
REMARK    1  A    between atoms: C4_6  and  C5_7 
REMARK    2  A    between atoms: C15_17  and  N3_18 
REMARK       I    between atoms: N3_18  and  C16_19 
REMARK    3  A    between atoms: C16_19  and  C17_21 
REMARK    4  A    between atoms: C17_21  and  C18_22 
REMARK    5  A    between atoms: C18_22  and  N4_23 
ROOT
HETATM    1  N1  UNL     1      24.717   6.687  48.195  1.00  0.00    -0.191 NA
HETATM    2  C1  UNL     1      25.047   5.805  48.868  1.00  0.00     0.102 C 
HETATM    3  C2  UNL     1      25.477   4.706  49.694  1.00  0.00     0.073 A 
HETATM    4  C3  UNL     1      26.655   4.057  49.337  1.00  0.00     0.140 A 
HETATM    5  N2  UNL     1      27.054   3.031  50.110  1.00  0.00    -0.258 NA
HETATM    6  C4  UNL     1      26.377   2.606  51.198  1.00  0.00     0.078 A 
HETATM    7  C11 UNL     1      25.224   3.217  51.575  1.00  0.00     0.018 A 
HETATM    8  C12 UNL     1      24.756   4.290  50.814  1.00  0.00    -0.004 A 
HETATM    9  C13 UNL     1      23.625   4.948  51.117  1.00  0.00    -0.007 C 
HETATM   10  C14 UNL     1      22.928   4.427  52.331  1.00  0.00     0.086 C 
HETATM   11  C15 UNL     1      23.164   2.972  52.503  1.00  0.00     0.027 C 
HETATM   12  C23 UNL     1      24.473   2.893  52.612  1.00  0.00     0.013 C 
ENDROOT
BRANCH   6  13
HETATM   13  C5  UNL     1      26.857   1.490  52.001  1.00  0.00    -0.006 A 
HETATM   14  C6  UNL     1      27.821   1.662  52.998  1.00  0.00     0.014 A 
HETATM   15  C7  UNL     1      28.314   0.641  53.790  1.00  0.00     0.001 A 
HETATM   16  C8  UNL     1      27.789  -0.615  53.547  1.00  0.00     0.000 A 
HETATM   17  C9  UNL     1      26.838  -0.860  52.583  1.00  0.00     0.001 A 
HETATM   18  C10 UNL     1      26.397   0.198  51.836  1.00  0.00     0.014 A 
ENDBRANCH   6  13
BRANCH  11  19
HETATM   19  N3  UNL     1      22.170   1.956  52.532  1.00  0.00    -0.330 N 
HETATM   20  C16 UNL     1      21.826   1.259  51.365  1.00  0.00     0.223 C 
HETATM   21  O1  UNL     1      22.418   1.553  50.285  1.00  0.00    -0.273 OA
HETATM   22  H10 UNL     1      21.770   1.826  53.485  1.00  0.00     0.168 HD
BRANCH  20  23
HETATM   23  C17 UNL     1      20.759   0.230  51.605  1.00  0.00     0.133 C 
BRANCH  23  24
HETATM   24  C18 UNL     1      19.396   0.827  51.738  1.00  0.00     0.283 C 
BRANCH  24  25
HETATM   25  N4  UNL     1      18.317  -0.104  51.642  1.00  0.00     0.107 N 
HETATM   26  C19 UNL     1      18.166  -0.910  52.814  1.00  0.00     0.300 C 
HETATM   27  C20 UNL     1      16.831  -1.615  52.704  1.00  0.00     0.198 C 
HETATM   28  O2  UNL     1      15.752  -0.761  52.744  1.00  0.00    -0.386 OA
HETATM   29  C21 UNL     1      15.993   0.493  52.200  1.00  0.00     0.215 C 
HETATM   30  C22 UNL     1      17.093   0.456  51.156  1.00  0.00     0.317 C 
HETATM   31 BR1  UNL     1      16.404  -0.569  49.650  1.00  0.00    -0.056 Br
ENDBRANCH  24  25
ENDBRANCH  23  24
ENDBRANCH  20  23
ENDBRANCH  11  19
TORSDOF 5
ENDMDL
MODEL 6
REMARK VINA RESULT:      -8.6      2.291      5.063
REMARK  5 active torsions:
REMARK  status: ('A' for Active; 'I' for Inactive)
REMARK    1  A    between atoms: C4_6  and  C5_7 
REMARK    2  A    between atoms: C15_17  and  N3_18 
REMARK       I    between atoms: N3_18  and  C16_19 
REMARK    3  A    between atoms: C16_19  and  C17_21 
REMARK    4  A    between atoms: C17_21  and  C18_22 
REMARK    5  A    between atoms: C18_22  and  N4_23 
ROOT
HETATM    1  N1  UNL     1      27.189   0.900  54.442  1.00  0.00    -0.191 NA
HETATM    2  C1  UNL     1      26.111   0.849  54.025  1.00  0.00     0.102 C 
HETATM    3  C2  UNL     1      24.767   0.763  53.511  1.00  0.00     0.073 A 
HETATM    4  C3  UNL     1      24.223  -0.506  53.346  1.00  0.00     0.140 A 
HETATM    5  N2  UNL     1      22.968  -0.583  52.866  1.00  0.00    -0.258 NA
HETATM    6  C4  UNL     1      22.224   0.495  52.540  1.00  0.00     0.078 A 
HETATM    7  C11 UNL     1      22.725   1.749  52.689  1.00  0.00     0.018 A 
HETATM    8  C12 UNL     1      24.022   1.896  53.183  1.00  0.00    -0.004 A 
HETATM    9  C13 UNL     1      24.592   3.100  53.359  1.00  0.00    -0.007 C 
HETATM   10  C14 UNL     1      23.714   4.247  52.980  1.00  0.00     0.086 C 
HETATM   11  C15 UNL     1      22.785   3.873  51.884  1.00  0.00     0.027 C 
HETATM   12  C23 UNL     1      22.100   2.876  52.401  1.00  0.00     0.013 C 
ENDROOT
BRANCH   6  13
HETATM   13  C5  UNL     1      20.869   0.353  52.025  1.00  0.00    -0.006 A 
HETATM   14  C6  UNL     1      19.830  -0.141  52.818  1.00  0.00     0.014 A 
HETATM   15  C7  UNL     1      18.526  -0.298  52.384  1.00  0.00     0.001 A 
HETATM   16  C8  UNL     1      18.280   0.072  51.075  1.00  0.00     0.000 A 
HETATM   17  C9  UNL     1      19.253   0.566  50.237  1.00  0.00     0.001 A 
HETATM   18  C10 UNL     1      20.521   0.693  50.733  1.00  0.00     0.014 A 
ENDBRANCH   6  13
BRANCH  11  19
HETATM   19  N3  UNL     1      22.706   4.484  50.604  1.00  0.00    -0.330 N 
HETATM   20  C16 UNL     1      23.414   3.957  49.515  1.00  0.00     0.223 C 
HETATM   21  O1  UNL     1      24.127   2.926  49.695  1.00  0.00    -0.273 OA
HETATM   22  H10 UNL     1      22.086   5.321  50.605  1.00  0.00     0.168 HD
BRANCH  20  23
HETATM   23  C17 UNL     1      23.199   4.744  48.254  1.00  0.00     0.133 C 
BRANCH  23  24
HETATM   24  C18 UNL     1      23.568   6.184  48.398  1.00  0.00     0.283 C 
BRANCH  24  25
HETATM   25  N4  UNL     1      24.931   6.491  48.102  1.00  0.00     0.107 N 
HETATM   26  C19 UNL     1      25.087   7.723  47.393  1.00  0.00     0.300 C 
HETATM   27  C20 UNL     1      26.561   8.071  47.418  1.00  0.00     0.198 C 
HETATM   28  O2  UNL     1      27.040   8.347  48.678  1.00  0.00    -0.386 OA
HETATM   29  C21 UNL     1      26.410   7.647  49.697  1.00  0.00     0.215 C 
HETATM   30  C22 UNL     1      25.826   6.335  49.207  1.00  0.00     0.317 C 
HETATM   31 BR1  UNL     1      27.331   5.193  48.733  1.00  0.00    -0.056 Br
ENDBRANCH  24  25
ENDBRANCH  23  24
ENDBRANCH  20  23
ENDBRANCH  11  19
TORSDOF 5
ENDMDL
MODEL 7
REMARK VINA RESULT:      -8.6      4.489      7.484
REMARK  5 active torsions:
REMARK  status: ('A' for Active; 'I' for Inactive)
REMARK    1  A    between atoms: C4_6  and  C5_7 
REMARK    2  A    between atoms: C15_17  and  N3_18 
REMARK       I    between atoms: N3_18  and  C16_19 
REMARK    3  A    between atoms: C16_19  and  C17_21 
REMARK    4  A    between atoms: C17_21  and  C18_22 
REMARK    5  A    between atoms: C18_22  and  N4_23 
ROOT
HETATM    1  N1  UNL     1      17.656  -3.015  53.837  1.00  0.00    -0.191 NA
HETATM    2  C1  UNL     1      17.975  -2.053  53.277  1.00  0.00     0.102 C 
HETATM    3  C2  UNL     1      18.350  -0.855  52.570  1.00  0.00     0.073 A 
HETATM    4  C3  UNL     1      17.506  -0.418  51.554  1.00  0.00     0.140 A 
HETATM    5  N2  UNL     1      17.860   0.701  50.896  1.00  0.00    -0.258 NA
HETATM    6  C4  UNL     1      18.977   1.408  51.168  1.00  0.00     0.078 A 
HETATM    7  C11 UNL     1      19.823   1.009  52.153  1.00  0.00     0.018 A 
HETATM    8  C12 UNL     1      19.512  -0.145  52.874  1.00  0.00    -0.004 A 
HETATM    9  C13 UNL     1      20.295  -0.608  53.863  1.00  0.00    -0.007 C 
HETATM   10  C14 UNL     1      21.512   0.222  54.110  1.00  0.00     0.086 C 
HETATM   11  C15 UNL     1      21.978   0.878  52.862  1.00  0.00     0.027 C 
HETATM   12  C23 UNL     1      20.944   1.610  52.508  1.00  0.00     0.013 C 
ENDROOT
BRANCH   6  13
HETATM   13  C5  UNL     1      19.310   2.614  50.422  1.00  0.00    -0.006 A 
HETATM   14  C6  UNL     1      19.825   2.558  49.125  1.00  0.00     0.014 A 
HETATM   15  C7  UNL     1      20.159   3.668  48.370  1.00  0.00     0.001 A 
HETATM   16  C8  UNL     1      19.953   4.892  48.978  1.00  0.00     0.000 A 
HETATM   17  C9  UNL     1      19.449   5.024  50.252  1.00  0.00     0.001 A 
HETATM   18  C10 UNL     1      19.142   3.883  50.941  1.00  0.00     0.014 A 
ENDBRANCH   6  13
BRANCH  11  19
HETATM   19  N3  UNL     1      23.248   0.712  52.249  1.00  0.00    -0.330 N 
HETATM   20  C16 UNL     1      24.233   1.703  52.364  1.00  0.00     0.223 C 
HETATM   21  O1  UNL     1      23.967   2.749  53.027  1.00  0.00    -0.273 OA
HETATM   22  H10 UNL     1      23.322  -0.193  51.737  1.00  0.00     0.168 HD
BRANCH  20  23
HETATM   23  C17 UNL     1      25.501   1.339  51.647  1.00  0.00     0.133 C 
BRANCH  23  24
HETATM   24  C18 UNL     1      26.207   0.178  52.268  1.00  0.00     0.283 C 
BRANCH  24  25
HETATM   25  N4  UNL     1      27.513   0.464  52.770  1.00  0.00     0.107 N 
HETATM   26  C19 UNL     1      27.709   1.849  53.068  1.00  0.00     0.300 C 
HETATM   27  C20 UNL     1      28.993   1.959  53.863  1.00  0.00     0.198 C 
HETATM   28  O2  UNL     1      28.929   1.357  55.098  1.00  0.00    -0.386 OA
HETATM   29  C21 UNL     1      28.098   0.247  55.153  1.00  0.00     0.215 C 
HETATM   30  C22 UNL     1      27.959  -0.424  53.799  1.00  0.00     0.317 C 
HETATM   31 BR1  UNL     1      29.701  -1.180  53.366  1.00  0.00    -0.056 Br
ENDBRANCH  24  25
ENDBRANCH  23  24
ENDBRANCH  20  23
ENDBRANCH  11  19
TORSDOF 5
ENDMDL
MODEL 8
REMARK VINA RESULT:      -8.5      3.349      9.475
REMARK  5 active torsions:
REMARK  status: ('A' for Active; 'I' for Inactive)
REMARK    1  A    between atoms: C4_6  and  C5_7 
REMARK    2  A    between atoms: C15_17  and  N3_18 
REMARK       I    between atoms: N3_18  and  C16_19 
REMARK    3  A    between atoms: C16_19  and  C17_21 
REMARK    4  A    between atoms: C17_21  and  C18_22 
REMARK    5  A    between atoms: C18_22  and  N4_23 
ROOT
HETATM    1  N1  UNL     1      30.817   9.586  48.929  1.00  0.00    -0.191 NA
HETATM    2  C1  UNL     1      29.704   9.295  49.055  1.00  0.00     0.102 C 
HETATM    3  C2  UNL     1      28.312   8.956  49.215  1.00  0.00     0.073 A 
HETATM    4  C3  UNL     1      27.459   9.950  49.682  1.00  0.00     0.140 A 
HETATM    5  N2  UNL     1      26.160   9.630  49.831  1.00  0.00    -0.258 NA
HETATM    6  C4  UNL     1      25.654   8.410  49.555  1.00  0.00     0.078 A 
HETATM    7  C11 UNL     1      26.459   7.416  49.098  1.00  0.00     0.018 A 
HETATM    8  C12 UNL     1      27.818   7.685  48.921  1.00  0.00    -0.004 A 
HETATM    9  C13 UNL     1      28.682   6.758  48.474  1.00  0.00    -0.007 C 
HETATM   10  C14 UNL     1      28.055   5.433  48.189  1.00  0.00     0.086 C 
HETATM   11  C15 UNL     1      26.893   5.186  49.079  1.00  0.00     0.027 C 
HETATM   12  C23 UNL     1      26.085   6.185  48.799  1.00  0.00     0.013 C 
ENDROOT
BRANCH   6  13
HETATM   13  C5  UNL     1      24.238   8.119  49.733  1.00  0.00    -0.006 A 
HETATM   14  C6  UNL     1      23.766   7.423  50.849  1.00  0.00     0.014 A 
HETATM   15  C7  UNL     1      22.435   7.119  51.071  1.00  0.00     0.001 A 
HETATM   16  C8  UNL     1      21.549   7.551  50.102  1.00  0.00     0.000 A 
HETATM   17  C9  UNL     1      21.941   8.242  48.978  1.00  0.00     0.001 A 
HETATM   18  C10 UNL     1      23.275   8.507  48.823  1.00  0.00     0.014 A 
ENDBRANCH   6  13
BRANCH  11  19
HETATM   19  N3  UNL     1      26.749   4.108  49.994  1.00  0.00    -0.330 N 
HETATM   20  C16 UNL     1      25.500   3.506  50.198  1.00  0.00     0.223 C 
HETATM   21  O1  UNL     1      24.503   3.941  49.551  1.00  0.00    -0.273 OA
HETATM   22  H10 UNL     1      27.651   3.860  50.454  1.00  0.00     0.168 HD
BRANCH  20  23
HETATM   23  C17 UNL     1      25.558   2.389  51.201  1.00  0.00     0.133 C 
BRANCH  23  24
HETATM   24  C18 UNL     1      26.869   2.315  51.913  1.00  0.00     0.283 C 
BRANCH  24  25
HETATM   25  N4  UNL     1      26.911   1.400  53.008  1.00  0.00     0.107 N 
HETATM   26  C19 UNL     1      25.616   1.092  53.531  1.00  0.00     0.300 C 
HETATM   27  C20 UNL     1      25.777  -0.095  54.457  1.00  0.00     0.198 C 
HETATM   28  O2  UNL     1      26.160  -1.249  53.811  1.00  0.00    -0.386 OA
HETATM   29  C21 UNL     1      26.962  -1.043  52.697  1.00  0.00     0.215 C 
HETATM   30  C22 UNL     1      27.741   0.255  52.791  1.00  0.00     0.317 C 
HETATM   31 BR1  UNL     1      29.024   0.036  54.241  1.00  0.00    -0.056 Br
ENDBRANCH  24  25
ENDBRANCH  23  24
ENDBRANCH  20  23
ENDBRANCH  11  19
TORSDOF 5
ENDMDL
MODEL 9
REMARK VINA RESULT:      -8.3      1.950      2.820
REMARK  5 active torsions:
REMARK  status: ('A' for Active; 'I' for Inactive)
REMARK    1  A    between atoms: C4_6  and  C5_7 
REMARK    2  A    between atoms: C15_17  and  N3_18 
REMARK       I    between atoms: N3_18  and  C16_19 
REMARK    3  A    between atoms: C16_19  and  C17_21 
REMARK    4  A    between atoms: C17_21  and  C18_22 
REMARK    5  A    between atoms: C18_22  and  N4_23 
ROOT
HETATM    1  N1  UNL     1      18.791   0.905  50.095  1.00  0.00    -0.191 NA
HETATM    2  C1  UNL     1      19.877   0.961  50.492  1.00  0.00     0.102 C 
HETATM    3  C2  UNL     1      21.224   1.011  50.999  1.00  0.00     0.073 A 
HETATM    4  C3  UNL     1      21.524   0.223  52.106  1.00  0.00     0.140 A 
HETATM    5  N2  UNL     1      22.783   0.272  52.578  1.00  0.00    -0.258 NA
HETATM    6  C4  UNL     1      23.754   1.040  52.039  1.00  0.00     0.078 A 
HETATM    7  C11 UNL     1      23.496   1.822  50.959  1.00  0.00     0.018 A 
HETATM    8  C12 UNL     1      22.207   1.815  50.421  1.00  0.00    -0.004 A 
HETATM    9  C13 UNL     1      21.869   2.559  49.355  1.00  0.00    -0.007 C 
HETATM   10  C14 UNL     1      22.991   3.382  48.810  1.00  0.00     0.086 C 
HETATM   11  C15 UNL     1      23.939   3.773  49.882  1.00  0.00     0.027 C 
HETATM   12  C23 UNL     1      24.356   2.616  50.348  1.00  0.00     0.013 C 
ENDROOT
BRANCH   6  13
HETATM   13  C5  UNL     1      25.102   1.054  52.591  1.00  0.00    -0.006 A 
HETATM   14  C6  UNL     1      26.006   0.016  52.348  1.00  0.00     0.014 A 
HETATM   15  C7  UNL     1      27.296  -0.025  52.845  1.00  0.00     0.001 A 
HETATM   16  C8  UNL     1      27.674   1.051  53.625  1.00  0.00     0.000 A 
HETATM   17  C9  UNL     1      26.839   2.108  53.905  1.00  0.00     0.001 A 
HETATM   18  C10 UNL     1      25.575   2.082  53.382  1.00  0.00     0.014 A 
ENDBRANCH   6  13
BRANCH  11  19
HETATM   19  N3  UNL     1      24.273   5.100  50.266  1.00  0.00    -0.330 N 
HETATM   20  C16 UNL     1      25.395   5.741  49.722  1.00  0.00     0.223 C 
HETATM   21  O1  UNL     1      26.104   5.113  48.882  1.00  0.00    -0.273 OA
HETATM   22  H10 UNL     1      23.603   5.487  50.964  1.00  0.00     0.168 HD
BRANCH  20  23
HETATM   23  C17 UNL     1      25.575   7.133  50.255  1.00  0.00     0.133 C 
BRANCH  23  24
HETATM   24  C18 UNL     1      25.498   8.177  49.188  1.00  0.00     0.283 C 
BRANCH  24  25
HETATM   25  N4  UNL     1      26.745   8.781  48.843  1.00  0.00     0.107 N 
HETATM   26  C19 UNL     1      27.517   9.164  49.985  1.00  0.00     0.300 C 
HETATM   27  C20 UNL     1      28.910   9.496  49.492  1.00  0.00     0.198 C 
HETATM   28  O2  UNL     1      29.586   8.413  48.979  1.00  0.00    -0.386 OA
HETATM   29  C21 UNL     1      28.773   7.466  48.371  1.00  0.00     0.215 C 
HETATM   30  C22 UNL     1      27.488   8.076  47.844  1.00  0.00     0.317 C 
HETATM   31 BR1  UNL     1      27.986   9.258  46.378  1.00  0.00    -0.056 Br
ENDBRANCH  24  25
ENDBRANCH  23  24
ENDBRANCH  20  23
ENDBRANCH  11  19
TORSDOF 5
ENDMDL
