MODEL 1
REMARK VINA RESULT:      -9.1      0.000      0.000
REMARK  4 active torsions:
REMARK  status: ('A' for Active; 'I' for Inactive)
REMARK    1  A    between atoms: C3_3  and  C4_5 
REMARK    2  A    between atoms: C11_13  and  N2_14 
REMARK    3  A    between atoms: C12_16  and  N4_17 
REMARK    4  A    between atoms: N4_17  and  C13_18 
ROOT
HETATM    1  C4  UNL     1      19.649  -0.082  52.342  1.00  0.00     0.048 C 
HETATM    2  C5  UNL     1      19.674   0.372  51.115  1.00  0.00     0.008 C 
HETATM    3  C6  UNL     1      20.525   1.050  50.152  1.00  0.00     0.056 C 
HETATM    4  C7  UNL     1      21.882   1.404  50.586  1.00  0.00    -0.022 C 
HETATM    5  C8  UNL     1      22.858   1.250  51.496  1.00  0.00     0.015 C 
HETATM    6  C9  UNL     1      22.913   0.456  52.694  1.00  0.00     0.057 A 
HETATM    7  C10 UNL     1      21.907  -0.098  53.487  1.00  0.00     0.161 A 
HETATM    8  N1  UNL     1      22.295  -0.779  54.577  1.00  0.00    -0.044 NA
HETATM    9  C11 UNL     1      23.609  -0.918  54.887  1.00  0.00     0.724 A 
HETATM   10  N3  UNL     1      24.523  -0.366  54.088  1.00  0.00    -0.044 NA
HETATM   11  C12 UNL     1      24.229   0.329  52.983  1.00  0.00     0.161 A 
HETATM   12  N5  UNL     1      20.503  -0.157  53.452  1.00  0.00    -0.339 N 
HETATM   13  H17 UNL     1      20.067  -0.273  54.373  1.00  0.00     0.167 HD
ENDROOT
BRANCH  11  14
HETATM   14  N4  UNL     1      25.288   0.826  52.187  1.00  0.00    -0.340 N 
HETATM   15  H12 UNL     1      25.481   1.223  51.255  1.00  0.00     0.167 HD
BRANCH  14  16
HETATM   16  C13 UNL     1      26.618   0.856  52.688  1.00  0.00     0.035 A 
HETATM   17  C14 UNL     1      27.103   2.113  53.076  1.00  0.00     0.029 A 
HETATM   18  C15 UNL     1      28.387   2.245  53.606  1.00  0.00     0.004 A 
HETATM   19  C16 UNL     1      29.216   1.173  53.767  1.00  0.00     0.019 A 
HETATM   20  C17 UNL     1      28.786  -0.063  53.404  1.00  0.00     0.013 A 
HETATM   21 BR1  UNL     1      29.797  -1.644  53.558  1.00  0.00    -0.051 Br
HETATM   22  C18 UNL     1      27.523  -0.195  52.882  1.00  0.00     0.048 A 
ENDBRANCH  14  16
ENDBRANCH  11  14
BRANCH   9  23
HETATM   23  N2  UNL     1      23.981  -1.644  56.052  1.00  0.00    -0.231 N 
HETATM   24  H10 UNL     1      24.985  -1.667  56.359  1.00  0.00     0.174 HD
HETATM   25  H11 UNL     1      23.252  -2.142  56.583  1.00  0.00     0.174 HD
ENDBRANCH   9  23
BRANCH   1  26
HETATM   26  C3  UNL     1      18.354  -0.651  52.536  1.00  0.00     0.040 A 
HETATM   27  C2  UNL     1      17.126  -0.567  52.161  1.00  0.00     0.113 A 
HETATM   28  C1  UNL     1      15.697  -0.786  52.014  1.00  0.00     0.032 C 
HETATM   29 CL1  UNL     1      17.688  -1.915  53.539  1.00  0.00    -0.174 Cl
ENDBRANCH   1  26
TORSDOF 4
ENDMDL
MODEL 2
REMARK VINA RESULT:      -8.7      4.250      5.277
REMARK  4 active torsions:
REMARK  status: ('A' for Active; 'I' for Inactive)
REMARK    1  A    between atoms: C3_3  and  C4_5 
REMARK    2  A    between atoms: C11_13  and  N2_14 
REMARK    3  A    between atoms: C12_16  and  N4_17 
REMARK    4  A    between atoms: N4_17  and  C13_18 
ROOT
HETATM    1  C4  UNL     1      22.293   0.933  52.266  1.00  0.00     0.048 C 
HETATM    2  C5  UNL     1      21.703   0.861  51.100  1.00  0.00     0.008 C 
HETATM    3  C6  UNL     1      21.792   1.336  49.730  1.00  0.00     0.056 C 
HETATM    4  C7  UNL     1      22.913   2.224  49.397  1.00  0.00    -0.022 C 
HETATM    5  C8  UNL     1      24.099   2.737  49.763  1.00  0.00     0.015 C 
HETATM    6  C9  UNL     1      24.896   2.526  50.942  1.00  0.00     0.057 A 
HETATM    7  C10 UNL     1      24.566   2.046  52.210  1.00  0.00     0.161 A 
HETATM    8  N1  UNL     1      25.554   1.993  53.118  1.00  0.00    -0.044 NA
HETATM    9  C11 UNL     1      26.814   2.390  52.808  1.00  0.00     0.724 A 
HETATM   10  N3  UNL     1      27.066   2.838  51.577  1.00  0.00    -0.044 NA
HETATM   11  C12 UNL     1      26.145   2.926  50.610  1.00  0.00     0.161 A 
HETATM   12  N5  UNL     1      23.409   1.556  52.841  1.00  0.00    -0.339 N 
HETATM   13  H17 UNL     1      23.406   1.680  53.859  1.00  0.00     0.167 HD
ENDROOT
BRANCH  11  14
HETATM   14  N4  UNL     1      26.543   3.372  49.327  1.00  0.00    -0.340 N 
HETATM   15  H12 UNL     1      26.714   3.029  48.369  1.00  0.00     0.167 HD
BRANCH  14  16
HETATM   16  C13 UNL     1      26.864   4.738  49.102  1.00  0.00     0.035 A 
HETATM   17  C14 UNL     1      28.082   4.987  48.455  1.00  0.00     0.029 A 
HETATM   18  C15 UNL     1      28.476   6.294  48.163  1.00  0.00     0.004 A 
HETATM   19  C16 UNL     1      27.705   7.371  48.492  1.00  0.00     0.019 A 
HETATM   20  C17 UNL     1      26.518   7.175  49.121  1.00  0.00     0.013 A 
HETATM   21 BR1  UNL     1      25.336   8.544  49.643  1.00  0.00    -0.051 Br
HETATM   22  C18 UNL     1      26.128   5.890  49.408  1.00  0.00     0.048 A 
ENDBRANCH  14  16
ENDBRANCH  11  14
BRANCH   9  23
HETATM   23  N2  UNL     1      27.833   2.321  53.797  1.00  0.00    -0.231 N 
HETATM   24  H10 UNL     1      28.550   1.553  53.762  1.00  0.00     0.174 HD
HETATM   25  H11 UNL     1      27.854   3.033  54.542  1.00  0.00     0.174 HD
ENDBRANCH   9  23
BRANCH   1  26
HETATM   26  C3  UNL     1      21.528   0.121  53.157  1.00  0.00     0.040 A 
HETATM   27  C2  UNL     1      20.415  -0.515  53.272  1.00  0.00     0.113 A 
HETATM   28  C1  UNL     1      19.318  -1.320  53.781  1.00  0.00     0.032 C 
HETATM   29 CL1  UNL     1      21.743  -0.490  54.778  1.00  0.00    -0.174 Cl
ENDBRANCH   1  26
TORSDOF 4
ENDMDL
MODEL 3
REMARK VINA RESULT:      -8.5      6.736      9.859
REMARK  4 active torsions:
REMARK  status: ('A' for Active; 'I' for Inactive)
REMARK    1  A    between atoms: C3_3  and  C4_5 
REMARK    2  A    between atoms: C11_13  and  N2_14 
REMARK    3  A    between atoms: C12_16  and  N4_17 
REMARK    4  A    between atoms: N4_17  and  C13_18 
ROOT
HETATM    1  C4  UNL     1      27.796   7.935  49.203  1.00  0.00     0.048 C 
HETATM    2  C5  UNL     1      28.539   7.144  48.471  1.00  0.00     0.008 C 
HETATM    3  C6  UNL     1      28.704   5.755  48.076  1.00  0.00     0.056 C 
HETATM    4  C7  UNL     1      27.751   4.782  48.623  1.00  0.00    -0.022 C 
HETATM    5  C8  UNL     1      26.589   4.570  49.263  1.00  0.00     0.015 C 
HETATM    6  C9  UNL     1      25.611   5.493  49.773  1.00  0.00     0.057 A 
HETATM    7  C10 UNL     1      25.695   6.846  50.102  1.00  0.00     0.161 A 
HETATM    8  N1  UNL     1      24.586   7.426  50.587  1.00  0.00    -0.044 NA
HETATM    9  C11 UNL     1      23.437   6.721  50.746  1.00  0.00     0.724 A 
HETATM   10  N3  UNL     1      23.420   5.431  50.411  1.00  0.00    -0.044 NA
HETATM   11  C12 UNL     1      24.476   4.771  49.921  1.00  0.00     0.161 A 
HETATM   12  N5  UNL     1      26.685   7.844  50.052  1.00  0.00    -0.339 N 
HETATM   13  H17 UNL     1      26.553   8.596  50.736  1.00  0.00     0.167 HD
ENDROOT
BRANCH  11  14
HETATM   14  N4  UNL     1      24.322   3.412  49.555  1.00  0.00    -0.340 N 
HETATM   15  H12 UNL     1      24.452   2.770  48.758  1.00  0.00     0.167 HD
BRANCH  14  16
HETATM   16  C13 UNL     1      23.820   2.464  50.487  1.00  0.00     0.035 A 
HETATM   17  C14 UNL     1      24.711   2.051  51.489  1.00  0.00     0.029 A 
HETATM   18  C15 UNL     1      24.306   1.144  52.468  1.00  0.00     0.004 A 
HETATM   19  C16 UNL     1      23.045   0.624  52.494  1.00  0.00     0.019 A 
HETATM   20  C17 UNL     1      22.151   0.996  51.542  1.00  0.00     0.013 A 
HETATM   21 BR1  UNL     1      20.376   0.377  51.431  1.00  0.00    -0.051 Br
HETATM   22  C18 UNL     1      22.546   1.889  50.578  1.00  0.00     0.048 A 
ENDBRANCH  14  16
ENDBRANCH  11  14
BRANCH   9  23
HETATM   23  N2  UNL     1      22.284   7.370  51.265  1.00  0.00    -0.231 N 
HETATM   24  H10 UNL     1      21.869   8.193  50.759  1.00  0.00     0.174 HD
HETATM   25  H11 UNL     1      21.866   7.022  52.141  1.00  0.00     0.174 HD
ENDBRANCH   9  23
BRANCH   1  26
HETATM   26  C3  UNL     1      28.327   9.250  49.040  1.00  0.00     0.040 A 
HETATM   27  C2  UNL     1      29.415   9.935  49.088  1.00  0.00     0.113 A 
HETATM   28  C1  UNL     1      30.381  11.020  49.044  1.00  0.00     0.032 C 
HETATM   29 CL1  UNL     1      27.665  10.820  48.658  1.00  0.00    -0.174 Cl
ENDBRANCH   1  26
TORSDOF 4
ENDMDL
MODEL 4
REMARK VINA RESULT:      -8.5      5.087      8.429
REMARK  4 active torsions:
REMARK  status: ('A' for Active; 'I' for Inactive)
REMARK    1  A    between atoms: C3_3  and  C4_5 
REMARK    2  A    between atoms: C11_13  and  N2_14 
REMARK    3  A    between atoms: C12_16  and  N4_17 
REMARK    4  A    between atoms: N4_17  and  C13_18 
ROOT
HETATM    1  C4  UNL     1      26.363   0.504  52.491  1.00  0.00     0.048 C 
HETATM    2  C5  UNL     1      25.209  -0.028  52.806  1.00  0.00     0.008 C 
HETATM    3  C6  UNL     1      23.779   0.231  52.800  1.00  0.00     0.056 C 
HETATM    4  C7  UNL     1      23.331   1.522  52.264  1.00  0.00    -0.022 C 
HETATM    5  C8  UNL     1      23.639   2.628  51.568  1.00  0.00     0.015 C 
HETATM    6  C9  UNL     1      24.865   3.034  50.934  1.00  0.00     0.057 A 
HETATM    7  C10 UNL     1      26.186   2.631  51.128  1.00  0.00     0.161 A 
HETATM    8  N1  UNL     1      27.124   3.232  50.379  1.00  0.00    -0.044 NA
HETATM    9  C11 UNL     1      26.793   4.188  49.475  1.00  0.00     0.724 A 
HETATM   10  N3  UNL     1      25.511   4.529  49.335  1.00  0.00    -0.044 NA
HETATM   11  C12 UNL     1      24.511   3.984  50.038  1.00  0.00     0.161 A 
HETATM   12  N5  UNL     1      26.855   1.695  51.938  1.00  0.00    -0.339 N 
HETATM   13  H17 UNL     1      27.832   1.935  52.133  1.00  0.00     0.167 HD
ENDROOT
BRANCH  11  14
HETATM   14  N4  UNL     1      23.184   4.393  49.767  1.00  0.00    -0.340 N 
HETATM   15  H12 UNL     1      22.316   4.689  50.241  1.00  0.00     0.167 HD
BRANCH  14  16
HETATM   16  C13 UNL     1      22.709   4.473  48.429  1.00  0.00     0.035 A 
HETATM   17  C14 UNL     1      22.345   3.258  47.830  1.00  0.00     0.029 A 
HETATM   18  C15 UNL     1      21.842   3.232  46.530  1.00  0.00     0.004 A 
HETATM   19  C16 UNL     1      21.685   4.370  45.792  1.00  0.00     0.019 A 
HETATM   20  C17 UNL     1      22.026   5.568  46.334  1.00  0.00     0.013 A 
HETATM   21 BR1  UNL     1      21.874   7.228  45.459  1.00  0.00    -0.051 Br
HETATM   22  C18 UNL     1      22.521   5.596  47.614  1.00  0.00     0.048 A 
ENDBRANCH  14  16
ENDBRANCH  11  14
BRANCH   9  23
HETATM   23  N2  UNL     1      27.814   4.805  48.701  1.00  0.00    -0.231 N 
HETATM   24  H10 UNL     1      27.662   5.762  48.295  1.00  0.00     0.174 HD
HETATM   25  H11 UNL     1      28.698   4.298  48.548  1.00  0.00     0.174 HD
ENDBRANCH   9  23
BRANCH   1  26
HETATM   26  C3  UNL     1      27.359  -0.459  52.835  1.00  0.00     0.040 A 
HETATM   27  C2  UNL     1      28.536  -0.588  53.340  1.00  0.00     0.113 A 
HETATM   28  C1  UNL     1      29.787  -1.139  53.832  1.00  0.00     0.032 C 
HETATM   29 CL1  UNL     1      27.509  -2.194  52.708  1.00  0.00    -0.174 Cl
ENDBRANCH   1  26
TORSDOF 4
ENDMDL
MODEL 5
REMARK VINA RESULT:      -8.4      4.091      8.026
REMARK  4 active torsions:
REMARK  status: ('A' for Active; 'I' for Inactive)
REMARK    1  A    between atoms: C3_3  and  C4_5 
REMARK    2  A    between atoms: C11_13  and  N2_14 
REMARK    3  A    between atoms: C12_16  and  N4_17 
REMARK    4  A    between atoms: N4_17  and  C13_18 
ROOT
HETATM    1  C4  UNL     1      26.477   0.507  52.747  1.00  0.00     0.048 C 
HETATM    2  C5  UNL     1      26.907   1.518  52.035  1.00  0.00     0.008 C 
HETATM    3  C6  UNL     1      26.461   2.564  51.131  1.00  0.00     0.056 C 
HETATM    4  C7  UNL     1      25.026   2.624  50.826  1.00  0.00    -0.022 C 
HETATM    5  C8  UNL     1      23.784   2.221  51.137  1.00  0.00     0.015 C 
HETATM    6  C9  UNL     1      23.309   1.340  52.171  1.00  0.00     0.057 A 
HETATM    7  C10 UNL     1      23.956   0.360  52.924  1.00  0.00     0.161 A 
HETATM    8  N1  UNL     1      23.211  -0.319  53.811  1.00  0.00    -0.044 NA
HETATM    9  C11 UNL     1      21.888  -0.057  53.962  1.00  0.00     0.724 A 
HETATM   10  N3  UNL     1      21.328   0.893  53.214  1.00  0.00    -0.044 NA
HETATM   11  C12 UNL     1      21.991   1.620  52.306  1.00  0.00     0.161 A 
HETATM   12  N5  UNL     1      25.266  -0.140  53.029  1.00  0.00    -0.339 N 
HETATM   13  H17 UNL     1      25.317  -1.109  53.361  1.00  0.00     0.167 HD
ENDROOT
BRANCH  11  14
HETATM   14  N4  UNL     1      21.299   2.635  51.605  1.00  0.00    -0.340 N 
HETATM   15  H12 UNL     1      21.428   3.584  51.220  1.00  0.00     0.167 HD
BRANCH  14  16
HETATM   16  C13 UNL     1      19.940   2.457  51.228  1.00  0.00     0.035 A 
HETATM   17  C14 UNL     1      19.677   1.390  50.357  1.00  0.00     0.029 A 
HETATM   18  C15 UNL     1      18.372   1.114  49.949  1.00  0.00     0.004 A 
HETATM   19  C16 UNL     1      17.309   1.860  50.370  1.00  0.00     0.019 A 
HETATM   20  C17 UNL     1      17.520   2.904  51.213  1.00  0.00     0.013 A 
HETATM   21 BR1  UNL     1      16.172   4.032  51.888  1.00  0.00    -0.051 Br
HETATM   22  C18 UNL     1      18.803   3.177  51.617  1.00  0.00     0.048 A 
ENDBRANCH  14  16
ENDBRANCH  11  14
BRANCH   9  23
HETATM   23  N2  UNL     1      21.131  -0.800  54.910  1.00  0.00    -0.231 N 
HETATM   24  H10 UNL     1      21.466  -1.744  55.228  1.00  0.00     0.174 HD
HETATM   25  H11 UNL     1      20.256  -0.397  55.275  1.00  0.00     0.174 HD
ENDBRANCH   9  23
BRANCH   1  26
HETATM   26  C3  UNL     1      27.623  -0.046  53.395  1.00  0.00     0.040 A 
HETATM   27  C2  UNL     1      28.576  -0.900  53.252  1.00  0.00     0.113 A 
HETATM   28  C1  UNL     1      29.750  -1.726  53.474  1.00  0.00     0.032 C 
HETATM   29 CL1  UNL     1      28.409   0.178  54.938  1.00  0.00    -0.174 Cl
ENDBRANCH   1  26
TORSDOF 4
ENDMDL
MODEL 6
REMARK VINA RESULT:      -8.4      6.207      9.218
REMARK  4 active torsions:
REMARK  status: ('A' for Active; 'I' for Inactive)
REMARK    1  A    between atoms: C3_3  and  C4_5 
REMARK    2  A    between atoms: C11_13  and  N2_14 
REMARK    3  A    between atoms: C12_16  and  N4_17 
REMARK    4  A    between atoms: N4_17  and  C13_18 
ROOT
HETATM    1  C4  UNL     1      27.307   7.594  49.178  1.00  0.00     0.048 C 
HETATM    2  C5  UNL     1      28.066   6.790  48.478  1.00  0.00     0.008 C 
HETATM    3  C6  UNL     1      28.302   5.385  48.191  1.00  0.00     0.056 C 
HETATM    4  C7  UNL     1      27.437   4.406  48.860  1.00  0.00    -0.022 C 
HETATM    5  C8  UNL     1      26.320   4.180  49.570  1.00  0.00     0.015 C 
HETATM    6  C9  UNL     1      25.307   5.082  50.048  1.00  0.00     0.057 A 
HETATM    7  C10 UNL     1      25.319   6.460  50.262  1.00  0.00     0.161 A 
HETATM    8  N1  UNL     1      24.197   7.012  50.751  1.00  0.00    -0.044 NA
HETATM    9  C11 UNL     1      23.103   6.256  51.021  1.00  0.00     0.724 A 
HETATM   10  N3  UNL     1      23.154   4.943  50.793  1.00  0.00    -0.044 NA
HETATM   11  C12 UNL     1      24.228   4.308  50.309  1.00  0.00     0.161 A 
HETATM   12  N5  UNL     1      26.240   7.508  50.084  1.00  0.00    -0.339 N 
HETATM   13  H17 UNL     1      26.090   8.306  50.710  1.00  0.00     0.167 HD
ENDROOT
BRANCH  11  14
HETATM   14  N4  UNL     1      24.146   2.917  50.063  1.00  0.00    -0.340 N 
HETATM   15  H12 UNL     1      24.173   2.229  49.294  1.00  0.00     0.167 HD
BRANCH  14  16
HETATM   16  C13 UNL     1      23.951   2.002  51.134  1.00  0.00     0.035 A 
HETATM   17  C14 UNL     1      22.680   1.418  51.222  1.00  0.00     0.029 A 
HETATM   18  C15 UNL     1      22.396   0.486  52.221  1.00  0.00     0.004 A 
HETATM   19  C16 UNL     1      23.329   0.109  53.144  1.00  0.00     0.019 A 
HETATM   20  C17 UNL     1      24.573   0.651  53.094  1.00  0.00     0.013 A 
HETATM   21 BR1  UNL     1      25.973   0.243  54.285  1.00  0.00    -0.051 Br
HETATM   22  C18 UNL     1      24.854   1.567  52.112  1.00  0.00     0.048 A 
ENDBRANCH  14  16
ENDBRANCH  11  14
BRANCH   9  23
HETATM   23  N2  UNL     1      21.933   6.876  51.540  1.00  0.00    -0.231 N 
HETATM   24  H10 UNL     1      21.600   6.643  52.509  1.00  0.00     0.174 HD
HETATM   25  H11 UNL     1      21.423   7.551  50.951  1.00  0.00     0.174 HD
ENDBRANCH   9  23
BRANCH   1  26
HETATM   26  C3  UNL     1      27.744   8.920  48.884  1.00  0.00     0.040 A 
HETATM   27  C2  UNL     1      28.756   9.605  48.479  1.00  0.00     0.113 A 
HETATM   28  C1  UNL     1      29.629  10.695  48.076  1.00  0.00     0.032 C 
HETATM   29 CL1  UNL     1      27.029  10.512  48.954  1.00  0.00    -0.174 Cl
ENDBRANCH   1  26
TORSDOF 4
ENDMDL
MODEL 7
REMARK VINA RESULT:      -8.4      4.975      8.233
REMARK  4 active torsions:
REMARK  status: ('A' for Active; 'I' for Inactive)
REMARK    1  A    between atoms: C3_3  and  C4_5 
REMARK    2  A    between atoms: C11_13  and  N2_14 
REMARK    3  A    between atoms: C12_16  and  N4_17 
REMARK    4  A    between atoms: N4_17  and  C13_18 
ROOT
HETATM    1  C4  UNL     1      26.473   0.126  52.740  1.00  0.00     0.048 C 
HETATM    2  C5  UNL     1      25.385  -0.490  53.128  1.00  0.00     0.008 C 
HETATM    3  C6  UNL     1      23.946  -0.325  53.247  1.00  0.00     0.056 C 
HETATM    4  C7  UNL     1      23.375   0.951  52.797  1.00  0.00    -0.022 C 
HETATM    5  C8  UNL     1      23.555   2.097  52.120  1.00  0.00     0.015 C 
HETATM    6  C9  UNL     1      24.697   2.601  51.405  1.00  0.00     0.057 A 
HETATM    7  C10 UNL     1      26.052   2.279  51.476  1.00  0.00     0.161 A 
HETATM    8  N1  UNL     1      26.885   2.964  50.677  1.00  0.00    -0.044 NA
HETATM    9  C11 UNL     1      26.421   3.925  49.839  1.00  0.00     0.724 A 
HETATM   10  N3  UNL     1      25.114   4.185  49.816  1.00  0.00    -0.044 NA
HETATM   11  C12 UNL     1      24.211   3.554  50.576  1.00  0.00     0.161 A 
HETATM   12  N5  UNL     1      26.842   1.363  52.194  1.00  0.00    -0.339 N 
HETATM   13  H17 UNL     1      27.815   1.660  52.319  1.00  0.00     0.167 HD
ENDROOT
BRANCH  11  14
HETATM   14  N4  UNL     1      22.843   3.884  50.429  1.00  0.00    -0.340 N 
HETATM   15  H12 UNL     1      21.899   3.479  50.522  1.00  0.00     0.167 HD
BRANCH  14  16
HETATM   16  C13 UNL     1      22.453   5.184  50.004  1.00  0.00     0.035 A 
HETATM   17  C14 UNL     1      22.217   6.120  51.022  1.00  0.00     0.029 A 
HETATM   18  C15 UNL     1      21.857   7.431  50.709  1.00  0.00     0.004 A 
HETATM   19  C16 UNL     1      21.718   7.854  49.419  1.00  0.00     0.019 A 
HETATM   20  C17 UNL     1      21.936   6.980  48.403  1.00  0.00     0.013 A 
HETATM   21 BR1  UNL     1      21.789   7.396  46.573  1.00  0.00    -0.051 Br
HETATM   22  C18 UNL     1      22.291   5.690  48.709  1.00  0.00     0.048 A 
ENDBRANCH  14  16
ENDBRANCH  11  14
BRANCH   9  23
HETATM   23  N2  UNL     1      27.334   4.631  49.009  1.00  0.00    -0.231 N 
HETATM   24  H10 UNL     1      26.998   5.086  48.123  1.00  0.00     0.174 HD
HETATM   25  H11 UNL     1      28.324   4.686  49.290  1.00  0.00     0.174 HD
ENDBRANCH   9  23
BRANCH   1  26
HETATM   26  C3  UNL     1      27.552  -0.781  52.967  1.00  0.00     0.040 A 
HETATM   27  C2  UNL     1      28.771  -0.850  53.376  1.00  0.00     0.113 A 
HETATM   28  C1  UNL     1      30.089  -1.335  53.749  1.00  0.00     0.032 C 
HETATM   29 CL1  UNL     1      27.803  -2.496  52.754  1.00  0.00    -0.174 Cl
ENDBRANCH   1  26
TORSDOF 4
ENDMDL
MODEL 8
REMARK VINA RESULT:      -8.2      5.320      8.517
REMARK  4 active torsions:
REMARK  status: ('A' for Active; 'I' for Inactive)
REMARK    1  A    between atoms: C3_3  and  C4_5 
REMARK    2  A    between atoms: C11_13  and  N2_14 
REMARK    3  A    between atoms: C12_16  and  N4_17 
REMARK    4  A    between atoms: N4_17  and  C13_18 
ROOT
HETATM    1  C4  UNL     1      27.020   5.471  48.760  1.00  0.00     0.048 C 
HETATM    2  C5  UNL     1      26.094   6.368  48.537  1.00  0.00     0.008 C 
HETATM    3  C6  UNL     1      24.683   6.646  48.746  1.00  0.00     0.056 C 
HETATM    4  C7  UNL     1      23.896   5.634  49.462  1.00  0.00    -0.022 C 
HETATM    5  C8  UNL     1      23.898   4.528  50.224  1.00  0.00     0.015 C 
HETATM    6  C9  UNL     1      24.984   3.739  50.739  1.00  0.00     0.057 A 
HETATM    7  C10 UNL     1      26.317   3.625  50.344  1.00  0.00     0.161 A 
HETATM    8  N1  UNL     1      27.086   2.764  51.029  1.00  0.00    -0.044 NA
HETATM    9  C11 UNL     1      26.581   2.040  52.060  1.00  0.00     0.724 A 
HETATM   10  N3  UNL     1      25.299   2.195  52.391  1.00  0.00    -0.044 NA
HETATM   11  C12 UNL     1      24.459   3.029  51.765  1.00  0.00     0.161 A 
HETATM   12  N5  UNL     1      27.140   4.213  49.366  1.00  0.00    -0.339 N 
HETATM   13  H17 UNL     1      27.929   3.625  49.077  1.00  0.00     0.167 HD
ENDROOT
BRANCH  11  14
HETATM   14  N4  UNL     1      23.131   3.143  52.238  1.00  0.00    -0.340 N 
HETATM   15  H12 UNL     1      22.475   3.826  52.648  1.00  0.00     0.167 HD
BRANCH  14  16
HETATM   16  C13 UNL     1      22.258   2.021  52.223  1.00  0.00     0.035 A 
HETATM   17  C14 UNL     1      21.387   1.932  51.128  1.00  0.00     0.029 A 
HETATM   18  C15 UNL     1      20.510   0.855  51.006  1.00  0.00     0.004 A 
HETATM   19  C16 UNL     1      20.459  -0.145  51.934  1.00  0.00     0.019 A 
HETATM   20  C17 UNL     1      21.284  -0.097  53.011  1.00  0.00     0.013 A 
HETATM   21 BR1  UNL     1      21.344  -1.388  54.380  1.00  0.00    -0.051 Br
HETATM   22  C18 UNL     1      22.149   0.962  53.133  1.00  0.00     0.048 A 
ENDBRANCH  14  16
ENDBRANCH  11  14
BRANCH   9  23
HETATM   23  N2  UNL     1      27.426   1.136  52.760  1.00  0.00    -0.231 N 
HETATM   24  H10 UNL     1      27.744   1.361  53.736  1.00  0.00     0.174 HD
HETATM   25  H11 UNL     1      27.717   0.263  52.295  1.00  0.00     0.174 HD
ENDBRANCH   9  23
BRANCH   1  26
HETATM   26  C3  UNL     1      28.226   5.989  48.199  1.00  0.00     0.040 A 
HETATM   27  C2  UNL     1      28.714   6.984  47.544  1.00  0.00     0.113 A 
HETATM   28  C1  UNL     1      29.615   7.882  46.842  1.00  0.00     0.032 C 
HETATM   29 CL1  UNL     1      29.881   5.444  48.087  1.00  0.00    -0.174 Cl
ENDBRANCH   1  26
TORSDOF 4
ENDMDL
MODEL 9
REMARK VINA RESULT:      -8.0      5.729      7.311
REMARK  4 active torsions:
REMARK  status: ('A' for Active; 'I' for Inactive)
REMARK    1  A    between atoms: C3_3  and  C4_5 
REMARK    2  A    between atoms: C11_13  and  N2_14 
REMARK    3  A    between atoms: C12_16  and  N4_17 
REMARK    4  A    between atoms: N4_17  and  C13_18 
ROOT
HETATM    1  C4  UNL     1      23.767   1.455  52.060  1.00  0.00     0.048 C 
HETATM    2  C5  UNL     1      24.974   0.949  52.058  1.00  0.00     0.008 C 
HETATM    3  C6  UNL     1      26.324   1.187  51.575  1.00  0.00     0.056 C 
HETATM    4  C7  UNL     1      26.555   2.412  50.799  1.00  0.00    -0.022 C 
HETATM    5  C8  UNL     1      26.093   3.612  50.411  1.00  0.00     0.015 C 
HETATM    6  C9  UNL     1      24.863   4.293  50.716  1.00  0.00     0.057 A 
HETATM    7  C10 UNL     1      23.634   3.824  51.178  1.00  0.00     0.161 A 
HETATM    8  N1  UNL     1      22.657   4.731  51.341  1.00  0.00    -0.044 NA
HETATM    9  C11 UNL     1      22.866   6.044  51.067  1.00  0.00     0.724 A 
HETATM   10  N3  UNL     1      24.065   6.429  50.630  1.00  0.00    -0.044 NA
HETATM   11  C12 UNL     1      25.095   5.597  50.438  1.00  0.00     0.161 A 
HETATM   12  N5  UNL     1      23.098   2.581  51.559  1.00  0.00    -0.339 N 
HETATM   13  H17 UNL     1      22.081   2.513  51.450  1.00  0.00     0.167 HD
ENDROOT
BRANCH  11  14
HETATM   14  N4  UNL     1      26.335   6.131  50.016  1.00  0.00    -0.340 N 
HETATM   15  H12 UNL     1      27.326   6.193  50.297  1.00  0.00     0.167 HD
BRANCH  14  16
HETATM   16  C13 UNL     1      26.430   6.879  48.810  1.00  0.00     0.035 A 
HETATM   17  C14 UNL     1      27.723   7.253  48.417  1.00  0.00     0.029 A 
HETATM   18  C15 UNL     1      27.925   7.965  47.234  1.00  0.00     0.004 A 
HETATM   19  C16 UNL     1      26.890   8.324  46.420  1.00  0.00     0.019 A 
HETATM   20  C17 UNL     1      25.622   7.982  46.764  1.00  0.00     0.013 A 
HETATM   21 BR1  UNL     1      24.085   8.396  45.760  1.00  0.00    -0.051 Br
HETATM   22  C18 UNL     1      25.420   7.281  47.927  1.00  0.00     0.048 A 
ENDBRANCH  14  16
ENDBRANCH  11  14
BRANCH   9  23
HETATM   23  N2  UNL     1      21.806   6.974  51.250  1.00  0.00    -0.231 N 
HETATM   24  H10 UNL     1      20.969   6.712  51.829  1.00  0.00     0.174 HD
HETATM   25  H11 UNL     1      21.875   7.902  50.807  1.00  0.00     0.174 HD
ENDBRANCH   9  23
BRANCH   1  26
HETATM   26  C3  UNL     1      22.952   0.550  52.804  1.00  0.00     0.040 A 
HETATM   27  C2  UNL     1      22.945  -0.222  53.835  1.00  0.00     0.113 A 
HETATM   28  C1  UNL     1      22.547  -1.167  54.864  1.00  0.00     0.032 C 
HETATM   29 CL1  UNL     1      21.325  -0.068  52.659  1.00  0.00    -0.174 Cl
ENDBRANCH   1  26
TORSDOF 4
ENDMDL
