MODEL 1
REMARK VINA RESULT:      -7.6      0.000      0.000
REMARK  6 active torsions:
REMARK  status: ('A' for Active; 'I' for Inactive)
REMARK    1  A    between atoms: C2_2  and  C3_3 
REMARK    2  A    between atoms: C3_3  and  N1_4 
REMARK    3  A    between atoms: N1_4  and  C4_5 
REMARK    4  A    between atoms: C12_14  and  N3_15 
REMARK    5  A    between atoms: N3_15  and  C13_16 
REMARK    6  A    between atoms: C14_17  and  C15_18 
ROOT
HETATM    1  C4  UNL     1      26.503   0.199  54.193  1.00  0.00     0.028 A 
HETATM    2  C5  UNL     1      25.881  -0.800  53.473  1.00  0.00     0.032 A 
HETATM    3  C6  UNL     1      24.798  -0.548  52.653  1.00  0.00     0.040 A 
HETATM    4  C7  UNL     1      24.316   0.763  52.552  1.00  0.00     0.086 A 
HETATM    5  C8  UNL     1      24.954   1.756  53.285  1.00  0.00    -0.004 A 
HETATM    6  C9  UNL     1      26.037   1.495  54.102  1.00  0.00     0.040 A 
HETATM    7  C10 UNL     1      24.608   3.215  53.328  1.00  0.00     0.161 C 
HETATM    8  N2  UNL     1      24.539   3.774  51.989  1.00  0.00    -0.379 N 
HETATM    9  C11 UNL     1      23.734   3.303  50.891  1.00  0.00     0.129 A 
HETATM   10  C12 UNL     1      23.604   4.279  49.924  1.00  0.00     0.159 A 
HETATM   11  N4  UNL     1      22.867   3.944  48.849  1.00  0.00    -0.222 NA
HETATM   12  C16 UNL     1      22.294   2.736  48.722  1.00  0.00     0.238 A 
HETATM   13  N5  UNL     1      22.429   1.783  49.682  1.00  0.00    -0.215 NA
HETATM   14  C17 UNL     1      23.153   2.043  50.792  1.00  0.00     0.202 A 
HETATM   15  O1  UNL     1      23.212   0.967  51.704  1.00  0.00    -0.289 OA
HETATM   16  H12 UNL     1      25.146   4.606  51.822  1.00  0.00     0.160 HD
ENDROOT
BRANCH  10  17
HETATM   17  N3  UNL     1      24.234   5.553  50.100  1.00  0.00    -0.349 N 
HETATM   18  H13 UNL     1      24.032   6.391  50.667  1.00  0.00     0.167 HD
BRANCH  17  19
HETATM   19  C13 UNL     1      25.400   5.610  49.268  1.00  0.00     0.088 C 
HETATM   20  C14 UNL     1      26.575   4.976  49.277  1.00  0.00     0.021 C 
BRANCH  20  21
HETATM   21  C15 UNL     1      27.853   4.945  48.479  1.00  0.00     0.251 C 
HETATM   22  F1  UNL     1      28.040   6.108  47.799  1.00  0.00    -0.251 F 
ENDBRANCH  20  21
ENDBRANCH  17  19
ENDBRANCH  10  17
BRANCH   1  23
HETATM   23  N1  UNL     1      27.614  -0.113  55.018  1.00  0.00    -0.386 N 
HETATM   24  H6  UNL     1      27.470  -0.714  55.871  1.00  0.00     0.160 HD
BRANCH  23  25
HETATM   25  C3  UNL     1      28.931   0.362  54.734  1.00  0.00     0.146 C 
BRANCH  25  26
HETATM   26  C2  UNL     1      29.653  -0.553  53.807  1.00  0.00    -0.018 C 
HETATM   27  C1  UNL     1      29.405  -1.775  53.370  1.00  0.00     0.008 C 
ENDBRANCH  25  26
ENDBRANCH  23  25
ENDBRANCH   1  23
TORSDOF 6
ENDMDL
MODEL 2
REMARK VINA RESULT:      -7.6      4.892      6.573
REMARK  6 active torsions:
REMARK  status: ('A' for Active; 'I' for Inactive)
REMARK    1  A    between atoms: C2_2  and  C3_3 
REMARK    2  A    between atoms: C3_3  and  N1_4 
REMARK    3  A    between atoms: N1_4  and  C4_5 
REMARK    4  A    between atoms: C12_14  and  N3_15 
REMARK    5  A    between atoms: N3_15  and  C13_16 
REMARK    6  A    between atoms: C14_17  and  C15_18 
ROOT
HETATM    1  C4  UNL     1      26.093   1.270  53.691  1.00  0.00     0.028 A 
HETATM    2  C5  UNL     1      25.943   2.245  52.727  1.00  0.00     0.032 A 
HETATM    3  C6  UNL     1      24.878   2.247  51.847  1.00  0.00     0.040 A 
HETATM    4  C7  UNL     1      23.923   1.227  51.938  1.00  0.00     0.086 A 
HETATM    5  C8  UNL     1      24.090   0.254  52.914  1.00  0.00    -0.004 A 
HETATM    6  C9  UNL     1      25.159   0.260  53.791  1.00  0.00     0.040 A 
HETATM    7  C10 UNL     1      23.198  -0.920  53.188  1.00  0.00     0.161 C 
HETATM    8  N2  UNL     1      21.820  -0.496  53.365  1.00  0.00    -0.379 N 
HETATM    9  C11 UNL     1      21.025   0.282  52.450  1.00  0.00     0.129 A 
HETATM   10  C12 UNL     1      19.682   0.155  52.736  1.00  0.00     0.159 A 
HETATM   11  N4  UNL     1      18.845   0.844  51.938  1.00  0.00    -0.222 NA
HETATM   12  C16 UNL     1      19.287   1.608  50.927  1.00  0.00     0.238 A 
HETATM   13  N5  UNL     1      20.614   1.726  50.654  1.00  0.00    -0.215 NA
HETATM   14  C17 UNL     1      21.518   1.065  51.410  1.00  0.00     0.202 A 
HETATM   15  O1  UNL     1      22.857   1.275  51.019  1.00  0.00    -0.289 OA
HETATM   16  H12 UNL     1      21.373  -0.799  54.258  1.00  0.00     0.160 HD
ENDROOT
BRANCH  10  17
HETATM   17  N3  UNL     1      19.254  -0.670  53.825  1.00  0.00    -0.349 N 
HETATM   18  H13 UNL     1      19.471  -0.713  54.833  1.00  0.00     0.167 HD
BRANCH  17  19
HETATM   19  C13 UNL     1      18.314  -1.635  53.332  1.00  0.00     0.088 C 
HETATM   20  C14 UNL     1      17.815  -2.773  53.821  1.00  0.00     0.021 C 
BRANCH  20  21
HETATM   21  C15 UNL     1      16.845  -3.851  53.414  1.00  0.00     0.251 C 
HETATM   22  F1  UNL     1      17.493  -5.000  53.081  1.00  0.00    -0.251 F 
ENDBRANCH  20  21
ENDBRANCH  17  19
ENDBRANCH  10  17
BRANCH   1  23
HETATM   23  N1  UNL     1      27.204   1.316  54.573  1.00  0.00    -0.386 N 
HETATM   24  H6  UNL     1      27.485   2.236  55.001  1.00  0.00     0.160 HD
BRANCH  23  25
HETATM   25  C3  UNL     1      27.963   0.152  54.904  1.00  0.00     0.146 C 
BRANCH  25  26
HETATM   26  C2  UNL     1      28.709  -0.368  53.724  1.00  0.00    -0.018 C 
HETATM   27  C1  UNL     1      29.992  -0.585  53.493  1.00  0.00     0.008 C 
ENDBRANCH  25  26
ENDBRANCH  23  25
ENDBRANCH   1  23
TORSDOF 6
ENDMDL
MODEL 3
REMARK VINA RESULT:      -7.2      2.333      2.620
REMARK  6 active torsions:
REMARK  status: ('A' for Active; 'I' for Inactive)
REMARK    1  A    between atoms: C2_2  and  C3_3 
REMARK    2  A    between atoms: C3_3  and  N1_4 
REMARK    3  A    between atoms: N1_4  and  C4_5 
REMARK    4  A    between atoms: C12_14  and  N3_15 
REMARK    5  A    between atoms: N3_15  and  C13_16 
REMARK    6  A    between atoms: C14_17  and  C15_18 
ROOT
HETATM    1  C4  UNL     1      26.485   0.638  54.251  1.00  0.00     0.028 A 
HETATM    2  C5  UNL     1      25.721  -0.506  54.149  1.00  0.00     0.032 A 
HETATM    3  C6  UNL     1      24.494  -0.515  53.516  1.00  0.00     0.040 A 
HETATM    4  C7  UNL     1      24.010   0.676  52.961  1.00  0.00     0.086 A 
HETATM    5  C8  UNL     1      24.791   1.818  53.074  1.00  0.00    -0.004 A 
HETATM    6  C9  UNL     1      26.019   1.818  53.708  1.00  0.00     0.040 A 
HETATM    7  C10 UNL     1      24.471   3.191  52.559  1.00  0.00     0.161 C 
HETATM    8  N2  UNL     1      24.130   3.151  51.147  1.00  0.00    -0.379 N 
HETATM    9  C11 UNL     1      23.112   2.347  50.522  1.00  0.00     0.129 A 
HETATM   10  C12 UNL     1      22.791   2.844  49.275  1.00  0.00     0.159 A 
HETATM   11  N4  UNL     1      21.845   2.165  48.599  1.00  0.00    -0.222 NA
HETATM   12  C16 UNL     1      21.250   1.073  49.104  1.00  0.00     0.238 A 
HETATM   13  N5  UNL     1      21.575   0.592  50.333  1.00  0.00    -0.215 NA
HETATM   14  C17 UNL     1      22.515   1.218  51.074  1.00  0.00     0.202 A 
HETATM   15  O1  UNL     1      22.755   0.614  52.327  1.00  0.00    -0.289 OA
HETATM   16  H12 UNL     1      24.694   3.780  50.536  1.00  0.00     0.160 HD
ENDROOT
BRANCH  10  17
HETATM   17  N3  UNL     1      23.451   4.012  48.776  1.00  0.00    -0.349 N 
HETATM   18  H13 UNL     1      24.397   4.214  48.416  1.00  0.00     0.167 HD
BRANCH  17  19
HETATM   19  C13 UNL     1      22.534   5.114  48.817  1.00  0.00     0.088 C 
HETATM   20  C14 UNL     1      22.252   6.050  49.727  1.00  0.00     0.021 C 
BRANCH  20  21
HETATM   21  C15 UNL     1      21.335   7.233  49.888  1.00  0.00     0.251 C 
HETATM   22  F1  UNL     1      21.327   7.683  51.172  1.00  0.00    -0.251 F 
ENDBRANCH  20  21
ENDBRANCH  17  19
ENDBRANCH  10  17
BRANCH   1  23
HETATM   23  N1  UNL     1      27.741   0.592  54.909  1.00  0.00    -0.386 N 
HETATM   24  H6  UNL     1      27.783   0.295  55.918  1.00  0.00     0.160 HD
BRANCH  23  25
HETATM   25  C3  UNL     1      28.960   0.937  54.249  1.00  0.00     0.146 C 
BRANCH  25  26
HETATM   26  C2  UNL     1      29.695  -0.275  53.791  1.00  0.00    -0.018 C 
HETATM   27  C1  UNL     1      29.301  -1.461  53.365  1.00  0.00     0.008 C 
ENDBRANCH  25  26
ENDBRANCH  23  25
ENDBRANCH   1  23
TORSDOF 6
ENDMDL
MODEL 4
REMARK VINA RESULT:      -6.9      6.942      8.929
REMARK  6 active torsions:
REMARK  status: ('A' for Active; 'I' for Inactive)
REMARK    1  A    between atoms: C2_2  and  C3_3 
REMARK    2  A    between atoms: C3_3  and  N1_4 
REMARK    3  A    between atoms: N1_4  and  C4_5 
REMARK    4  A    between atoms: C12_14  and  N3_15 
REMARK    5  A    between atoms: N3_15  and  C13_16 
REMARK    6  A    between atoms: C14_17  and  C15_18 
ROOT
HETATM    1  C4  UNL     1      32.885   5.488  48.075  1.00  0.00     0.028 A 
HETATM    2  C5  UNL     1      33.416   6.709  47.717  1.00  0.00     0.032 A 
HETATM    3  C6  UNL     1      32.621   7.809  47.460  1.00  0.00     0.040 A 
HETATM    4  C7  UNL     1      31.231   7.678  47.568  1.00  0.00     0.086 A 
HETATM    5  C8  UNL     1      30.713   6.442  47.930  1.00  0.00    -0.004 A 
HETATM    6  C9  UNL     1      31.516   5.347  48.185  1.00  0.00     0.040 A 
HETATM    7  C10 UNL     1      29.268   6.079  48.102  1.00  0.00     0.161 C 
HETATM    8  N2  UNL     1      28.603   7.002  49.006  1.00  0.00    -0.379 N 
HETATM    9  C11 UNL     1      28.544   8.437  48.894  1.00  0.00     0.129 A 
HETATM   10  C12 UNL     1      27.521   8.948  49.665  1.00  0.00     0.159 A 
HETATM   11  N4  UNL     1      27.376  10.286  49.634  1.00  0.00    -0.222 NA
HETATM   12  C16 UNL     1      28.175  11.076  48.900  1.00  0.00     0.238 A 
HETATM   13  N5  UNL     1      29.181  10.561  48.144  1.00  0.00    -0.215 NA
HETATM   14  C17 UNL     1      29.391   9.226  48.122  1.00  0.00     0.202 A 
HETATM   15  O1  UNL     1      30.465   8.828  47.297  1.00  0.00    -0.289 OA
HETATM   16  H12 UNL     1      28.120   6.559  49.818  1.00  0.00     0.160 HD
ENDROOT
BRANCH  10  17
HETATM   17  N3  UNL     1      26.693   8.069  50.434  1.00  0.00    -0.349 N 
HETATM   18  H13 UNL     1      26.868   7.345  51.148  1.00  0.00     0.167 HD
BRANCH  17  19
HETATM   19  C13 UNL     1      25.323   8.296  50.078  1.00  0.00     0.088 C 
HETATM   20  C14 UNL     1      24.158   7.825  50.532  1.00  0.00     0.021 C 
BRANCH  20  21
HETATM   21  C15 UNL     1      22.686   7.980  50.251  1.00  0.00     0.251 C 
HETATM   22  F1  UNL     1      21.935   7.293  51.153  1.00  0.00    -0.251 F 
ENDBRANCH  20  21
ENDBRANCH  17  19
ENDBRANCH  10  17
BRANCH   1  23
HETATM   23  N1  UNL     1      33.747   4.391  48.331  1.00  0.00    -0.386 N 
HETATM   24  H6  UNL     1      34.570   4.520  48.975  1.00  0.00     0.160 HD
BRANCH  23  25
HETATM   25  C3  UNL     1      33.540   3.106  47.742  1.00  0.00     0.146 C 
BRANCH  25  26
HETATM   26  C2  UNL     1      34.329   2.945  46.489  1.00  0.00    -0.018 C 
HETATM   27  C1  UNL     1      35.123   3.757  45.814  1.00  0.00     0.008 C 
ENDBRANCH  25  26
ENDBRANCH  23  25
ENDBRANCH   1  23
TORSDOF 6
ENDMDL
MODEL 5
REMARK VINA RESULT:      -6.7      3.815      7.450
REMARK  6 active torsions:
REMARK  status: ('A' for Active; 'I' for Inactive)
REMARK    1  A    between atoms: C2_2  and  C3_3 
REMARK    2  A    between atoms: C3_3  and  N1_4 
REMARK    3  A    between atoms: N1_4  and  C4_5 
REMARK    4  A    between atoms: C12_14  and  N3_15 
REMARK    5  A    between atoms: N3_15  and  C13_16 
REMARK    6  A    between atoms: C14_17  and  C15_18 
ROOT
HETATM    1  C4  UNL     1      28.598   6.799  47.931  1.00  0.00     0.028 A 
HETATM    2  C5  UNL     1      27.625   7.729  47.629  1.00  0.00     0.032 A 
HETATM    3  C6  UNL     1      26.286   7.496  47.874  1.00  0.00     0.040 A 
HETATM    4  C7  UNL     1      25.905   6.276  48.446  1.00  0.00     0.086 A 
HETATM    5  C8  UNL     1      26.897   5.351  48.744  1.00  0.00    -0.004 A 
HETATM    6  C9  UNL     1      28.235   5.593  48.496  1.00  0.00     0.040 A 
HETATM    7  C10 UNL     1      26.717   3.993  49.354  1.00  0.00     0.161 C 
HETATM    8  N2  UNL     1      25.948   4.072  50.584  1.00  0.00    -0.379 N 
HETATM    9  C11 UNL     1      24.643   4.658  50.757  1.00  0.00     0.129 A 
HETATM   10  C12 UNL     1      24.055   4.208  51.921  1.00  0.00     0.159 A 
HETATM   11  N4  UNL     1      22.827   4.695  52.182  1.00  0.00    -0.222 NA
HETATM   12  C16 UNL     1      22.212   5.563  51.363  1.00  0.00     0.238 A 
HETATM   13  N5  UNL     1      22.803   5.999  50.219  1.00  0.00    -0.215 NA
HETATM   14  C17 UNL     1      24.035   5.556  49.886  1.00  0.00     0.202 A 
HETATM   15  O1  UNL     1      24.529   6.088  48.676  1.00  0.00    -0.289 OA
HETATM   16  H12 UNL     1      26.407   3.654  51.423  1.00  0.00     0.160 HD
ENDROOT
BRANCH  10  17
HETATM   17  N3  UNL     1      24.747   3.282  52.766  1.00  0.00    -0.349 N 
HETATM   18  H13 UNL     1      25.687   3.250  53.190  1.00  0.00     0.167 HD
BRANCH  17  19
HETATM   19  C13 UNL     1      23.882   2.173  53.042  1.00  0.00     0.088 C 
HETATM   20  C14 UNL     1      24.039   0.847  53.009  1.00  0.00     0.021 C 
BRANCH  20  21
HETATM   21  C15 UNL     1      23.230  -0.396  53.270  1.00  0.00     0.251 C 
HETATM   22  F1  UNL     1      22.767  -0.427  54.549  1.00  0.00    -0.251 F 
ENDBRANCH  20  21
ENDBRANCH  17  19
ENDBRANCH  10  17
BRANCH   1  23
HETATM   23  N1  UNL     1      29.960   7.089  47.662  1.00  0.00    -0.386 N 
HETATM   24  H6  UNL     1      30.671   6.314  47.707  1.00  0.00     0.160 HD
BRANCH  23  25
HETATM   25  C3  UNL     1      30.408   8.405  47.332  1.00  0.00     0.146 C 
BRANCH  25  26
HETATM   26  C2  UNL     1      31.036   9.078  48.503  1.00  0.00    -0.018 C 
HETATM   27  C1  UNL     1      30.580   9.927  49.406  1.00  0.00     0.008 C 
ENDBRANCH  25  26
ENDBRANCH  23  25
ENDBRANCH   1  23
TORSDOF 6
ENDMDL
MODEL 6
REMARK VINA RESULT:      -6.6      4.605      7.336
REMARK  6 active torsions:
REMARK  status: ('A' for Active; 'I' for Inactive)
REMARK    1  A    between atoms: C2_2  and  C3_3 
REMARK    2  A    between atoms: C3_3  and  N1_4 
REMARK    3  A    between atoms: N1_4  and  C4_5 
REMARK    4  A    between atoms: C12_14  and  N3_15 
REMARK    5  A    between atoms: N3_15  and  C13_16 
REMARK    6  A    between atoms: C14_17  and  C15_18 
ROOT
HETATM    1  C4  UNL     1      25.003   4.676  50.184  1.00  0.00     0.028 A 
HETATM    2  C5  UNL     1      25.743   3.539  49.939  1.00  0.00     0.032 A 
HETATM    3  C6  UNL     1      26.945   3.578  49.260  1.00  0.00     0.040 A 
HETATM    4  C7  UNL     1      27.426   4.812  48.806  1.00  0.00     0.086 A 
HETATM    5  C8  UNL     1      26.668   5.947  49.062  1.00  0.00    -0.004 A 
HETATM    6  C9  UNL     1      25.466   5.899  49.742  1.00  0.00     0.040 A 
HETATM    7  C10 UNL     1      26.989   7.360  48.671  1.00  0.00     0.161 C 
HETATM    8  N2  UNL     1      28.320   7.734  49.116  1.00  0.00    -0.379 N 
HETATM    9  C11 UNL     1      29.556   7.051  48.831  1.00  0.00     0.129 A 
HETATM   10  C12 UNL     1      30.637   7.879  49.057  1.00  0.00     0.159 A 
HETATM   11  N4  UNL     1      31.847   7.339  48.820  1.00  0.00    -0.222 NA
HETATM   12  C16 UNL     1      31.996   6.076  48.392  1.00  0.00     0.238 A 
HETATM   13  N5  UNL     1      30.924   5.270  48.173  1.00  0.00    -0.215 NA
HETATM   14  C17 UNL     1      29.674   5.738  48.387  1.00  0.00     0.202 A 
HETATM   15  O1  UNL     1      28.656   4.798  48.121  1.00  0.00    -0.289 OA
HETATM   16  H12 UNL     1      28.366   8.593  49.706  1.00  0.00     0.160 HD
ENDROOT
BRANCH  10  17
HETATM   17  N3  UNL     1      30.432   9.220  49.515  1.00  0.00    -0.349 N 
HETATM   18  H13 UNL     1      29.857   9.655  50.252  1.00  0.00     0.167 HD
BRANCH  17  19
HETATM   19  C13 UNL     1      31.235  10.106  48.723  1.00  0.00     0.088 C 
HETATM   20  C14 UNL     1      31.125  10.596  47.486  1.00  0.00     0.021 C 
BRANCH  20  21
HETATM   21  C15 UNL     1      31.881  11.513  46.560  1.00  0.00     0.251 C 
HETATM   22  F1  UNL     1      33.223  11.421  46.758  1.00  0.00    -0.251 F 
ENDBRANCH  20  21
ENDBRANCH  17  19
ENDBRANCH  10  17
BRANCH   1  23
HETATM   23  N1  UNL     1      23.775   4.582  50.889  1.00  0.00    -0.386 N 
HETATM   24  H6  UNL     1      23.116   5.403  50.888  1.00  0.00     0.160 HD
BRANCH  23  25
HETATM   25  C3  UNL     1      23.397   3.406  51.606  1.00  0.00     0.146 C 
BRANCH  25  26
HETATM   26  C2  UNL     1      24.068   3.336  52.934  1.00  0.00    -0.018 C 
HETATM   27  C1  UNL     1      25.005   2.549  53.430  1.00  0.00     0.008 C 
ENDBRANCH  25  26
ENDBRANCH  23  25
ENDBRANCH   1  23
TORSDOF 6
ENDMDL
MODEL 7
REMARK VINA RESULT:      -6.6      3.608      4.728
REMARK  6 active torsions:
REMARK  status: ('A' for Active; 'I' for Inactive)
REMARK    1  A    between atoms: C2_2  and  C3_3 
REMARK    2  A    between atoms: C3_3  and  N1_4 
REMARK    3  A    between atoms: N1_4  and  C4_5 
REMARK    4  A    between atoms: C12_14  and  N3_15 
REMARK    5  A    between atoms: N3_15  and  C13_16 
REMARK    6  A    between atoms: C14_17  and  C15_18 
ROOT
HETATM    1  C4  UNL     1      24.847  -0.535  54.138  1.00  0.00     0.028 A 
HETATM    2  C5  UNL     1      23.927  -1.246  54.879  1.00  0.00     0.032 A 
HETATM    3  C6  UNL     1      22.568  -1.025  54.770  1.00  0.00     0.040 A 
HETATM    4  C7  UNL     1      22.112  -0.046  53.878  1.00  0.00     0.086 A 
HETATM    5  C8  UNL     1      23.052   0.661  53.139  1.00  0.00    -0.004 A 
HETATM    6  C9  UNL     1      24.410   0.432  53.255  1.00  0.00     0.040 A 
HETATM    7  C10 UNL     1      22.790   1.744  52.135  1.00  0.00     0.161 C 
HETATM    8  N2  UNL     1      21.833   1.305  51.134  1.00  0.00    -0.379 N 
HETATM    9  C11 UNL     1      20.512   0.779  51.365  1.00  0.00     0.129 A 
HETATM   10  C12 UNL     1      19.749   0.848  50.218  1.00  0.00     0.159 A 
HETATM   11  N4  UNL     1      18.491   0.381  50.322  1.00  0.00    -0.222 NA
HETATM   12  C16 UNL     1      18.007  -0.121  51.469  1.00  0.00     0.238 A 
HETATM   13  N5  UNL     1      18.769  -0.184  52.594  1.00  0.00    -0.215 NA
HETATM   14  C17 UNL     1      20.043   0.265  52.570  1.00  0.00     0.202 A 
HETATM   15  O1  UNL     1      20.719   0.140  53.802  1.00  0.00    -0.289 OA
HETATM   16  H12 UNL     1      22.156   1.388  50.145  1.00  0.00     0.160 HD
ENDROOT
BRANCH  10  17
HETATM   17  N3  UNL     1      20.306   1.390  49.016  1.00  0.00    -0.349 N 
HETATM   18  H13 UNL     1      21.070   1.113  48.379  1.00  0.00     0.167 HD
BRANCH  17  19
HETATM   19  C13 UNL     1      19.598   2.591  48.679  1.00  0.00     0.088 C 
HETATM   20  C14 UNL     1      19.235   3.675  49.370  1.00  0.00     0.021 C 
BRANCH  20  21
HETATM   21  C15 UNL     1      18.507   4.974  49.140  1.00  0.00     0.251 C 
HETATM   22  F1  UNL     1      19.111   6.002  49.794  1.00  0.00    -0.251 F 
ENDBRANCH  20  21
ENDBRANCH  17  19
ENDBRANCH  10  17
BRANCH   1  23
HETATM   23  N1  UNL     1      26.232  -0.804  54.286  1.00  0.00    -0.386 N 
HETATM   24  H6  UNL     1      26.547  -1.512  55.000  1.00  0.00     0.160 HD
BRANCH  23  25
HETATM   25  C3  UNL     1      27.225  -0.145  53.499  1.00  0.00     0.146 C 
BRANCH  25  26
HETATM   26  C2  UNL     1      28.580  -0.280  54.104  1.00  0.00    -0.018 C 
HETATM   27  C1  UNL     1      29.788  -0.420  53.587  1.00  0.00     0.008 C 
ENDBRANCH  25  26
ENDBRANCH  23  25
ENDBRANCH   1  23
TORSDOF 6
ENDMDL
MODEL 8
REMARK VINA RESULT:      -6.6      3.719      4.880
REMARK  6 active torsions:
REMARK  status: ('A' for Active; 'I' for Inactive)
REMARK    1  A    between atoms: C2_2  and  C3_3 
REMARK    2  A    between atoms: C3_3  and  N1_4 
REMARK    3  A    between atoms: N1_4  and  C4_5 
REMARK    4  A    between atoms: C12_14  and  N3_15 
REMARK    5  A    between atoms: N3_15  and  C13_16 
REMARK    6  A    between atoms: C14_17  and  C15_18 
ROOT
HETATM    1  C4  UNL     1      26.580   0.611  53.418  1.00  0.00     0.028 A 
HETATM    2  C5  UNL     1      27.270   1.569  52.704  1.00  0.00     0.032 A 
HETATM    3  C6  UNL     1      26.662   2.338  51.732  1.00  0.00     0.040 A 
HETATM    4  C7  UNL     1      25.302   2.138  51.462  1.00  0.00     0.086 A 
HETATM    5  C8  UNL     1      24.623   1.169  52.189  1.00  0.00    -0.004 A 
HETATM    6  C9  UNL     1      25.240   0.404  53.161  1.00  0.00     0.040 A 
HETATM    7  C10 UNL     1      23.178   0.790  52.066  1.00  0.00     0.161 C 
HETATM    8  N2  UNL     1      22.321   1.958  52.176  1.00  0.00    -0.379 N 
HETATM    9  C11 UNL     1      22.387   3.161  51.387  1.00  0.00     0.129 A 
HETATM   10  C12 UNL     1      21.207   3.870  51.475  1.00  0.00     0.159 A 
HETATM   11  N4  UNL     1      21.159   5.018  50.772  1.00  0.00    -0.222 NA
HETATM   12  C16 UNL     1      22.194   5.448  50.033  1.00  0.00     0.238 A 
HETATM   13  N5  UNL     1      23.353   4.740  49.955  1.00  0.00    -0.215 NA
HETATM   14  C17 UNL     1      23.479   3.577  50.631  1.00  0.00     0.202 A 
HETATM   15  O1  UNL     1      24.730   2.948  50.462  1.00  0.00    -0.289 OA
HETATM   16  H12 UNL     1      21.583   1.901  52.912  1.00  0.00     0.160 HD
ENDROOT
BRANCH  10  17
HETATM   17  N3  UNL     1      20.129   3.375  52.276  1.00  0.00    -0.349 N 
HETATM   18  H13 UNL     1      20.024   3.106  53.267  1.00  0.00     0.167 HD
BRANCH  17  19
HETATM   19  C13 UNL     1      18.963   3.245  51.452  1.00  0.00     0.088 C 
HETATM   20  C14 UNL     1      17.730   3.756  51.506  1.00  0.00     0.021 C 
BRANCH  20  21
HETATM   21  C15 UNL     1      16.445   3.700  50.722  1.00  0.00     0.251 C 
HETATM   22  F1  UNL     1      15.660   2.666  51.128  1.00  0.00    -0.251 F 
ENDBRANCH  20  21
ENDBRANCH  17  19
ENDBRANCH  10  17
BRANCH   1  23
HETATM   23  N1  UNL     1      27.251  -0.151  54.409  1.00  0.00    -0.386 N 
HETATM   24  H6  UNL     1      26.727  -0.906  54.921  1.00  0.00     0.160 HD
BRANCH  23  25
HETATM   25  C3  UNL     1      28.622   0.071  54.741  1.00  0.00     0.146 C 
BRANCH  25  26
HETATM   26  C2  UNL     1      29.527  -0.800  53.940  1.00  0.00    -0.018 C 
HETATM   27  C1  UNL     1      29.337  -1.923  53.271  1.00  0.00     0.008 C 
ENDBRANCH  25  26
ENDBRANCH  23  25
ENDBRANCH   1  23
TORSDOF 6
ENDMDL
MODEL 9
REMARK VINA RESULT:      -6.5      5.956      8.350
REMARK  6 active torsions:
REMARK  status: ('A' for Active; 'I' for Inactive)
REMARK    1  A    between atoms: C2_2  and  C3_3 
REMARK    2  A    between atoms: C3_3  and  N1_4 
REMARK    3  A    between atoms: N1_4  and  C4_5 
REMARK    4  A    between atoms: C12_14  and  N3_15 
REMARK    5  A    between atoms: N3_15  and  C13_16 
REMARK    6  A    between atoms: C14_17  and  C15_18 
ROOT
HETATM    1  C4  UNL     1      32.825   6.223  48.759  1.00  0.00     0.028 A 
HETATM    2  C5  UNL     1      32.963   7.585  48.590  1.00  0.00     0.032 A 
HETATM    3  C6  UNL     1      31.894   8.397  48.268  1.00  0.00     0.040 A 
HETATM    4  C7  UNL     1      30.629   7.818  48.107  1.00  0.00     0.086 A 
HETATM    5  C8  UNL     1      30.507   6.445  48.280  1.00  0.00    -0.004 A 
HETATM    6  C9  UNL     1      31.584   5.640  48.603  1.00  0.00     0.040 A 
HETATM    7  C10 UNL     1      29.260   5.622  48.157  1.00  0.00     0.161 C 
HETATM    8  N2  UNL     1      28.195   6.163  48.983  1.00  0.00    -0.379 N 
HETATM    9  C11 UNL     1      27.675   7.506  48.962  1.00  0.00     0.129 A 
HETATM   10  C12 UNL     1      26.436   7.562  49.565  1.00  0.00     0.159 A 
HETATM   11  N4  UNL     1      25.856   8.777  49.600  1.00  0.00    -0.222 NA
HETATM   12  C16 UNL     1      26.445   9.867  49.083  1.00  0.00     0.238 A 
HETATM   13  N5  UNL     1      27.668   9.799  48.492  1.00  0.00    -0.215 NA
HETATM   14  C17 UNL     1      28.315   8.615  48.417  1.00  0.00     0.202 A 
HETATM   15  O1  UNL     1      29.572   8.688  47.780  1.00  0.00    -0.289 OA
HETATM   16  H12 UNL     1      27.772   5.490  49.660  1.00  0.00     0.160 HD
ENDROOT
BRANCH  10  17
HETATM   17  N3  UNL     1      25.844   6.375  50.104  1.00  0.00    -0.349 N 
HETATM   18  H13 UNL     1      26.204   5.455  50.401  1.00  0.00     0.167 HD
BRANCH  17  19
HETATM   19  C13 UNL     1      24.431   6.580  50.231  1.00  0.00     0.088 C 
HETATM   20  C14 UNL     1      23.482   6.032  50.994  1.00  0.00     0.021 C 
BRANCH  20  21
HETATM   21  C15 UNL     1      21.997   6.156  51.219  1.00  0.00     0.251 C 
HETATM   22  F1  UNL     1      21.598   7.455  51.191  1.00  0.00    -0.251 F 
ENDBRANCH  20  21
ENDBRANCH  17  19
ENDBRANCH  10  17
BRANCH   1  23
HETATM   23  N1  UNL     1      33.956   5.435  49.092  1.00  0.00    -0.386 N 
HETATM   24  H6  UNL     1      34.140   5.199  50.102  1.00  0.00     0.160 HD
BRANCH  23  25
HETATM   25  C3  UNL     1      34.862   4.944  48.103  1.00  0.00     0.146 C 
BRANCH  25  26
HETATM   26  C2  UNL     1      34.596   3.515  47.779  1.00  0.00    -0.018 C 
HETATM   27  C1  UNL     1      33.826   2.922  46.885  1.00  0.00     0.008 C 
ENDBRANCH  25  26
ENDBRANCH  23  25
ENDBRANCH   1  23
TORSDOF 6
ENDMDL
