MODEL 1
REMARK VINA RESULT:      -8.9      0.000      0.000
REMARK  3 active torsions:
REMARK  status: ('A' for Active; 'I' for Inactive)
REMARK    1  A    between atoms: C7_7  and  N1_8 
REMARK    2  A    between atoms: N1_8  and  C8_9 
REMARK    3  A    between atoms: C13_16  and  N4_17 
REMARK       I    between atoms: N4_17  and  C14_18 
REMARK       I    between atoms: C14_18  and  N5_19 
ROOT
HETATM    1  C1  UNL     1      27.522   4.868  48.633  1.00  0.00     0.018 C 
HETATM    2  C2  UNL     1      26.499   4.687  49.257  1.00  0.00    -0.078 C 
HETATM    3  C3  UNL     1      25.299   4.458  50.008  1.00  0.00     0.019 A 
HETATM    4  C4  UNL     1      24.640   5.496  50.627  1.00  0.00     0.021 A 
HETATM    5  C5  UNL     1      23.503   5.221  51.323  1.00  0.00     0.004 A 
HETATM    6  C6  UNL     1      23.049   3.936  51.392  1.00  0.00     0.029 A 
HETATM    7  C7  UNL     1      23.641   2.838  50.808  1.00  0.00     0.035 A 
HETATM    8  C17 UNL     1      24.785   3.186  50.118  1.00  0.00     0.050 A 
ENDROOT
BRANCH   7   9
HETATM    9  N1  UNL     1      23.134   1.513  50.879  1.00  0.00    -0.340 N 
HETATM   10  H5  UNL     1      23.534   0.966  50.120  1.00  0.00     0.167 HD
BRANCH   9  11
HETATM   11  C8  UNL     1      22.223   0.991  51.831  1.00  0.00     0.142 A 
HETATM   12  N2  UNL     1      20.926   1.172  51.693  1.00  0.00    -0.224 NA
HETATM   13  C9  UNL     1      20.018   0.702  52.555  1.00  0.00     0.236 A 
HETATM   14  N3  UNL     1      20.459   0.006  53.624  1.00  0.00    -0.241 NA
HETATM   15  C10 UNL     1      21.785  -0.205  53.807  1.00  0.00     0.072 A 
HETATM   16  C11 UNL     1      22.173  -0.926  54.922  1.00  0.00     0.035 A 
HETATM   17  C16 UNL     1      22.710   0.287  52.908  1.00  0.00     0.041 A 
HETATM   18  C12 UNL     1      23.522  -1.124  55.082  1.00  0.00     0.032 A 
HETATM   19  C13 UNL     1      24.496  -0.667  54.232  1.00  0.00     0.036 A 
HETATM   20  C15 UNL     1      24.043   0.043  53.145  1.00  0.00     0.047 A 
BRANCH  19  21
HETATM   21  N4  UNL     1      25.890  -0.850  54.360  1.00  0.00    -0.314 N 
HETATM   22  C14 UNL     1      26.880   0.070  54.766  1.00  0.00     0.296 C 
HETATM   23  N5  UNL     1      28.273  -0.192  54.870  1.00  0.00    -0.254 NA
HETATM   24  O1  UNL     1      26.518   1.232  55.067  1.00  0.00    -0.254 OA
HETATM   25  H10 UNL     1      28.829   0.248  55.664  1.00  0.00     0.128 HD
HETATM   26  H11 UNL     1      28.823   0.235  55.643  1.00  0.00     0.128 HD
HETATM   27  H9  UNL     1      26.335  -1.768  54.142  1.00  0.00     0.170 HD
ENDBRANCH  19  21
ENDBRANCH   9  11
ENDBRANCH   7   9
TORSDOF 3
ENDMDL
MODEL 2
REMARK VINA RESULT:      -8.6      1.812      2.152
REMARK  3 active torsions:
REMARK  status: ('A' for Active; 'I' for Inactive)
REMARK    1  A    between atoms: C7_7  and  N1_8 
REMARK    2  A    between atoms: N1_8  and  C8_9 
REMARK    3  A    between atoms: C13_16  and  N4_17 
REMARK       I    between atoms: N4_17  and  C14_18 
REMARK       I    between atoms: C14_18  and  N5_19 
ROOT
HETATM    1  C1  UNL     1      27.873   4.783  48.567  1.00  0.00     0.018 C 
HETATM    2  C2  UNL     1      26.738   5.012  48.924  1.00  0.00    -0.078 C 
HETATM    3  C3  UNL     1      25.402   5.289  49.365  1.00  0.00     0.019 A 
HETATM    4  C4  UNL     1      24.607   6.194  48.698  1.00  0.00     0.021 A 
HETATM    5  C5  UNL     1      23.345   6.415  49.160  1.00  0.00     0.004 A 
HETATM    6  C6  UNL     1      22.903   5.741  50.261  1.00  0.00     0.029 A 
HETATM    7  C7  UNL     1      23.625   4.822  50.990  1.00  0.00     0.035 A 
HETATM    8  C17 UNL     1      24.892   4.644  50.470  1.00  0.00     0.050 A 
ENDROOT
BRANCH   7   9
HETATM    9  N1  UNL     1      23.132   4.120  52.122  1.00  0.00    -0.340 N 
HETATM   10  H5  UNL     1      23.089   4.758  52.913  1.00  0.00     0.167 HD
BRANCH   9  11
HETATM   11  C8  UNL     1      22.747   2.758  52.187  1.00  0.00     0.142 A 
HETATM   12  N2  UNL     1      21.574   2.366  51.733  1.00  0.00    -0.224 NA
HETATM   13  C9  UNL     1      21.156   1.097  51.763  1.00  0.00     0.236 A 
HETATM   14  N3  UNL     1      21.982   0.169  52.290  1.00  0.00    -0.241 NA
HETATM   15  C10 UNL     1      23.199   0.526  52.770  1.00  0.00     0.072 A 
HETATM   16  C11 UNL     1      24.000  -0.472  53.296  1.00  0.00     0.035 A 
HETATM   17  C16 UNL     1      23.616   1.841  52.730  1.00  0.00     0.041 A 
HETATM   18  C12 UNL     1      25.226  -0.082  53.774  1.00  0.00     0.032 A 
HETATM   19  C13 UNL     1      25.706   1.203  53.768  1.00  0.00     0.036 A 
HETATM   20  C15 UNL     1      24.861   2.145  53.232  1.00  0.00     0.047 A 
BRANCH  19  21
HETATM   21  N4  UNL     1      26.959   1.643  54.248  1.00  0.00    -0.314 N 
HETATM   22  C14 UNL     1      28.058   2.164  53.532  1.00  0.00     0.296 C 
HETATM   23  N5  UNL     1      29.294   2.589  54.089  1.00  0.00    -0.254 NA
HETATM   24  O1  UNL     1      27.953   2.271  52.286  1.00  0.00    -0.254 OA
HETATM   25  H10 UNL     1      29.787   3.439  53.681  1.00  0.00     0.128 HD
HETATM   26  H11 UNL     1      29.781   3.419  53.694  1.00  0.00     0.128 HD
HETATM   27  H9  UNL     1      27.189   1.612  55.265  1.00  0.00     0.170 HD
ENDBRANCH  19  21
ENDBRANCH   9  11
ENDBRANCH   7   9
TORSDOF 3
ENDMDL
MODEL 3
REMARK VINA RESULT:      -8.3      3.660      7.286
REMARK  3 active torsions:
REMARK  status: ('A' for Active; 'I' for Inactive)
REMARK    1  A    between atoms: C7_7  and  N1_8 
REMARK    2  A    between atoms: N1_8  and  C8_9 
REMARK    3  A    between atoms: C13_16  and  N4_17 
REMARK       I    between atoms: N4_17  and  C14_18 
REMARK       I    between atoms: C14_18  and  N5_19 
ROOT
HETATM    1  C1  UNL     1      22.479  -1.255  54.838  1.00  0.00     0.018 C 
HETATM    2  C2  UNL     1      23.342  -0.747  54.155  1.00  0.00    -0.078 C 
HETATM    3  C3  UNL     1      24.363  -0.128  53.360  1.00  0.00     0.019 A 
HETATM    4  C4  UNL     1      25.553  -0.773  53.107  1.00  0.00     0.021 A 
HETATM    5  C5  UNL     1      26.485  -0.140  52.343  1.00  0.00     0.004 A 
HETATM    6  C6  UNL     1      26.221   1.106  51.852  1.00  0.00     0.029 A 
HETATM    7  C7  UNL     1      25.063   1.824  52.053  1.00  0.00     0.035 A 
HETATM    8  C17 UNL     1      24.162   1.127  52.833  1.00  0.00     0.050 A 
ENDROOT
BRANCH   7   9
HETATM    9  N1  UNL     1      24.807   3.113  51.512  1.00  0.00    -0.340 N 
HETATM   10  H5  UNL     1      25.213   3.815  52.126  1.00  0.00     0.167 HD
BRANCH   9  11
HETATM   11  C8  UNL     1      24.108   3.419  50.318  1.00  0.00     0.142 A 
HETATM   12  N2  UNL     1      23.409   2.497  49.689  1.00  0.00    -0.224 NA
HETATM   13  C9  UNL     1      22.728   2.725  48.562  1.00  0.00     0.236 A 
HETATM   14  N3  UNL     1      22.760   3.969  48.043  1.00  0.00    -0.241 NA
HETATM   15  C10 UNL     1      23.466   4.952  48.655  1.00  0.00     0.072 A 
HETATM   16  C11 UNL     1      23.459   6.206  48.072  1.00  0.00     0.035 A 
HETATM   17  C16 UNL     1      24.165   4.700  49.818  1.00  0.00     0.041 A 
HETATM   18  C12 UNL     1      24.183   7.181  48.714  1.00  0.00     0.032 A 
HETATM   19  C13 UNL     1      24.899   7.004  49.869  1.00  0.00     0.036 A 
HETATM   20  C15 UNL     1      24.864   5.734  50.396  1.00  0.00     0.047 A 
BRANCH  19  21
HETATM   21  N4  UNL     1      25.652   7.979  50.560  1.00  0.00    -0.314 N 
HETATM   22  C14 UNL     1      26.898   8.551  50.223  1.00  0.00     0.296 C 
HETATM   23  N5  UNL     1      27.598   9.533  50.974  1.00  0.00    -0.254 NA
HETATM   24  O1  UNL     1      27.456   8.169  49.166  1.00  0.00    -0.254 OA
HETATM   25  H10 UNL     1      28.135  10.297  50.463  1.00  0.00     0.128 HD
HETATM   26  H11 UNL     1      28.125  10.282  50.481  1.00  0.00     0.128 HD
HETATM   27  H9  UNL     1      25.312   8.388  51.457  1.00  0.00     0.170 HD
ENDBRANCH  19  21
ENDBRANCH   9  11
ENDBRANCH   7   9
TORSDOF 3
ENDMDL
MODEL 4
REMARK VINA RESULT:      -8.1      2.168      3.523
REMARK  3 active torsions:
REMARK  status: ('A' for Active; 'I' for Inactive)
REMARK    1  A    between atoms: C7_7  and  N1_8 
REMARK    2  A    between atoms: N1_8  and  C8_9 
REMARK    3  A    between atoms: C13_16  and  N4_17 
REMARK       I    between atoms: N4_17  and  C14_18 
REMARK       I    between atoms: C14_18  and  N5_19 
ROOT
HETATM    1  C1  UNL     1      31.103   5.883  47.590  1.00  0.00     0.018 C 
HETATM    2  C2  UNL     1      29.930   5.880  47.897  1.00  0.00    -0.078 C 
HETATM    3  C3  UNL     1      28.549   5.866  48.280  1.00  0.00     0.019 A 
HETATM    4  C4  UNL     1      27.797   7.020  48.267  1.00  0.00     0.021 A 
HETATM    5  C5  UNL     1      26.489   6.948  48.638  1.00  0.00     0.004 A 
HETATM    6  C6  UNL     1      25.959   5.747  49.009  1.00  0.00     0.029 A 
HETATM    7  C7  UNL     1      26.633   4.546  49.054  1.00  0.00     0.035 A 
HETATM    8  C17 UNL     1      27.950   4.688  48.666  1.00  0.00     0.050 A 
ENDROOT
BRANCH   7   9
HETATM    9  N1  UNL     1      26.049   3.305  49.426  1.00  0.00    -0.340 N 
HETATM   10  H5  UNL     1      26.537   2.554  48.944  1.00  0.00     0.167 HD
BRANCH   9  11
HETATM   11  C8  UNL     1      24.968   3.098  50.318  1.00  0.00     0.142 A 
HETATM   12  N2  UNL     1      23.825   3.731  50.152  1.00  0.00    -0.224 NA
HETATM   13  C9  UNL     1      22.770   3.575  50.957  1.00  0.00     0.236 A 
HETATM   14  N3  UNL     1      22.885   2.722  51.996  1.00  0.00    -0.241 NA
HETATM   15  C10 UNL     1      24.042   2.048  52.207  1.00  0.00     0.072 A 
HETATM   16  C11 UNL     1      24.097   1.188  53.289  1.00  0.00     0.035 A 
HETATM   17  C16 UNL     1      25.124   2.220  51.366  1.00  0.00     0.041 A 
HETATM   18  C12 UNL     1      25.281   0.518  53.478  1.00  0.00     0.032 A 
HETATM   19  C13 UNL     1      26.394   0.639  52.685  1.00  0.00     0.036 A 
HETATM   20  C15 UNL     1      26.273   1.510  51.628  1.00  0.00     0.047 A 
BRANCH  19  21
HETATM   21  N4  UNL     1      27.627  -0.031  52.844  1.00  0.00    -0.314 N 
HETATM   22  C14 UNL     1      28.506  -0.037  53.948  1.00  0.00     0.296 C 
HETATM   23  N5  UNL     1      29.737  -0.741  54.034  1.00  0.00    -0.254 NA
HETATM   24  O1  UNL     1      28.188   0.635  54.959  1.00  0.00    -0.254 OA
HETATM   25  H10 UNL     1      30.024  -1.181  54.959  1.00  0.00     0.128 HD
HETATM   26  H11 UNL     1      30.024  -1.173  54.935  1.00  0.00     0.128 HD
HETATM   27  H9  UNL     1      28.018  -0.627  52.084  1.00  0.00     0.170 HD
ENDBRANCH  19  21
ENDBRANCH   9  11
ENDBRANCH   7   9
TORSDOF 3
ENDMDL
MODEL 5
REMARK VINA RESULT:      -8.1      1.880      4.164
REMARK  3 active torsions:
REMARK  status: ('A' for Active; 'I' for Inactive)
REMARK    1  A    between atoms: C7_7  and  N1_8 
REMARK    2  A    between atoms: N1_8  and  C8_9 
REMARK    3  A    between atoms: C13_16  and  N4_17 
REMARK       I    between atoms: N4_17  and  C14_18 
REMARK       I    between atoms: C14_18  and  N5_19 
ROOT
HETATM    1  C1  UNL     1      27.058   6.402  48.266  1.00  0.00     0.018 C 
HETATM    2  C2  UNL     1      26.398   5.748  49.043  1.00  0.00    -0.078 C 
HETATM    3  C3  UNL     1      25.634   4.970  49.975  1.00  0.00     0.019 A 
HETATM    4  C4  UNL     1      24.521   5.494  50.593  1.00  0.00     0.021 A 
HETATM    5  C5  UNL     1      23.832   4.708  51.466  1.00  0.00     0.004 A 
HETATM    6  C6  UNL     1      24.257   3.434  51.705  1.00  0.00     0.029 A 
HETATM    7  C7  UNL     1      25.355   2.828  51.136  1.00  0.00     0.035 A 
HETATM    8  C17 UNL     1      26.007   3.676  50.262  1.00  0.00     0.050 A 
ENDROOT
BRANCH   7   9
HETATM    9  N1  UNL     1      25.763   1.491  51.389  1.00  0.00    -0.340 N 
HETATM   10  H5  UNL     1      25.675   0.951  50.531  1.00  0.00     0.167 HD
BRANCH   9  11
HETATM   11  C8  UNL     1      26.225   0.951  52.615  1.00  0.00     0.142 A 
HETATM   12  N2  UNL     1      27.472   1.128  53.002  1.00  0.00    -0.224 NA
HETATM   13  C9  UNL     1      27.966   0.647  54.147  1.00  0.00     0.236 A 
HETATM   14  N3  UNL     1      27.139  -0.058  54.948  1.00  0.00    -0.241 NA
HETATM   15  C10 UNL     1      25.847  -0.265  54.591  1.00  0.00     0.072 A 
HETATM   16  C11 UNL     1      25.051  -0.994  55.455  1.00  0.00     0.035 A 
HETATM   17  C16 UNL     1      25.353   0.239  53.404  1.00  0.00     0.041 A 
HETATM   18  C12 UNL     1      23.748  -1.188  55.068  1.00  0.00     0.032 A 
HETATM   19  C13 UNL     1      23.189  -0.719  53.907  1.00  0.00     0.036 A 
HETATM   20  C15 UNL     1      24.035  -0.003  53.093  1.00  0.00     0.047 A 
BRANCH  19  21
HETATM   21  N4  UNL     1      21.856  -0.895  53.474  1.00  0.00    -0.314 N 
HETATM   22  C14 UNL     1      20.661  -0.394  54.033  1.00  0.00     0.296 C 
HETATM   23  N5  UNL     1      19.348  -0.615  53.537  1.00  0.00    -0.254 NA
HETATM   24  O1  UNL     1      20.744   0.317  55.063  1.00  0.00    -0.254 OA
HETATM   25  H10 UNL     1      18.632   0.170  53.585  1.00  0.00     0.128 HD
HETATM   26  H11 UNL     1      18.643   0.148  53.581  1.00  0.00     0.128 HD
HETATM   27  H9  UNL     1      21.634  -1.464  52.629  1.00  0.00     0.170 HD
ENDBRANCH  19  21
ENDBRANCH   9  11
ENDBRANCH   7   9
TORSDOF 3
ENDMDL
MODEL 6
REMARK VINA RESULT:      -8.0      1.655      2.389
REMARK  3 active torsions:
REMARK  status: ('A' for Active; 'I' for Inactive)
REMARK    1  A    between atoms: C7_7  and  N1_8 
REMARK    2  A    between atoms: N1_8  and  C8_9 
REMARK    3  A    between atoms: C13_16  and  N4_17 
REMARK       I    between atoms: N4_17  and  C14_18 
REMARK       I    between atoms: C14_18  and  N5_19 
ROOT
HETATM    1  C1  UNL     1      26.039   8.523  48.375  1.00  0.00     0.018 C 
HETATM    2  C2  UNL     1      26.037   7.379  48.775  1.00  0.00    -0.078 C 
HETATM    3  C3  UNL     1      26.012   6.023  49.242  1.00  0.00     0.019 A 
HETATM    4  C4  UNL     1      26.926   5.099  48.788  1.00  0.00     0.021 A 
HETATM    5  C5  UNL     1      26.859   3.827  49.268  1.00  0.00     0.004 A 
HETATM    6  C6  UNL     1      25.896   3.501  50.179  1.00  0.00     0.029 A 
HETATM    7  C7  UNL     1      24.943   4.356  50.687  1.00  0.00     0.035 A 
HETATM    8  C17 UNL     1      25.068   5.626  50.161  1.00  0.00     0.050 A 
ENDROOT
BRANCH   7   9
HETATM    9  N1  UNL     1      23.964   3.994  51.651  1.00  0.00    -0.340 N 
HETATM   10  H5  UNL     1      23.995   4.660  52.420  1.00  0.00     0.167 HD
BRANCH   9  11
HETATM   11  C8  UNL     1      23.068   2.897  51.596  1.00  0.00     0.142 A 
HETATM   12  N2  UNL     1      21.951   2.974  50.902  1.00  0.00    -0.224 NA
HETATM   13  C9  UNL     1      21.068   1.974  50.809  1.00  0.00     0.236 A 
HETATM   14  N3  UNL     1      21.340   0.825  51.462  1.00  0.00    -0.241 NA
HETATM   15  C10 UNL     1      22.478   0.700  52.188  1.00  0.00     0.072 A 
HETATM   16  C11 UNL     1      22.699  -0.503  52.834  1.00  0.00     0.035 A 
HETATM   17  C16 UNL     1      23.380   1.742  52.275  1.00  0.00     0.041 A 
HETATM   18  C12 UNL     1      23.860  -0.601  53.561  1.00  0.00     0.032 A 
HETATM   19  C13 UNL     1      24.798   0.390  53.692  1.00  0.00     0.036 A 
HETATM   20  C15 UNL     1      24.517   1.559  53.026  1.00  0.00     0.047 A 
BRANCH  19  21
HETATM   21  N4  UNL     1      26.002   0.328  54.428  1.00  0.00    -0.314 N 
HETATM   22  C14 UNL     1      27.255  -0.202  54.051  1.00  0.00     0.296 C 
HETATM   23  N5  UNL     1      28.428  -0.228  54.852  1.00  0.00    -0.254 NA
HETATM   24  O1  UNL     1      27.364  -0.701  52.905  1.00  0.00    -0.254 OA
HETATM   25  H10 UNL     1      29.376  -0.072  54.396  1.00  0.00     0.128 HD
HETATM   26  H11 UNL     1      29.358  -0.076  54.412  1.00  0.00     0.128 HD
HETATM   27  H9  UNL     1      26.061   0.703  55.399  1.00  0.00     0.170 HD
ENDBRANCH  19  21
ENDBRANCH   9  11
ENDBRANCH   7   9
TORSDOF 3
ENDMDL
MODEL 7
REMARK VINA RESULT:      -8.0      3.657      5.848
REMARK  3 active torsions:
REMARK  status: ('A' for Active; 'I' for Inactive)
REMARK    1  A    between atoms: C7_7  and  N1_8 
REMARK    2  A    between atoms: N1_8  and  C8_9 
REMARK    3  A    between atoms: C13_16  and  N4_17 
REMARK       I    between atoms: N4_17  and  C14_18 
REMARK       I    between atoms: C14_18  and  N5_19 
ROOT
HETATM    1  C1  UNL     1      29.793   2.125  54.611  1.00  0.00     0.018 C 
HETATM    2  C2  UNL     1      29.070   1.267  54.153  1.00  0.00    -0.078 C 
HETATM    3  C3  UNL     1      28.208   0.266  53.596  1.00  0.00     0.019 A 
HETATM    4  C4  UNL     1      28.684  -0.988  53.287  1.00  0.00     0.021 A 
HETATM    5  C5  UNL     1      27.821  -1.901  52.762  1.00  0.00     0.004 A 
HETATM    6  C6  UNL     1      26.517  -1.554  52.557  1.00  0.00     0.029 A 
HETATM    7  C7  UNL     1      25.954  -0.328  52.834  1.00  0.00     0.035 A 
HETATM    8  C17 UNL     1      26.881   0.548  53.363  1.00  0.00     0.050 A 
ENDROOT
BRANCH   7   9
HETATM    9  N1  UNL     1      24.587  -0.001  52.629  1.00  0.00    -0.340 N 
HETATM   10  H5  UNL     1      24.510   0.596  51.809  1.00  0.00     0.167 HD
BRANCH   9  11
HETATM   11  C8  UNL     1      23.478  -0.416  53.408  1.00  0.00     0.142 A 
HETATM   12  N2  UNL     1      23.654  -0.964  54.593  1.00  0.00    -0.224 NA
HETATM   13  C9  UNL     1      22.649  -1.372  55.375  1.00  0.00     0.236 A 
HETATM   14  N3  UNL     1      21.388  -1.212  54.923  1.00  0.00    -0.241 NA
HETATM   15  C10 UNL     1      21.159  -0.652  53.710  1.00  0.00     0.072 A 
HETATM   16  C11 UNL     1      19.844  -0.515  53.304  1.00  0.00     0.035 A 
HETATM   17  C16 UNL     1      22.207  -0.235  52.914  1.00  0.00     0.041 A 
HETATM   18  C12 UNL     1      19.641   0.056  52.072  1.00  0.00     0.032 A 
HETATM   19  C13 UNL     1      20.631   0.491  51.229  1.00  0.00     0.036 A 
HETATM   20  C15 UNL     1      21.915   0.326  51.693  1.00  0.00     0.047 A 
BRANCH  19  21
HETATM   21  N4  UNL     1      20.465   1.084  49.958  1.00  0.00    -0.314 N 
HETATM   22  C14 UNL     1      20.287   2.443  49.620  1.00  0.00     0.296 C 
HETATM   23  N5  UNL     1      20.125   2.965  48.309  1.00  0.00    -0.254 NA
HETATM   24  O1  UNL     1      20.267   3.284  50.551  1.00  0.00    -0.254 OA
HETATM   25  H10 UNL     1      20.566   3.901  48.061  1.00  0.00     0.128 HD
HETATM   26  H11 UNL     1      20.553   3.879  48.060  1.00  0.00     0.128 HD
HETATM   27  H9  UNL     1      20.460   0.505  49.090  1.00  0.00     0.170 HD
ENDBRANCH  19  21
ENDBRANCH   9  11
ENDBRANCH   7   9
TORSDOF 3
ENDMDL
MODEL 8
REMARK VINA RESULT:      -7.9      2.396      4.882
REMARK  3 active torsions:
REMARK  status: ('A' for Active; 'I' for Inactive)
REMARK    1  A    between atoms: C7_7  and  N1_8 
REMARK    2  A    between atoms: N1_8  and  C8_9 
REMARK    3  A    between atoms: C13_16  and  N4_17 
REMARK       I    between atoms: N4_17  and  C14_18 
REMARK       I    between atoms: C14_18  and  N5_19 
ROOT
HETATM    1  C1  UNL     1      30.195   6.092  47.717  1.00  0.00     0.018 C 
HETATM    2  C2  UNL     1      29.036   6.030  48.064  1.00  0.00    -0.078 C 
HETATM    3  C3  UNL     1      27.670   5.948  48.492  1.00  0.00     0.019 A 
HETATM    4  C4  UNL     1      26.857   7.059  48.491  1.00  0.00     0.021 A 
HETATM    5  C5  UNL     1      25.568   6.922  48.905  1.00  0.00     0.004 A 
HETATM    6  C6  UNL     1      25.116   5.699  49.308  1.00  0.00     0.029 A 
HETATM    7  C7  UNL     1      25.854   4.537  49.342  1.00  0.00     0.035 A 
HETATM    8  C17 UNL     1      27.148   4.745  48.910  1.00  0.00     0.050 A 
ENDROOT
BRANCH   7   9
HETATM    9  N1  UNL     1      25.350   3.271  49.747  1.00  0.00    -0.340 N 
HETATM   10  H5  UNL     1      24.687   2.942  49.050  1.00  0.00     0.167 HD
BRANCH   9  11
HETATM   11  C8  UNL     1      25.688   2.547  50.918  1.00  0.00     0.142 A 
HETATM   12  N2  UNL     1      26.930   2.513  51.355  1.00  0.00    -0.224 NA
HETATM   13  C9  UNL     1      27.310   1.851  52.452  1.00  0.00     0.236 A 
HETATM   14  N3  UNL     1      26.366   1.182  53.147  1.00  0.00    -0.241 NA
HETATM   15  C10 UNL     1      25.075   1.188  52.735  1.00  0.00     0.072 A 
HETATM   16  C11 UNL     1      24.156   0.484  53.491  1.00  0.00     0.035 A 
HETATM   17  C16 UNL     1      24.699   1.877  51.599  1.00  0.00     0.041 A 
HETATM   18  C12 UNL     1      22.855   0.508  53.051  1.00  0.00     0.032 A 
HETATM   19  C13 UNL     1      22.410   1.169  51.935  1.00  0.00     0.036 A 
HETATM   20  C15 UNL     1      23.375   1.849  51.228  1.00  0.00     0.047 A 
BRANCH  19  21
HETATM   21  N4  UNL     1      21.085   1.220  51.450  1.00  0.00    -0.314 N 
HETATM   22  C14 UNL     1      19.998   2.000  51.898  1.00  0.00     0.296 C 
HETATM   23  N5  UNL     1      18.685   1.996  51.356  1.00  0.00    -0.254 NA
HETATM   24  O1  UNL     1      20.188   2.777  52.865  1.00  0.00    -0.254 OA
HETATM   25  H10 UNL     1      18.141   2.909  51.296  1.00  0.00     0.128 HD
HETATM   26  H11 UNL     1      18.147   2.885  51.295  1.00  0.00     0.128 HD
HETATM   27  H9  UNL     1      20.781   0.627  50.648  1.00  0.00     0.170 HD
ENDBRANCH  19  21
ENDBRANCH   9  11
ENDBRANCH   7   9
TORSDOF 3
ENDMDL
MODEL 9
REMARK VINA RESULT:      -7.9      4.179      7.860
REMARK  3 active torsions:
REMARK  status: ('A' for Active; 'I' for Inactive)
REMARK    1  A    between atoms: C7_7  and  N1_8 
REMARK    2  A    between atoms: N1_8  and  C8_9 
REMARK    3  A    between atoms: C13_16  and  N4_17 
REMARK       I    between atoms: N4_17  and  C14_18 
REMARK       I    between atoms: C14_18  and  N5_19 
ROOT
HETATM    1  C1  UNL     1      28.329   0.709  54.310  1.00  0.00     0.018 C 
HETATM    2  C2  UNL     1      27.451   1.116  53.581  1.00  0.00    -0.078 C 
HETATM    3  C3  UNL     1      26.422   1.587  52.701  1.00  0.00     0.019 A 
HETATM    4  C4  UNL     1      25.092   1.379  52.989  1.00  0.00     0.021 A 
HETATM    5  C5  UNL     1      24.157   1.851  52.120  1.00  0.00     0.004 A 
HETATM    6  C6  UNL     1      24.556   2.511  50.994  1.00  0.00     0.029 A 
HETATM    7  C7  UNL     1      25.858   2.763  50.624  1.00  0.00     0.035 A 
HETATM    8  C17 UNL     1      26.754   2.261  51.547  1.00  0.00     0.050 A 
ENDROOT
BRANCH   7   9
HETATM    9  N1  UNL     1      26.244   3.472  49.455  1.00  0.00    -0.340 N 
HETATM   10  H5  UNL     1      26.694   2.825  48.811  1.00  0.00     0.167 HD
BRANCH   9  11
HETATM   11  C8  UNL     1      26.054   4.850  49.183  1.00  0.00     0.142 A 
HETATM   12  N2  UNL     1      24.885   5.421  49.385  1.00  0.00    -0.224 NA
HETATM   13  C9  UNL     1      24.644   6.715  49.151  1.00  0.00     0.236 A 
HETATM   14  N3  UNL     1      25.657   7.474  48.683  1.00  0.00    -0.241 NA
HETATM   15  C10 UNL     1      26.878   6.929  48.460  1.00  0.00     0.072 A 
HETATM   16  C11 UNL     1      27.875   7.759  47.980  1.00  0.00     0.035 A 
HETATM   17  C16 UNL     1      27.111   5.590  48.707  1.00  0.00     0.041 A 
HETATM   18  C12 UNL     1      29.101   7.180  47.764  1.00  0.00     0.032 A 
HETATM   19  C13 UNL     1      29.404   5.861  47.986  1.00  0.00     0.036 A 
HETATM   20  C15 UNL     1      28.369   5.091  48.462  1.00  0.00     0.047 A 
BRANCH  19  21
HETATM   21  N4  UNL     1      30.649   5.229  47.779  1.00  0.00    -0.314 N 
HETATM   22  C14 UNL     1      31.760   5.136  48.644  1.00  0.00     0.296 C 
HETATM   23  N5  UNL     1      32.988   4.478  48.363  1.00  0.00    -0.254 NA
HETATM   24  O1  UNL     1      31.676   5.677  49.773  1.00  0.00    -0.254 OA
HETATM   25  H10 UNL     1      33.488   3.950  49.139  1.00  0.00     0.128 HD
HETATM   26  H11 UNL     1      33.482   3.960  49.117  1.00  0.00     0.128 HD
HETATM   27  H9  UNL     1      30.862   4.738  46.884  1.00  0.00     0.170 HD
ENDBRANCH  19  21
ENDBRANCH   9  11
ENDBRANCH   7   9
TORSDOF 3
ENDMDL
