MODEL 1
REMARK VINA RESULT:      -7.3      0.000      0.000
REMARK  7 active torsions:
REMARK  status: ('A' for Active; 'I' for Inactive)
REMARK    1  A    between atoms: C2_2  and  C3_3 
REMARK    2  A    between atoms: C4_5  and  C5_6 
REMARK    3  A    between atoms: C5_6  and  C6_7 
REMARK    4  A    between atoms: C12_16  and  O1_17 
REMARK    5  A    between atoms: O1_17  and  C13_18 
REMARK    6  A    between atoms: C13_18  and  C14_19 
REMARK    7  A    between atoms: C14_19  and  N4_20 
ROOT
HETATM    1  C6  UNL     1      24.908   0.683  53.033  1.00  0.00    -0.020 A 
HETATM    2  C7  UNL     1      26.180   0.777  53.555  1.00  0.00     0.069 A 
HETATM    3  C8  UNL     1      27.118   1.582  52.874  1.00  0.00     0.101 C 
HETATM    4  N1  UNL     1      27.883   2.228  52.341  1.00  0.00    -0.191 NA
HETATM    5  C9  UNL     1      26.582   0.130  54.718  1.00  0.00     0.140 A 
HETATM    6  N2  UNL     1      25.718  -0.639  55.406  1.00  0.00    -0.257 NA
HETATM    7  C10 UNL     1      24.463  -0.741  54.907  1.00  0.00     0.085 A 
HETATM    8  C11 UNL     1      23.621  -1.535  55.651  1.00  0.00     0.151 A 
HETATM    9  N3  UNL     1      22.349  -1.708  55.254  1.00  0.00    -0.235 NA
HETATM   10  C12 UNL     1      21.848  -1.135  54.147  1.00  0.00     0.164 A 
HETATM   11  C17 UNL     1      22.709  -0.342  53.416  1.00  0.00     0.072 A 
HETATM   12  C18 UNL     1      24.019  -0.112  53.747  1.00  0.00     0.006 A 
ENDROOT
BRANCH   1  13
HETATM   13  C5  UNL     1      24.361   1.289  51.834  1.00  0.00     0.069 C 
BRANCH  13  14
HETATM   14  C4  UNL     1      24.086   2.718  51.835  1.00  0.00    -0.007 C 
HETATM   15  C3  UNL     1      24.173   3.733  50.986  1.00  0.00    -0.015 C 
HETATM   16 BR1  UNL     1      23.672   5.483  51.468  1.00  0.00    -0.056 Br
BRANCH  15  17
HETATM   17  C2  UNL     1      24.664   3.584  49.586  1.00  0.00     0.041 C 
HETATM   18  C1  UNL     1      26.165   3.759  49.608  1.00  0.00     0.010 C 
ENDBRANCH  15  17
ENDBRANCH  13  14
ENDBRANCH   1  13
BRANCH  10  19
HETATM   19  O1  UNL     1      20.553  -1.266  53.679  1.00  0.00    -0.333 OA
BRANCH  19  20
HETATM   20  C13 UNL     1      19.667  -0.196  53.476  1.00  0.00     0.207 C 
BRANCH  20  21
HETATM   21  C14 UNL     1      19.366  -0.043  52.023  1.00  0.00     0.298 C 
BRANCH  21  22
HETATM   22  N4  UNL     1      19.851   1.203  51.468  1.00  0.00     0.082 N 
HETATM   23  C15 UNL     1      20.182   2.179  52.456  1.00  0.00     0.309 C 
HETATM   24  C16 UNL     1      20.844   1.046  50.448  1.00  0.00     0.309 C 
ENDBRANCH  21  22
ENDBRANCH  20  21
ENDBRANCH  19  20
ENDBRANCH  10  19
TORSDOF 7
ENDMDL
MODEL 2
REMARK VINA RESULT:      -7.2      1.245      1.746
REMARK  7 active torsions:
REMARK  status: ('A' for Active; 'I' for Inactive)
REMARK    1  A    between atoms: C2_2  and  C3_3 
REMARK    2  A    between atoms: C4_5  and  C5_6 
REMARK    3  A    between atoms: C5_6  and  C6_7 
REMARK    4  A    between atoms: C12_16  and  O1_17 
REMARK    5  A    between atoms: O1_17  and  C13_18 
REMARK    6  A    between atoms: C13_18  and  C14_19 
REMARK    7  A    between atoms: C14_19  and  N4_20 
ROOT
HETATM    1  C6  UNL     1      24.876   0.671  53.064  1.00  0.00    -0.020 A 
HETATM    2  C7  UNL     1      26.165   0.758  53.543  1.00  0.00     0.069 A 
HETATM    3  C8  UNL     1      27.079   1.570  52.838  1.00  0.00     0.101 C 
HETATM    4  N1  UNL     1      27.827   2.221  52.285  1.00  0.00    -0.191 NA
HETATM    5  C9  UNL     1      26.606   0.099  54.685  1.00  0.00     0.140 A 
HETATM    6  N2  UNL     1      25.765  -0.676  55.394  1.00  0.00    -0.257 NA
HETATM    7  C10 UNL     1      24.494  -0.772  54.938  1.00  0.00     0.085 A 
HETATM    8  C11 UNL     1      23.677  -1.573  55.703  1.00  0.00     0.151 A 
HETATM    9  N3  UNL     1      22.392  -1.741  55.348  1.00  0.00    -0.235 NA
HETATM   10  C12 UNL     1      21.854  -1.156  54.265  1.00  0.00     0.164 A 
HETATM   11  C17 UNL     1      22.690  -0.357  53.513  1.00  0.00     0.072 A 
HETATM   12  C18 UNL     1      24.010  -0.131  53.800  1.00  0.00     0.006 A 
ENDROOT
BRANCH   1  13
HETATM   13  C5  UNL     1      24.288   1.289  51.891  1.00  0.00     0.069 C 
BRANCH  13  14
HETATM   14  C4  UNL     1      24.031   2.721  51.909  1.00  0.00    -0.007 C 
HETATM   15  C3  UNL     1      24.081   3.737  51.058  1.00  0.00    -0.015 C 
HETATM   16 BR1  UNL     1      23.631   5.492  51.569  1.00  0.00    -0.056 Br
BRANCH  15  17
HETATM   17  C2  UNL     1      24.490   3.584  49.632  1.00  0.00     0.041 C 
HETATM   18  C1  UNL     1      25.998   3.650  49.580  1.00  0.00     0.010 C 
ENDBRANCH  15  17
ENDBRANCH  13  14
ENDBRANCH   1  13
BRANCH  10  19
HETATM   19  O1  UNL     1      20.543  -1.281  53.841  1.00  0.00    -0.333 OA
BRANCH  19  20
HETATM   20  C13 UNL     1      19.737  -0.212  53.418  1.00  0.00     0.207 C 
BRANCH  20  21
HETATM   21  C14 UNL     1      18.651  -0.708  52.524  1.00  0.00     0.298 C 
BRANCH  21  22
HETATM   22  N4  UNL     1      17.497  -1.201  53.246  1.00  0.00     0.082 N 
HETATM   23  C15 UNL     1      16.259  -0.662  52.782  1.00  0.00     0.309 C 
HETATM   24  C16 UNL     1      17.482  -2.622  53.431  1.00  0.00     0.309 C 
ENDBRANCH  21  22
ENDBRANCH  20  21
ENDBRANCH  19  20
ENDBRANCH  10  19
TORSDOF 7
ENDMDL
MODEL 3
REMARK VINA RESULT:      -7.2      1.912      5.553
REMARK  7 active torsions:
REMARK  status: ('A' for Active; 'I' for Inactive)
REMARK    1  A    between atoms: C2_2  and  C3_3 
REMARK    2  A    between atoms: C4_5  and  C5_6 
REMARK    3  A    between atoms: C5_6  and  C6_7 
REMARK    4  A    between atoms: C12_16  and  O1_17 
REMARK    5  A    between atoms: O1_17  and  C13_18 
REMARK    6  A    between atoms: C13_18  and  C14_19 
REMARK    7  A    between atoms: C14_19  and  N4_20 
ROOT
HETATM    1  C6  UNL     1      22.051   0.007  52.608  1.00  0.00    -0.020 A 
HETATM    2  C7  UNL     1      20.730  -0.303  52.849  1.00  0.00     0.069 A 
HETATM    3  C8  UNL     1      19.770   0.112  51.901  1.00  0.00     0.101 C 
HETATM    4  N1  UNL     1      18.985   0.436  51.148  1.00  0.00    -0.191 NA
HETATM    5  C9  UNL     1      20.298  -1.008  53.966  1.00  0.00     0.140 A 
HETATM    6  N2  UNL     1      21.180  -1.433  54.889  1.00  0.00    -0.257 NA
HETATM    7  C10 UNL     1      22.483  -1.138  54.668  1.00  0.00     0.085 A 
HETATM    8  C11 UNL     1      23.340  -1.600  55.640  1.00  0.00     0.151 A 
HETATM    9  N3  UNL     1      24.659  -1.369  55.525  1.00  0.00    -0.235 NA
HETATM   10  C12 UNL     1      25.193  -0.698  54.491  1.00  0.00     0.164 A 
HETATM   11  C17 UNL     1      24.315  -0.245  53.527  1.00  0.00     0.072 A 
HETATM   12  C18 UNL     1      22.959  -0.435  53.565  1.00  0.00     0.006 A 
ENDROOT
BRANCH   1  13
HETATM   13  C5  UNL     1      22.636   0.738  51.501  1.00  0.00     0.069 C 
BRANCH  13  14
HETATM   14  C4  UNL     1      22.458   2.181  51.443  1.00  0.00    -0.007 C 
HETATM   15  C3  UNL     1      23.201   3.268  51.604  1.00  0.00    -0.015 C 
HETATM   16 BR1  UNL     1      22.491   5.001  51.414  1.00  0.00    -0.056 Br
BRANCH  15  17
HETATM   17  C2  UNL     1      24.652   3.219  51.944  1.00  0.00     0.041 C 
HETATM   18  C1  UNL     1      24.767   3.132  53.448  1.00  0.00     0.010 C 
ENDBRANCH  15  17
ENDBRANCH  13  14
ENDBRANCH   1  13
BRANCH  10  19
HETATM   19  O1  UNL     1      26.536  -0.425  54.305  1.00  0.00    -0.333 OA
BRANCH  19  20
HETATM   20  C13 UNL     1      27.173  -0.367  53.055  1.00  0.00     0.207 C 
BRANCH  20  21
HETATM   21  C14 UNL     1      27.856   0.947  52.885  1.00  0.00     0.298 C 
BRANCH  21  22
HETATM   22  N4  UNL     1      29.198   0.968  53.428  1.00  0.00     0.082 N 
HETATM   23  C15 UNL     1      29.331   1.788  54.590  1.00  0.00     0.309 C 
HETATM   24  C16 UNL     1      29.803  -0.324  53.553  1.00  0.00     0.309 C 
ENDBRANCH  21  22
ENDBRANCH  20  21
ENDBRANCH  19  20
ENDBRANCH  10  19
TORSDOF 7
ENDMDL
MODEL 4
REMARK VINA RESULT:      -6.8      2.512      5.718
REMARK  7 active torsions:
REMARK  status: ('A' for Active; 'I' for Inactive)
REMARK    1  A    between atoms: C2_2  and  C3_3 
REMARK    2  A    between atoms: C4_5  and  C5_6 
REMARK    3  A    between atoms: C5_6  and  C6_7 
REMARK    4  A    between atoms: C12_16  and  O1_17 
REMARK    5  A    between atoms: O1_17  and  C13_18 
REMARK    6  A    between atoms: C13_18  and  C14_19 
REMARK    7  A    between atoms: C14_19  and  N4_20 
ROOT
HETATM    1  C6  UNL     1      24.231  -0.060  53.350  1.00  0.00    -0.020 A 
HETATM    2  C7  UNL     1      24.230  -0.686  54.578  1.00  0.00     0.069 A 
HETATM    3  C8  UNL     1      23.065  -1.384  54.963  1.00  0.00     0.101 C 
HETATM    4  N1  UNL     1      22.138  -1.953  55.288  1.00  0.00    -0.191 NA
HETATM    5  C9  UNL     1      25.314  -0.673  55.447  1.00  0.00     0.140 A 
HETATM    6  N2  UNL     1      26.449  -0.030  55.115  1.00  0.00    -0.257 NA
HETATM    7  C10 UNL     1      26.468   0.589  53.912  1.00  0.00     0.085 A 
HETATM    8  C11 UNL     1      27.652   1.228  53.622  1.00  0.00     0.151 A 
HETATM    9  N3  UNL     1      27.788   1.875  52.452  1.00  0.00    -0.235 NA
HETATM   10  C12 UNL     1      26.809   1.932  51.534  1.00  0.00     0.164 A 
HETATM   11  C17 UNL     1      25.630   1.285  51.844  1.00  0.00     0.072 A 
HETATM   12  C18 UNL     1      25.406   0.603  53.011  1.00  0.00     0.006 A 
ENDROOT
BRANCH   1  13
HETATM   13  C5  UNL     1      23.177   0.016  52.357  1.00  0.00     0.069 C 
BRANCH  13  14
HETATM   14  C4  UNL     1      22.270   1.153  52.384  1.00  0.00    -0.007 C 
HETATM   15  C3  UNL     1      21.188   1.561  51.733  1.00  0.00    -0.015 C 
HETATM   16 BR1  UNL     1      20.322   3.179  52.150  1.00  0.00    -0.056 Br
BRANCH  15  17
HETATM   17  C2  UNL     1      20.563   0.780  50.626  1.00  0.00     0.041 C 
HETATM   18  C1  UNL     1      21.291   1.134  49.351  1.00  0.00     0.010 C 
ENDBRANCH  15  17
ENDBRANCH  13  14
ENDBRANCH   1  13
BRANCH  10  19
HETATM   19  O1  UNL     1      26.878   2.576  50.312  1.00  0.00    -0.333 OA
BRANCH  19  20
HETATM   20  C13 UNL     1      26.410   3.878  50.070  1.00  0.00     0.207 C 
BRANCH  20  21
HETATM   21  C14 UNL     1      27.201   4.515  48.978  1.00  0.00     0.298 C 
BRANCH  21  22
HETATM   22  N4  UNL     1      26.660   5.788  48.549  1.00  0.00     0.082 N 
HETATM   23  C15 UNL     1      25.448   6.146  49.213  1.00  0.00     0.309 C 
HETATM   24  C16 UNL     1      27.624   6.845  48.484  1.00  0.00     0.309 C 
ENDBRANCH  21  22
ENDBRANCH  20  21
ENDBRANCH  19  20
ENDBRANCH  10  19
TORSDOF 7
ENDMDL
MODEL 5
REMARK VINA RESULT:      -6.6      3.180      6.118
REMARK  7 active torsions:
REMARK  status: ('A' for Active; 'I' for Inactive)
REMARK    1  A    between atoms: C2_2  and  C3_3 
REMARK    2  A    between atoms: C4_5  and  C5_6 
REMARK    3  A    between atoms: C5_6  and  C6_7 
REMARK    4  A    between atoms: C12_16  and  O1_17 
REMARK    5  A    between atoms: O1_17  and  C13_18 
REMARK    6  A    between atoms: C13_18  and  C14_19 
REMARK    7  A    between atoms: C14_19  and  N4_20 
ROOT
HETATM    1  C6  UNL     1      23.001   0.535  52.672  1.00  0.00    -0.020 A 
HETATM    2  C7  UNL     1      21.818  -0.141  52.880  1.00  0.00     0.069 A 
HETATM    3  C8  UNL     1      21.711  -0.948  54.033  1.00  0.00     0.101 C 
HETATM    4  N1  UNL     1      21.607  -1.598  54.957  1.00  0.00    -0.191 NA
HETATM    5  C9  UNL     1      20.728  -0.063  52.022  1.00  0.00     0.140 A 
HETATM    6  N2  UNL     1      20.782   0.703  50.916  1.00  0.00    -0.257 NA
HETATM    7  C10 UNL     1      21.936   1.376  50.697  1.00  0.00     0.085 A 
HETATM    8  C11 UNL     1      21.935   2.145  49.557  1.00  0.00     0.151 A 
HETATM    9  N3  UNL     1      23.026   2.861  49.238  1.00  0.00    -0.235 NA
HETATM   10  C12 UNL     1      24.140   2.864  49.990  1.00  0.00     0.164 A 
HETATM   11  C17 UNL     1      24.119   2.086  51.130  1.00  0.00     0.072 A 
HETATM   12  C18 UNL     1      23.051   1.326  51.529  1.00  0.00     0.006 A 
ENDROOT
BRANCH   1  13
HETATM   13  C5  UNL     1      24.211   0.537  53.471  1.00  0.00     0.069 C 
BRANCH  13  14
HETATM   14  C4  UNL     1      25.210  -0.492  53.231  1.00  0.00    -0.007 C 
HETATM   15  C3  UNL     1      26.497  -0.554  52.915  1.00  0.00    -0.015 C 
HETATM   16 BR1  UNL     1      27.396  -2.195  52.707  1.00  0.00    -0.056 Br
BRANCH  15  17
HETATM   17  C2  UNL     1      27.342   0.656  52.701  1.00  0.00     0.041 C 
HETATM   18  C1  UNL     1      28.575   0.509  53.561  1.00  0.00     0.010 C 
ENDBRANCH  15  17
ENDBRANCH  13  14
ENDBRANCH   1  13
BRANCH  10  19
HETATM   19  O1  UNL     1      25.297   3.574  49.726  1.00  0.00    -0.333 OA
BRANCH  19  20
HETATM   20  C13 UNL     1      25.337   4.938  49.395  1.00  0.00     0.207 C 
BRANCH  20  21
HETATM   21  C14 UNL     1      24.874   5.763  50.548  1.00  0.00     0.298 C 
BRANCH  21  22
HETATM   22  N4  UNL     1      23.599   6.407  50.314  1.00  0.00     0.082 N 
HETATM   23  C15 UNL     1      23.240   6.480  48.934  1.00  0.00     0.309 C 
HETATM   24  C16 UNL     1      22.543   5.949  51.168  1.00  0.00     0.309 C 
ENDBRANCH  21  22
ENDBRANCH  20  21
ENDBRANCH  19  20
ENDBRANCH  10  19
TORSDOF 7
ENDMDL
MODEL 6
REMARK VINA RESULT:      -6.4      2.031      3.353
REMARK  7 active torsions:
REMARK  status: ('A' for Active; 'I' for Inactive)
REMARK    1  A    between atoms: C2_2  and  C3_3 
REMARK    2  A    between atoms: C4_5  and  C5_6 
REMARK    3  A    between atoms: C5_6  and  C6_7 
REMARK    4  A    between atoms: C12_16  and  O1_17 
REMARK    5  A    between atoms: O1_17  and  C13_18 
REMARK    6  A    between atoms: C13_18  and  C14_19 
REMARK    7  A    between atoms: C14_19  and  N4_20 
ROOT
HETATM    1  C6  UNL     1      23.150  -0.028  53.220  1.00  0.00    -0.020 A 
HETATM    2  C7  UNL     1      23.604  -0.712  54.328  1.00  0.00     0.069 A 
HETATM    3  C8  UNL     1      24.979  -0.640  54.633  1.00  0.00     0.101 C 
HETATM    4  N1  UNL     1      26.083  -0.589  54.894  1.00  0.00    -0.191 NA
HETATM    5  C9  UNL     1      22.778  -1.458  55.160  1.00  0.00     0.140 A 
HETATM    6  N2  UNL     1      21.458  -1.546  54.914  1.00  0.00    -0.257 NA
HETATM    7  C10 UNL     1      20.995  -0.879  53.830  1.00  0.00     0.085 A 
HETATM    8  C11 UNL     1      19.639  -1.000  53.628  1.00  0.00     0.151 A 
HETATM    9  N3  UNL     1      19.066  -0.377  52.583  1.00  0.00    -0.235 NA
HETATM   10  C12 UNL     1      19.763   0.370  51.711  1.00  0.00     0.164 A 
HETATM   11  C17 UNL     1      21.120   0.478  51.933  1.00  0.00     0.072 A 
HETATM   12  C18 UNL     1      21.785  -0.122  52.970  1.00  0.00     0.006 A 
ENDROOT
BRANCH   1  13
HETATM   13  C5  UNL     1      23.894   0.772  52.267  1.00  0.00     0.069 C 
BRANCH  13  14
HETATM   14  C4  UNL     1      23.741   2.219  52.297  1.00  0.00    -0.007 C 
HETATM   15  C3  UNL     1      23.817   3.231  51.443  1.00  0.00    -0.015 C 
HETATM   16 BR1  UNL     1      23.520   5.012  51.976  1.00  0.00    -0.056 Br
BRANCH  15  17
HETATM   17  C2  UNL     1      24.135   3.053  49.997  1.00  0.00     0.041 C 
HETATM   18  C1  UNL     1      22.857   2.663  49.292  1.00  0.00     0.010 C 
ENDBRANCH  15  17
ENDBRANCH  13  14
ENDBRANCH   1  13
BRANCH  10  19
HETATM   19  O1  UNL     1      19.243   1.038  50.617  1.00  0.00    -0.333 OA
BRANCH  19  20
HETATM   20  C13 UNL     1      19.252   2.434  50.457  1.00  0.00     0.207 C 
BRANCH  20  21
HETATM   21  C14 UNL     1      18.409   3.078  51.505  1.00  0.00     0.298 C 
BRANCH  21  22
HETATM   22  N4  UNL     1      17.053   3.335  51.068  1.00  0.00     0.082 N 
HETATM   23  C15 UNL     1      16.334   4.221  51.928  1.00  0.00     0.309 C 
HETATM   24  C16 UNL     1      16.931   3.647  49.676  1.00  0.00     0.309 C 
ENDBRANCH  21  22
ENDBRANCH  20  21
ENDBRANCH  19  20
ENDBRANCH  10  19
TORSDOF 7
ENDMDL
MODEL 7
REMARK VINA RESULT:      -6.4      1.469      2.139
REMARK  7 active torsions:
REMARK  status: ('A' for Active; 'I' for Inactive)
REMARK    1  A    between atoms: C2_2  and  C3_3 
REMARK    2  A    between atoms: C4_5  and  C5_6 
REMARK    3  A    between atoms: C5_6  and  C6_7 
REMARK    4  A    between atoms: C12_16  and  O1_17 
REMARK    5  A    between atoms: O1_17  and  C13_18 
REMARK    6  A    between atoms: C13_18  and  C14_19 
REMARK    7  A    between atoms: C14_19  and  N4_20 
ROOT
HETATM    1  C6  UNL     1      25.002   1.777  51.586  1.00  0.00    -0.020 A 
HETATM    2  C7  UNL     1      26.313   2.188  51.477  1.00  0.00     0.069 A 
HETATM    3  C8  UNL     1      26.637   3.101  50.451  1.00  0.00     0.101 C 
HETATM    4  N1  UNL     1      26.914   3.838  49.634  1.00  0.00    -0.191 NA
HETATM    5  C9  UNL     1      27.325   1.760  52.327  1.00  0.00     0.140 A 
HETATM    6  N2  UNL     1      27.059   0.898  53.327  1.00  0.00    -0.257 NA
HETATM    7  C10 UNL     1      25.776   0.484  53.449  1.00  0.00     0.085 A 
HETATM    8  C11 UNL     1      25.560  -0.392  54.488  1.00  0.00     0.151 A 
HETATM    9  N3  UNL     1      24.322  -0.868  54.708  1.00  0.00    -0.235 NA
HETATM   10  C12 UNL     1      23.266  -0.526  53.952  1.00  0.00     0.164 A 
HETATM   11  C17 UNL     1      23.505   0.354  52.916  1.00  0.00     0.072 A 
HETATM   12  C18 UNL     1      24.732   0.887  52.620  1.00  0.00     0.006 A 
ENDROOT
BRANCH   1  13
HETATM   13  C5  UNL     1      23.857   2.131  50.770  1.00  0.00     0.069 C 
BRANCH  13  14
HETATM   14  C4  UNL     1      23.231   3.430  50.967  1.00  0.00    -0.007 C 
HETATM   15  C3  UNL     1      23.043   4.544  50.272  1.00  0.00    -0.015 C 
HETATM   16 BR1  UNL     1      22.127   6.025  50.987  1.00  0.00    -0.056 Br
BRANCH  15  17
HETATM   17  C2  UNL     1      23.530   4.722  48.874  1.00  0.00     0.041 C 
HETATM   18  C1  UNL     1      22.460   4.196  47.947  1.00  0.00     0.010 C 
ENDBRANCH  15  17
ENDBRANCH  13  14
ENDBRANCH   1  13
BRANCH  10  19
HETATM   19  O1  UNL     1      21.968  -0.973  54.119  1.00  0.00    -0.333 OA
BRANCH  19  20
HETATM   20  C13 UNL     1      20.857  -0.138  54.321  1.00  0.00     0.207 C 
BRANCH  20  21
HETATM   21  C14 UNL     1      19.803  -0.428  53.307  1.00  0.00     0.298 C 
BRANCH  21  22
HETATM   22  N4  UNL     1      19.477   0.714  52.480  1.00  0.00     0.082 N 
HETATM   23  C15 UNL     1      20.283   1.863  52.748  1.00  0.00     0.309 C 
HETATM   24  C16 UNL     1      19.338   0.412  51.087  1.00  0.00     0.309 C 
ENDBRANCH  21  22
ENDBRANCH  20  21
ENDBRANCH  19  20
ENDBRANCH  10  19
TORSDOF 7
ENDMDL
MODEL 8
REMARK VINA RESULT:      -6.3      3.408      6.427
REMARK  7 active torsions:
REMARK  status: ('A' for Active; 'I' for Inactive)
REMARK    1  A    between atoms: C2_2  and  C3_3 
REMARK    2  A    between atoms: C4_5  and  C5_6 
REMARK    3  A    between atoms: C5_6  and  C6_7 
REMARK    4  A    between atoms: C12_16  and  O1_17 
REMARK    5  A    between atoms: O1_17  and  C13_18 
REMARK    6  A    between atoms: C13_18  and  C14_19 
REMARK    7  A    between atoms: C14_19  and  N4_20 
ROOT
HETATM    1  C6  UNL     1      23.207   1.150  52.321  1.00  0.00    -0.020 A 
HETATM    2  C7  UNL     1      22.157   0.281  52.522  1.00  0.00     0.069 A 
HETATM    3  C8  UNL     1      22.081  -0.391  53.760  1.00  0.00     0.101 C 
HETATM    4  N1  UNL     1      22.003  -0.938  54.752  1.00  0.00    -0.191 NA
HETATM    5  C9  UNL     1      21.168   0.040  51.575  1.00  0.00     0.140 A 
HETATM    6  N2  UNL     1      21.194   0.668  50.385  1.00  0.00    -0.257 NA
HETATM    7  C10 UNL     1      22.219   1.527  50.172  1.00  0.00     0.085 A 
HETATM    8  C11 UNL     1      22.195   2.143  48.942  1.00  0.00     0.151 A 
HETATM    9  N3  UNL     1      23.161   3.019  48.619  1.00  0.00    -0.235 NA
HETATM   10  C12 UNL     1      24.169   3.330  49.452  1.00  0.00     0.164 A 
HETATM   11  C17 UNL     1      24.173   2.702  50.680  1.00  0.00     0.072 A 
HETATM   12  C18 UNL     1      23.230   1.796  51.090  1.00  0.00     0.006 A 
ENDROOT
BRANCH   1  13
HETATM   13  C5  UNL     1      24.304   1.485  53.209  1.00  0.00     0.069 C 
BRANCH  13  14
HETATM   14  C4  UNL     1      25.470   0.615  53.241  1.00  0.00    -0.007 C 
HETATM   15  C3  UNL     1      26.766   0.702  52.974  1.00  0.00    -0.015 C 
HETATM   16 BR1  UNL     1      27.929  -0.764  53.182  1.00  0.00    -0.056 Br
BRANCH  15  17
HETATM   17  C2  UNL     1      27.416   1.956  52.494  1.00  0.00     0.041 C 
HETATM   18  C1  UNL     1      28.423   2.377  53.539  1.00  0.00     0.010 C 
ENDBRANCH  15  17
ENDBRANCH  13  14
ENDBRANCH   1  13
BRANCH  10  19
HETATM   19  O1  UNL     1      25.194   4.220  49.190  1.00  0.00    -0.333 OA
BRANCH  19  20
HETATM   20  C13 UNL     1      25.485   5.353  49.968  1.00  0.00     0.207 C 
BRANCH  20  21
HETATM   21  C14 UNL     1      24.376   6.345  49.870  1.00  0.00     0.298 C 
BRANCH  21  22
HETATM   22  N4  UNL     1      24.840   7.705  49.699  1.00  0.00     0.082 N 
HETATM   23  C15 UNL     1      26.203   7.896  50.082  1.00  0.00     0.309 C 
HETATM   24  C16 UNL     1      24.502   8.289  48.436  1.00  0.00     0.309 C 
ENDBRANCH  21  22
ENDBRANCH  20  21
ENDBRANCH  19  20
ENDBRANCH  10  19
TORSDOF 7
ENDMDL
MODEL 9
REMARK VINA RESULT:      -6.2      3.018      5.969
REMARK  7 active torsions:
REMARK  status: ('A' for Active; 'I' for Inactive)
REMARK    1  A    between atoms: C2_2  and  C3_3 
REMARK    2  A    between atoms: C4_5  and  C5_6 
REMARK    3  A    between atoms: C5_6  and  C6_7 
REMARK    4  A    between atoms: C12_16  and  O1_17 
REMARK    5  A    between atoms: O1_17  and  C13_18 
REMARK    6  A    between atoms: C13_18  and  C14_19 
REMARK    7  A    between atoms: C14_19  and  N4_20 
ROOT
HETATM    1  C6  UNL     1      23.538   0.913  53.072  1.00  0.00    -0.020 A 
HETATM    2  C7  UNL     1      23.752  -0.300  53.691  1.00  0.00     0.069 A 
HETATM    3  C8  UNL     1      22.670  -0.893  54.377  1.00  0.00     0.101 C 
HETATM    4  N1  UNL     1      21.810  -1.385  54.930  1.00  0.00    -0.191 NA
HETATM    5  C9  UNL     1      24.969  -0.970  53.668  1.00  0.00     0.140 A 
HETATM    6  N2  UNL     1      26.024  -0.447  53.016  1.00  0.00    -0.257 NA
HETATM    7  C10 UNL     1      25.831   0.743  52.401  1.00  0.00     0.085 A 
HETATM    8  C11 UNL     1      26.941   1.229  51.748  1.00  0.00     0.151 A 
HETATM    9  N3  UNL     1      26.867   2.403  51.098  1.00  0.00    -0.235 NA
HETATM   10  C12 UNL     1      25.744   3.140  51.052  1.00  0.00     0.164 A 
HETATM   11  C17 UNL     1      24.644   2.634  51.713  1.00  0.00     0.072 A 
HETATM   12  C18 UNL     1      24.631   1.449  52.400  1.00  0.00     0.006 A 
ENDROOT
BRANCH   1  13
HETATM   13  C5  UNL     1      22.334   1.720  53.025  1.00  0.00     0.069 C 
BRANCH  13  14
HETATM   14  C4  UNL     1      21.444   1.585  51.883  1.00  0.00    -0.007 C 
HETATM   15  C3  UNL     1      20.308   0.965  51.593  1.00  0.00    -0.015 C 
HETATM   16 BR1  UNL     1      19.500   1.101  49.898  1.00  0.00    -0.056 Br
BRANCH  15  17
HETATM   17  C2  UNL     1      19.570   0.118  52.574  1.00  0.00     0.041 C 
HETATM   18  C1  UNL     1      18.300  -0.353  51.906  1.00  0.00     0.010 C 
ENDBRANCH  15  17
ENDBRANCH  13  14
ENDBRANCH   1  13
BRANCH  10  19
HETATM   19  O1  UNL     1      25.594   4.353  50.404  1.00  0.00    -0.333 OA
BRANCH  19  20
HETATM   20  C13 UNL     1      24.358   4.949  50.105  1.00  0.00     0.207 C 
BRANCH  20  21
HETATM   21  C14 UNL     1      24.543   6.051  49.118  1.00  0.00     0.298 C 
BRANCH  21  22
HETATM   22  N4  UNL     1      24.697   7.351  49.735  1.00  0.00     0.082 N 
HETATM   23  C15 UNL     1      23.860   7.545  50.876  1.00  0.00     0.309 C 
HETATM   24  C16 UNL     1      26.058   7.750  49.935  1.00  0.00     0.309 C 
ENDBRANCH  21  22
ENDBRANCH  20  21
ENDBRANCH  19  20
ENDBRANCH  10  19
TORSDOF 7
ENDMDL
