MODEL 1
REMARK VINA RESULT:      -9.1      0.000      0.000
REMARK  8 active torsions:
REMARK  status: ('A' for Active; 'I' for Inactive)
REMARK    1  A    between atoms: C4_4  and  N1_5 
REMARK    2  A    between atoms: C12_14  and  C13_15 
REMARK    3  A    between atoms: C13_15  and  N3_16 
REMARK    4  A    between atoms: C13_15  and  C14_17 
REMARK    5  A    between atoms: N4_19  and  C16_20 
REMARK    6  A    between atoms: C16_20  and  C17_21 
REMARK    7  A    between atoms: C17_21  and  C18_22 
REMARK    8  A    between atoms: C24_28  and  O1_29 
ROOT
HETATM    1  C13 UNL     1      21.393   1.884  51.930  1.00  0.00     0.302 C 
ENDROOT
BRANCH   1   2
HETATM    2  C12 UNL     1      22.291   2.927  51.435  1.00  0.00    -0.014 A 
HETATM    3  C2  UNL     1      22.832   3.021  50.174  1.00  0.00    -0.051 A 
HETATM    4  C1  UNL     1      22.481   1.962  49.181  1.00  0.00     0.049 C 
HETATM    5  C3  UNL     1      23.676   4.035  49.771  1.00  0.00     0.036 A 
HETATM    6  C4  UNL     1      24.043   5.037  50.607  1.00  0.00     0.030 A 
HETATM    7  C10 UNL     1      23.536   5.003  51.889  1.00  0.00     0.030 A 
HETATM    8  C11 UNL     1      22.683   3.971  52.284  1.00  0.00     0.012 A 
BRANCH   6   9
HETATM    9  N1  UNL     1      24.907   6.109  50.269  1.00  0.00    -0.378 N 
HETATM   10  C5  UNL     1      26.003   6.077  49.311  1.00  0.00     0.153 C 
HETATM   11  C6  UNL     1      25.608   6.922  48.141  1.00  0.00     0.291 C 
HETATM   12  N2  UNL     1      25.398   8.270  48.603  1.00  0.00     0.087 N 
HETATM   13  C7  UNL     1      26.600   9.044  48.736  1.00  0.00     0.310 C 
HETATM   14  C8  UNL     1      24.502   8.383  49.708  1.00  0.00     0.291 C 
HETATM   15  C9  UNL     1      24.805   7.438  50.856  1.00  0.00     0.153 C 
ENDBRANCH   6   9
ENDBRANCH   1   2
BRANCH   1  16
HETATM   16  N3  UNL     1      20.192   2.513  52.490  1.00  0.00     0.093 N 
HETATM   17  H19 UNL     1      19.536   1.805  52.853  1.00  0.00     0.314 HD
HETATM   18  H20 UNL     1      19.716   3.140  51.833  1.00  0.00     0.314 HD
ENDBRANCH   1  16
BRANCH   1  19
HETATM   19  C14 UNL     1      21.980   0.933  52.881  1.00  0.00     0.062 A 
HETATM   20  C15 UNL     1      23.243   0.517  53.073  1.00  0.00     0.120 A 
HETATM   21  N4  UNL     1      23.653  -0.428  54.054  1.00  0.00    -0.335 N 
HETATM   22  C24 UNL     1      22.664  -0.974  54.894  1.00  0.00     0.157 A 
HETATM   23  C25 UNL     1      21.391  -0.604  54.756  1.00  0.00     0.144 A 
HETATM   24  N5  UNL     1      20.998   0.356  53.754  1.00  0.00    -0.362 N 
HETATM   25  H33 UNL     1      19.970   0.547  53.766  1.00  0.00     0.165 HD
BRANCH  21  26
HETATM   26  C16 UNL     1      25.054  -0.729  54.084  1.00  0.00     0.135 C 
BRANCH  26  27
HETATM   27  C17 UNL     1      25.796  -0.397  52.832  1.00  0.00     0.058 C 
BRANCH  27  28
HETATM   28  C18 UNL     1      27.254  -0.533  53.095  1.00  0.00    -0.057 A 
HETATM   29  C19 UNL     1      28.048   0.539  53.458  1.00  0.00     0.007 A 
HETATM   30  C20 UNL     1      29.407   0.450  53.711  1.00  0.00     0.001 A 
HETATM   31  C21 UNL     1      30.024  -0.786  53.595  1.00  0.00     0.000 A 
HETATM   32  C22 UNL     1      29.232  -1.854  53.234  1.00  0.00     0.001 A 
HETATM   33  C23 UNL     1      27.879  -1.769  52.982  1.00  0.00     0.007 A 
ENDBRANCH  27  28
ENDBRANCH  26  27
ENDBRANCH  21  26
BRANCH  22  34
HETATM   34  O1  UNL     1      23.077  -1.901  55.854  1.00  0.00    -0.345 OA
HETATM   35  H31 UNL     1      23.707  -1.678  56.597  1.00  0.00     0.219 HD
ENDBRANCH  22  34
ENDBRANCH   1  19
TORSDOF 8
ENDMDL
MODEL 2
REMARK VINA RESULT:      -8.6      3.010      6.436
REMARK  8 active torsions:
REMARK  status: ('A' for Active; 'I' for Inactive)
REMARK    1  A    between atoms: C4_4  and  N1_5 
REMARK    2  A    between atoms: C12_14  and  C13_15 
REMARK    3  A    between atoms: C13_15  and  N3_16 
REMARK    4  A    between atoms: C13_15  and  C14_17 
REMARK    5  A    between atoms: N4_19  and  C16_20 
REMARK    6  A    between atoms: C16_20  and  C17_21 
REMARK    7  A    between atoms: C17_21  and  C18_22 
REMARK    8  A    between atoms: C24_28  and  O1_29 
ROOT
HETATM    1  C13 UNL     1      22.174   4.960  51.038  1.00  0.00     0.302 C 
ENDROOT
BRANCH   1   2
HETATM    2  C12 UNL     1      23.322   4.080  51.252  1.00  0.00    -0.014 A 
HETATM    3  C2  UNL     1      24.143   3.543  50.287  1.00  0.00    -0.051 A 
HETATM    4  C1  UNL     1      23.856   3.878  48.860  1.00  0.00     0.049 C 
HETATM    5  C3  UNL     1      25.213   2.716  50.557  1.00  0.00     0.036 A 
HETATM    6  C4  UNL     1      25.544   2.364  51.824  1.00  0.00     0.030 A 
HETATM    7  C10 UNL     1      24.762   2.869  52.841  1.00  0.00     0.030 A 
HETATM    8  C11 UNL     1      23.681   3.704  52.553  1.00  0.00     0.012 A 
BRANCH   6   9
HETATM    9  N1  UNL     1      26.624   1.519  52.182  1.00  0.00    -0.378 N 
HETATM   10  C5  UNL     1      27.871   1.920  52.821  1.00  0.00     0.153 C 
HETATM   11  C6  UNL     1      27.865   1.365  54.211  1.00  0.00     0.291 C 
HETATM   12  N2  UNL     1      27.794  -0.070  54.129  1.00  0.00     0.087 N 
HETATM   13  C7  UNL     1      29.057  -0.713  53.894  1.00  0.00     0.310 C 
HETATM   14  C8  UNL     1      26.725  -0.564  53.322  1.00  0.00     0.291 C 
HETATM   15  C9  UNL     1      26.629   0.081  51.952  1.00  0.00     0.153 C 
ENDBRANCH   6   9
ENDBRANCH   1   2
BRANCH   1  16
HETATM   16  N3  UNL     1      22.214   6.046  52.024  1.00  0.00     0.093 N 
HETATM   17  H19 UNL     1      22.995   6.692  51.834  1.00  0.00     0.314 HD
HETATM   18  H20 UNL     1      22.250   5.716  52.994  1.00  0.00     0.314 HD
ENDBRANCH   1  16
BRANCH   1  19
HETATM   19  C14 UNL     1      20.860   4.306  51.029  1.00  0.00     0.062 A 
HETATM   20  C15 UNL     1      20.430   3.145  51.549  1.00  0.00     0.120 A 
HETATM   21  N4  UNL     1      19.102   2.645  51.449  1.00  0.00    -0.335 N 
HETATM   22  C24 UNL     1      18.158   3.424  50.753  1.00  0.00     0.157 A 
HETATM   23  C25 UNL     1      18.520   4.587  50.213  1.00  0.00     0.144 A 
HETATM   24  N5  UNL     1      19.873   5.074  50.326  1.00  0.00    -0.362 N 
HETATM   25  H33 UNL     1      20.005   5.998  49.854  1.00  0.00     0.165 HD
BRANCH  21  26
HETATM   26  C16 UNL     1      18.861   1.381  52.079  1.00  0.00     0.135 C 
BRANCH  26  27
HETATM   27  C17 UNL     1      19.647   0.240  51.521  1.00  0.00     0.058 C 
BRANCH  27  28
HETATM   28  C18 UNL     1      20.700  -0.135  52.502  1.00  0.00    -0.057 A 
HETATM   29  C19 UNL     1      20.407  -0.681  53.738  1.00  0.00     0.007 A 
HETATM   30  C20 UNL     1      21.361  -1.042  54.675  1.00  0.00     0.001 A 
HETATM   31  C21 UNL     1      22.699  -0.850  54.368  1.00  0.00     0.000 A 
HETATM   32  C22 UNL     1      22.991  -0.306  53.136  1.00  0.00     0.001 A 
HETATM   33  C23 UNL     1      22.044   0.055  52.202  1.00  0.00     0.007 A 
ENDBRANCH  27  28
ENDBRANCH  26  27
ENDBRANCH  21  26
BRANCH  22  34
HETATM   34  O1  UNL     1      16.857   2.925  50.662  1.00  0.00    -0.345 OA
HETATM   35  H31 UNL     1      16.042   3.488  50.789  1.00  0.00     0.219 HD
ENDBRANCH  22  34
ENDBRANCH   1  19
TORSDOF 8
ENDMDL
MODEL 3
REMARK VINA RESULT:      -8.4      2.903      6.168
REMARK  8 active torsions:
REMARK  status: ('A' for Active; 'I' for Inactive)
REMARK    1  A    between atoms: C4_4  and  N1_5 
REMARK    2  A    between atoms: C12_14  and  C13_15 
REMARK    3  A    between atoms: C13_15  and  N3_16 
REMARK    4  A    between atoms: C13_15  and  C14_17 
REMARK    5  A    between atoms: N4_19  and  C16_20 
REMARK    6  A    between atoms: C16_20  and  C17_21 
REMARK    7  A    between atoms: C17_21  and  C18_22 
REMARK    8  A    between atoms: C24_28  and  O1_29 
ROOT
HETATM    1  C13 UNL     1      25.648   3.296  50.976  1.00  0.00     0.302 C 
ENDROOT
BRANCH   1   2
HETATM    2  C12 UNL     1      24.196   3.254  50.798  1.00  0.00    -0.014 A 
HETATM    3  C2  UNL     1      23.246   3.785  51.639  1.00  0.00    -0.051 A 
HETATM    4  C1  UNL     1      23.715   4.486  52.872  1.00  0.00     0.049 C 
HETATM    5  C3  UNL     1      21.887   3.709  51.413  1.00  0.00     0.036 A 
HETATM    6  C4  UNL     1      21.377   3.093  50.318  1.00  0.00     0.030 A 
HETATM    7  C10 UNL     1      22.277   2.539  49.432  1.00  0.00     0.030 A 
HETATM    8  C11 UNL     1      23.649   2.622  49.674  1.00  0.00     0.012 A 
BRANCH   6   9
HETATM    9  N1  UNL     1      19.997   2.971  50.017  1.00  0.00    -0.378 N 
HETATM   10  C5  UNL     1      19.257   1.735  49.800  1.00  0.00     0.153 C 
HETATM   11  C6  UNL     1      18.325   1.556  50.957  1.00  0.00     0.291 C 
HETATM   12  N2  UNL     1      17.417   2.674  50.987  1.00  0.00     0.087 N 
HETATM   13  C7  UNL     1      16.302   2.555  50.090  1.00  0.00     0.310 C 
HETATM   14  C8  UNL     1      18.052   3.952  50.968  1.00  0.00     0.291 C 
HETATM   15  C9  UNL     1      19.101   4.111  49.883  1.00  0.00     0.153 C 
ENDBRANCH   6   9
ENDBRANCH   1   2
BRANCH   1  16
HETATM   16  N3  UNL     1      26.292   3.242  49.659  1.00  0.00     0.093 N 
HETATM   17  H19 UNL     1      25.780   2.615  49.020  1.00  0.00     0.314 HD
HETATM   18  H20 UNL     1      27.282   2.981  49.699  1.00  0.00     0.314 HD
ENDBRANCH   1  16
BRANCH   1  19
HETATM   19  C14 UNL     1      26.211   2.286  51.879  1.00  0.00     0.062 A 
HETATM   20  C15 UNL     1      25.737   1.110  52.320  1.00  0.00     0.120 A 
HETATM   21  N4  UNL     1      26.418   0.234  53.209  1.00  0.00    -0.335 N 
HETATM   22  C24 UNL     1      27.692   0.623  53.667  1.00  0.00     0.157 A 
HETATM   23  C25 UNL     1      28.221   1.779  53.267  1.00  0.00     0.144 A 
HETATM   24  N5  UNL     1      27.511   2.652  52.365  1.00  0.00    -0.362 N 
HETATM   25  H33 UNL     1      28.051   3.519  52.142  1.00  0.00     0.165 HD
BRANCH  21  26
HETATM   26  C16 UNL     1      25.726  -0.973  53.551  1.00  0.00     0.135 C 
BRANCH  26  27
HETATM   27  C17 UNL     1      24.817  -0.865  54.730  1.00  0.00     0.058 C 
BRANCH  27  28
HETATM   28  C18 UNL     1      23.415  -0.774  54.242  1.00  0.00    -0.057 A 
HETATM   29  C19 UNL     1      23.070  -0.094  53.088  1.00  0.00     0.007 A 
HETATM   30  C20 UNL     1      21.777   0.010  52.603  1.00  0.00     0.001 A 
HETATM   31  C21 UNL     1      20.752  -0.600  53.310  1.00  0.00     0.000 A 
HETATM   32  C22 UNL     1      21.096  -1.277  54.460  1.00  0.00     0.001 A 
HETATM   33  C23 UNL     1      22.382  -1.383  54.945  1.00  0.00     0.007 A 
ENDBRANCH  27  28
ENDBRANCH  26  27
ENDBRANCH  21  26
BRANCH  22  34
HETATM   34  O1  UNL     1      28.353  -0.245  54.539  1.00  0.00    -0.345 OA
HETATM   35  H31 UNL     1      27.942  -1.082  54.897  1.00  0.00     0.219 HD
ENDBRANCH  22  34
ENDBRANCH   1  19
TORSDOF 8
ENDMDL
MODEL 4
REMARK VINA RESULT:      -8.4      2.169      2.458
REMARK  8 active torsions:
REMARK  status: ('A' for Active; 'I' for Inactive)
REMARK    1  A    between atoms: C4_4  and  N1_5 
REMARK    2  A    between atoms: C12_14  and  C13_15 
REMARK    3  A    between atoms: C13_15  and  N3_16 
REMARK    4  A    between atoms: C13_15  and  C14_17 
REMARK    5  A    between atoms: N4_19  and  C16_20 
REMARK    6  A    between atoms: C16_20  and  C17_21 
REMARK    7  A    between atoms: C17_21  and  C18_22 
REMARK    8  A    between atoms: C24_28  and  O1_29 
ROOT
HETATM    1  C13 UNL     1      20.493   0.561  51.484  1.00  0.00     0.302 C 
ENDROOT
BRANCH   1   2
HETATM    2  C12 UNL     1      20.887   1.894  51.027  1.00  0.00    -0.014 A 
HETATM    3  C2  UNL     1      21.387   2.228  49.789  1.00  0.00    -0.051 A 
HETATM    4  C1  UNL     1      21.555   1.136  48.784  1.00  0.00     0.049 C 
HETATM    5  C3  UNL     1      21.741   3.510  49.421  1.00  0.00     0.036 A 
HETATM    6  C4  UNL     1      21.617   4.559  50.271  1.00  0.00     0.030 A 
HETATM    7  C10 UNL     1      21.121   4.293  51.530  1.00  0.00     0.030 A 
HETATM    8  C11 UNL     1      20.767   2.992  51.889  1.00  0.00     0.012 A 
BRANCH   6   9
HETATM    9  N1  UNL     1      21.961   5.900  49.969  1.00  0.00    -0.378 N 
HETATM   10  C5  UNL     1      22.686   6.372  48.797  1.00  0.00     0.153 C 
HETATM   11  C6  UNL     1      21.724   7.142  47.948  1.00  0.00     0.291 C 
HETATM   12  N2  UNL     1      21.241   8.264  48.711  1.00  0.00     0.087 N 
HETATM   13  C7  UNL     1      22.121   9.399  48.717  1.00  0.00     0.310 C 
HETATM   14  C8  UNL     1      20.713   7.923  49.993  1.00  0.00     0.291 C 
HETATM   15  C9  UNL     1      21.616   7.029  50.822  1.00  0.00     0.153 C 
ENDBRANCH   6   9
ENDBRANCH   1   2
BRANCH   1  16
HETATM   16  N3  UNL     1      19.075   0.584  51.860  1.00  0.00     0.093 N 
HETATM   17  H19 UNL     1      18.956   0.861  52.847  1.00  0.00     0.314 HD
HETATM   18  H20 UNL     1      18.589  -0.299  51.674  1.00  0.00     0.314 HD
ENDBRANCH   1  16
BRANCH   1  19
HETATM   19  C14 UNL     1      21.312  -0.014  52.557  1.00  0.00     0.062 A 
HETATM   20  C15 UNL     1      22.636   0.003  52.786  1.00  0.00     0.120 A 
HETATM   21  N4  UNL     1      23.284  -0.615  53.891  1.00  0.00    -0.335 N 
HETATM   22  C24 UNL     1      22.481  -1.301  54.823  1.00  0.00     0.157 A 
HETATM   23  C25 UNL     1      21.160  -1.357  54.654  1.00  0.00     0.144 A 
HETATM   24  N5  UNL     1      20.525  -0.722  53.526  1.00  0.00    -0.362 N 
HETATM   25  H33 UNL     1      19.487  -0.851  53.528  1.00  0.00     0.165 HD
BRANCH  21  26
HETATM   26  C16 UNL     1      24.708  -0.471  53.941  1.00  0.00     0.135 C 
BRANCH  26  27
HETATM   27  C17 UNL     1      25.263   0.601  53.063  1.00  0.00     0.058 C 
BRANCH  27  28
HETATM   28  C18 UNL     1      26.644   0.919  53.517  1.00  0.00    -0.057 A 
HETATM   29  C19 UNL     1      27.365   0.083  54.350  1.00  0.00     0.007 A 
HETATM   30  C20 UNL     1      28.650   0.346  54.792  1.00  0.00     0.001 A 
HETATM   31  C21 UNL     1      29.267   1.518  54.381  1.00  0.00     0.000 A 
HETATM   32  C22 UNL     1      28.548   2.351  53.551  1.00  0.00     0.001 A 
HETATM   33  C23 UNL     1      27.268   2.091  53.109  1.00  0.00     0.007 A 
ENDBRANCH  27  28
ENDBRANCH  26  27
ENDBRANCH  21  26
BRANCH  22  34
HETATM   34  O1  UNL     1      23.127  -1.904  55.904  1.00  0.00    -0.345 OA
HETATM   35  H31 UNL     1      23.115  -1.529  56.831  1.00  0.00     0.219 HD
ENDBRANCH  22  34
ENDBRANCH   1  19
TORSDOF 8
ENDMDL
MODEL 5
REMARK VINA RESULT:      -8.3      5.677      9.575
REMARK  8 active torsions:
REMARK  status: ('A' for Active; 'I' for Inactive)
REMARK    1  A    between atoms: C4_4  and  N1_5 
REMARK    2  A    between atoms: C12_14  and  C13_15 
REMARK    3  A    between atoms: C13_15  and  N3_16 
REMARK    4  A    between atoms: C13_15  and  C14_17 
REMARK    5  A    between atoms: N4_19  and  C16_20 
REMARK    6  A    between atoms: C16_20  and  C17_21 
REMARK    7  A    between atoms: C17_21  and  C18_22 
REMARK    8  A    between atoms: C24_28  and  O1_29 
ROOT
HETATM    1  C13 UNL     1      28.327   7.936  47.880  1.00  0.00     0.302 C 
ENDROOT
BRANCH   1   2
HETATM    2  C12 UNL     1      27.573   6.849  48.504  1.00  0.00    -0.014 A 
HETATM    3  C2  UNL     1      26.427   6.965  49.258  1.00  0.00    -0.051 A 
HETATM    4  C1  UNL     1      25.870   8.333  49.478  1.00  0.00     0.049 C 
HETATM    5  C3  UNL     1      25.763   5.894  49.820  1.00  0.00     0.036 A 
HETATM    6  C4  UNL     1      26.199   4.620  49.667  1.00  0.00     0.030 A 
HETATM    7  C10 UNL     1      27.344   4.433  48.921  1.00  0.00     0.030 A 
HETATM    8  C11 UNL     1      28.006   5.525  48.358  1.00  0.00     0.012 A 
BRANCH   6   9
HETATM    9  N1  UNL     1      25.575   3.471  50.215  1.00  0.00    -0.378 N 
HETATM   10  C5  UNL     1      26.233   2.361  50.891  1.00  0.00     0.153 C 
HETATM   11  C6  UNL     1      25.851   2.422  52.337  1.00  0.00     0.291 C 
HETATM   12  N2  UNL     1      24.421   2.281  52.437  1.00  0.00     0.087 N 
HETATM   13  C7  UNL     1      23.954   0.924  52.387  1.00  0.00     0.310 C 
HETATM   14  C8  UNL     1      23.680   3.188  51.621  1.00  0.00     0.291 C 
HETATM   15  C9  UNL     1      24.138   3.242  50.175  1.00  0.00     0.153 C 
ENDBRANCH   6   9
ENDBRANCH   1   2
BRANCH   1  16
HETATM   16  N3  UNL     1      27.906   8.068  46.481  1.00  0.00     0.093 N 
HETATM   17  H19 UNL     1      26.945   8.436  46.415  1.00  0.00     0.314 HD
HETATM   18  H20 UNL     1      27.995   7.199  45.944  1.00  0.00     0.314 HD
ENDBRANCH   1  16
BRANCH   1  19
HETATM   19  C14 UNL     1      29.788   7.842  47.984  1.00  0.00     0.062 A 
HETATM   20  C15 UNL     1      30.738   7.571  47.074  1.00  0.00     0.120 A 
HETATM   21  N4  UNL     1      32.134   7.516  47.340  1.00  0.00    -0.335 N 
HETATM   22  C24 UNL     1      32.562   7.765  48.659  1.00  0.00     0.157 A 
HETATM   23  C25 UNL     1      31.669   8.040  49.610  1.00  0.00     0.144 A 
HETATM   24  N5  UNL     1      30.258   8.090  49.317  1.00  0.00    -0.362 N 
HETATM   25  H33 UNL     1      29.684   8.317  50.160  1.00  0.00     0.165 HD
BRANCH  21  26
HETATM   26  C16 UNL     1      32.972   7.209  46.220  1.00  0.00     0.135 C 
BRANCH  26  27
HETATM   27  C17 UNL     1      32.605   5.964  45.482  1.00  0.00     0.058 C 
BRANCH  27  28
HETATM   28  C18 UNL     1      33.083   4.792  46.264  1.00  0.00    -0.057 A 
HETATM   29  C19 UNL     1      32.326   3.645  46.425  1.00  0.00     0.007 A 
HETATM   30  C20 UNL     1      32.738   2.536  47.144  1.00  0.00     0.001 A 
HETATM   31  C21 UNL     1      33.986   2.562  47.747  1.00  0.00     0.000 A 
HETATM   32  C22 UNL     1      34.741   3.704  47.586  1.00  0.00     0.001 A 
HETATM   33  C23 UNL     1      34.333   4.810  46.870  1.00  0.00     0.007 A 
ENDBRANCH  27  28
ENDBRANCH  26  27
ENDBRANCH  21  26
BRANCH  22  34
HETATM   34  O1  UNL     1      33.934   7.709  48.909  1.00  0.00    -0.345 OA
HETATM   35  H31 UNL     1      34.335   7.188  49.663  1.00  0.00     0.219 HD
ENDBRANCH  22  34
ENDBRANCH   1  19
TORSDOF 8
ENDMDL
MODEL 6
REMARK VINA RESULT:      -8.3      3.460      5.693
REMARK  8 active torsions:
REMARK  status: ('A' for Active; 'I' for Inactive)
REMARK    1  A    between atoms: C4_4  and  N1_5 
REMARK    2  A    between atoms: C12_14  and  C13_15 
REMARK    3  A    between atoms: C13_15  and  N3_16 
REMARK    4  A    between atoms: C13_15  and  C14_17 
REMARK    5  A    between atoms: N4_19  and  C16_20 
REMARK    6  A    between atoms: C16_20  and  C17_21 
REMARK    7  A    between atoms: C17_21  and  C18_22 
REMARK    8  A    between atoms: C24_28  and  O1_29 
ROOT
HETATM    1  C13 UNL     1      24.483   5.979  49.916  1.00  0.00     0.302 C 
ENDROOT
BRANCH   1   2
HETATM    2  C12 UNL     1      25.814   6.119  49.326  1.00  0.00    -0.014 A 
HETATM    3  C2  UNL     1      26.413   7.284  48.905  1.00  0.00    -0.051 A 
HETATM    4  C1  UNL     1      25.648   8.558  49.056  1.00  0.00     0.049 C 
HETATM    5  C3  UNL     1      27.676   7.346  48.354  1.00  0.00     0.036 A 
HETATM    6  C4  UNL     1      28.438   6.238  48.183  1.00  0.00     0.030 A 
HETATM    7  C10 UNL     1      27.897   5.035  48.585  1.00  0.00     0.030 A 
HETATM    8  C11 UNL     1      26.618   4.986  49.140  1.00  0.00     0.012 A 
BRANCH   6   9
HETATM    9  N1  UNL     1      29.740   6.220  47.623  1.00  0.00    -0.378 N 
HETATM   10  C5  UNL     1      30.371   7.280  46.848  1.00  0.00     0.153 C 
HETATM   11  C6  UNL     1      31.474   7.855  47.680  1.00  0.00     0.291 C 
HETATM   12  N2  UNL     1      32.428   6.812  47.954  1.00  0.00     0.087 N 
HETATM   13  C7  UNL     1      33.370   6.578  46.896  1.00  0.00     0.310 C 
HETATM   14  C8  UNL     1      31.863   5.625  48.511  1.00  0.00     0.291 C 
HETATM   15  C9  UNL     1      30.657   5.097  47.758  1.00  0.00     0.153 C 
ENDBRANCH   6   9
ENDBRANCH   1   2
BRANCH   1  16
HETATM   16  N3  UNL     1      24.568   6.249  51.355  1.00  0.00     0.093 N 
HETATM   17  H19 UNL     1      25.534   6.479  51.634  1.00  0.00     0.314 HD
HETATM   18  H20 UNL     1      24.198   5.489  51.936  1.00  0.00     0.314 HD
ENDBRANCH   1  16
BRANCH   1  19
HETATM   19  C14 UNL     1      23.800   4.706  49.659  1.00  0.00     0.062 A 
HETATM   20  C15 UNL     1      23.612   3.616  50.422  1.00  0.00     0.120 A 
HETATM   21  N4  UNL     1      22.917   2.444  50.017  1.00  0.00    -0.335 N 
HETATM   22  C24 UNL     1      22.378   2.416  48.716  1.00  0.00     0.157 A 
HETATM   23  C25 UNL     1      22.529   3.464  47.908  1.00  0.00     0.144 A 
HETATM   24  N5  UNL     1      23.238   4.644  48.340  1.00  0.00    -0.362 N 
HETATM   25  H33 UNL     1      23.274   5.381  47.599  1.00  0.00     0.165 HD
BRANCH  21  26
HETATM   26  C16 UNL     1      22.835   1.398  50.992  1.00  0.00     0.135 C 
BRANCH  26  27
HETATM   27  C17 UNL     1      23.391   1.744  52.334  1.00  0.00     0.058 C 
BRANCH  27  28
HETATM   28  C18 UNL     1      24.540   0.843  52.618  1.00  0.00    -0.057 A 
HETATM   29  C19 UNL     1      25.732   0.912  51.920  1.00  0.00     0.007 A 
HETATM   30  C20 UNL     1      26.821   0.092  52.157  1.00  0.00     0.001 A 
HETATM   31  C21 UNL     1      26.726  -0.865  53.156  1.00  0.00     0.000 A 
HETATM   32  C22 UNL     1      25.539  -0.934  53.852  1.00  0.00     0.001 A 
HETATM   33  C23 UNL     1      24.453  -0.119  53.618  1.00  0.00     0.007 A 
ENDBRANCH  27  28
ENDBRANCH  26  27
ENDBRANCH  21  26
BRANCH  22  34
HETATM   34  O1  UNL     1      21.697   1.260  48.329  1.00  0.00    -0.345 OA
HETATM   35  H31 UNL     1      22.131   0.503  47.843  1.00  0.00     0.219 HD
ENDBRANCH  22  34
ENDBRANCH   1  19
TORSDOF 8
ENDMDL
MODEL 7
REMARK VINA RESULT:      -8.2      3.032      6.949
REMARK  8 active torsions:
REMARK  status: ('A' for Active; 'I' for Inactive)
REMARK    1  A    between atoms: C4_4  and  N1_5 
REMARK    2  A    between atoms: C12_14  and  C13_15 
REMARK    3  A    between atoms: C13_15  and  N3_16 
REMARK    4  A    between atoms: C13_15  and  C14_17 
REMARK    5  A    between atoms: N4_19  and  C16_20 
REMARK    6  A    between atoms: C16_20  and  C17_21 
REMARK    7  A    between atoms: C17_21  and  C18_22 
REMARK    8  A    between atoms: C24_28  and  O1_29 
ROOT
HETATM    1  C13 UNL     1      20.201   1.269  52.303  1.00  0.00     0.302 C 
ENDROOT
BRANCH   1   2
HETATM    2  C12 UNL     1      21.611   0.960  52.540  1.00  0.00    -0.014 A 
HETATM    3  C2  UNL     1      22.141   0.304  53.627  1.00  0.00    -0.051 A 
HETATM    4  C1  UNL     1      21.202  -0.157  54.693  1.00  0.00     0.049 C 
HETATM    5  C3  UNL     1      23.487   0.044  53.791  1.00  0.00     0.036 A 
HETATM    6  C4  UNL     1      24.406   0.425  52.870  1.00  0.00     0.030 A 
HETATM    7  C10 UNL     1      23.941   1.089  51.755  1.00  0.00     0.030 A 
HETATM    8  C11 UNL     1      22.578   1.345  51.602  1.00  0.00     0.012 A 
BRANCH   6   9
HETATM    9  N1  UNL     1      25.802   0.199  52.968  1.00  0.00    -0.378 N 
HETATM   10  C5  UNL     1      26.837   0.746  52.100  1.00  0.00     0.153 C 
HETATM   11  C6  UNL     1      27.628   1.729  52.903  1.00  0.00     0.291 C 
HETATM   12  N2  UNL     1      28.232   1.033  54.010  1.00  0.00     0.087 N 
HETATM   13  C7  UNL     1      29.449   0.345  53.683  1.00  0.00     0.310 C 
HETATM   14  C8  UNL     1      27.318   0.270  54.797  1.00  0.00     0.291 C 
HETATM   15  C9  UNL     1      26.410  -0.640  53.991  1.00  0.00     0.153 C 
ENDBRANCH   6   9
ENDBRANCH   1   2
BRANCH   1  16
HETATM   16  N3  UNL     1      19.570   0.130  51.627  1.00  0.00     0.093 N 
HETATM   17  H19 UNL     1      20.055  -0.093  50.744  1.00  0.00     0.314 HD
HETATM   18  H20 UNL     1      18.566   0.258  51.462  1.00  0.00     0.314 HD
ENDBRANCH   1  16
BRANCH   1  19
HETATM   19  C14 UNL     1      19.932   2.521  51.587  1.00  0.00     0.062 A 
HETATM   20  C15 UNL     1      20.747   3.415  51.002  1.00  0.00     0.120 A 
HETATM   21  N4  UNL     1      20.321   4.599  50.339  1.00  0.00    -0.335 N 
HETATM   22  C24 UNL     1      18.938   4.861  50.286  1.00  0.00     0.157 A 
HETATM   23  C25 UNL     1      18.075   4.014  50.847  1.00  0.00     0.144 A 
HETATM   24  N5  UNL     1      18.530   2.819  51.515  1.00  0.00    -0.362 N 
HETATM   25  H33 UNL     1      17.741   2.255  51.904  1.00  0.00     0.165 HD
BRANCH  21  26
HETATM   26  C16 UNL     1      21.361   5.413  49.784  1.00  0.00     0.135 C 
BRANCH  26  27
HETATM   27  C17 UNL     1      22.029   4.844  48.577  1.00  0.00     0.058 C 
BRANCH  27  28
HETATM   28  C18 UNL     1      23.496   4.805  48.821  1.00  0.00    -0.057 A 
HETATM   29  C19 UNL     1      24.307   5.915  48.668  1.00  0.00     0.007 A 
HETATM   30  C20 UNL     1      25.674   5.915  48.886  1.00  0.00     0.001 A 
HETATM   31  C21 UNL     1      26.283   4.735  49.284  1.00  0.00     0.000 A 
HETATM   32  C22 UNL     1      25.475   3.629  49.437  1.00  0.00     0.001 A 
HETATM   33  C23 UNL     1      24.114   3.625  49.220  1.00  0.00     0.007 A 
ENDBRANCH  27  28
ENDBRANCH  26  27
ENDBRANCH  21  26
BRANCH  22  34
HETATM   34  O1  UNL     1      18.530   6.026  49.632  1.00  0.00    -0.345 OA
HETATM   35  H31 UNL     1      17.858   6.662  50.010  1.00  0.00     0.219 HD
ENDBRANCH  22  34
ENDBRANCH   1  19
TORSDOF 8
ENDMDL
MODEL 8
REMARK VINA RESULT:      -8.2      3.110      7.037
REMARK  8 active torsions:
REMARK  status: ('A' for Active; 'I' for Inactive)
REMARK    1  A    between atoms: C4_4  and  N1_5 
REMARK    2  A    between atoms: C12_14  and  C13_15 
REMARK    3  A    between atoms: C13_15  and  N3_16 
REMARK    4  A    between atoms: C13_15  and  C14_17 
REMARK    5  A    between atoms: N4_19  and  C16_20 
REMARK    6  A    between atoms: C16_20  and  C17_21 
REMARK    7  A    between atoms: C17_21  and  C18_22 
REMARK    8  A    between atoms: C24_28  and  O1_29 
ROOT
HETATM    1  C13 UNL     1      20.861   1.917  52.889  1.00  0.00     0.302 C 
ENDROOT
BRANCH   1   2
HETATM    2  C12 UNL     1      22.310   1.719  52.862  1.00  0.00    -0.014 A 
HETATM    3  C2  UNL     1      23.273   2.691  52.720  1.00  0.00    -0.051 A 
HETATM    4  C1  UNL     1      22.824   4.108  52.581  1.00  0.00     0.049 C 
HETATM    5  C3  UNL     1      24.629   2.435  52.701  1.00  0.00     0.036 A 
HETATM    6  C4  UNL     1      25.123   1.178  52.824  1.00  0.00     0.030 A 
HETATM    7  C10 UNL     1      24.209   0.155  52.969  1.00  0.00     0.030 A 
HETATM    8  C11 UNL     1      22.840   0.429  52.987  1.00  0.00     0.012 A 
BRANCH   6   9
HETATM    9  N1  UNL     1      26.498   0.835  52.811  1.00  0.00    -0.378 N 
HETATM   10  C5  UNL     1      27.572   1.510  53.526  1.00  0.00     0.153 C 
HETATM   11  C6  UNL     1      28.050   0.587  54.602  1.00  0.00     0.291 C 
HETATM   12  N2  UNL     1      28.550  -0.613  53.984  1.00  0.00     0.087 N 
HETATM   13  C7  UNL     1      29.897  -0.511  53.495  1.00  0.00     0.310 C 
HETATM   14  C8  UNL     1      27.641  -1.232  53.074  1.00  0.00     0.291 C 
HETATM   15  C9  UNL     1      27.039  -0.285  52.053  1.00  0.00     0.153 C 
ENDBRANCH   6   9
ENDBRANCH   1   2
BRANCH   1  16
HETATM   16  N3  UNL     1      20.252   0.877  53.726  1.00  0.00     0.093 N 
HETATM   17  H19 UNL     1      19.525   1.272  54.341  1.00  0.00     0.314 HD
HETATM   18  H20 UNL     1      20.934   0.343  54.274  1.00  0.00     0.314 HD
ENDBRANCH   1  16
BRANCH   1  19
HETATM   19  C14 UNL     1      20.200   1.994  51.581  1.00  0.00     0.062 A 
HETATM   20  C15 UNL     1      20.676   2.215  50.345  1.00  0.00     0.120 A 
HETATM   21  N4  UNL     1      19.890   2.261  49.161  1.00  0.00    -0.335 N 
HETATM   22  C24 UNL     1      18.502   2.058  49.286  1.00  0.00     0.157 A 
HETATM   23  C25 UNL     1      17.965   1.834  50.485  1.00  0.00     0.144 A 
HETATM   24  N5  UNL     1      18.782   1.792  51.673  1.00  0.00    -0.362 N 
HETATM   25  H33 UNL     1      18.222   1.607  52.536  1.00  0.00     0.165 HD
BRANCH  21  26
HETATM   26  C16 UNL     1      20.605   2.511  47.945  1.00  0.00     0.135 C 
BRANCH  26  27
HETATM   27  C17 UNL     1      22.042   2.104  47.965  1.00  0.00     0.058 C 
BRANCH  27  28
HETATM   28  C18 UNL     1      22.869   3.299  48.279  1.00  0.00    -0.057 A 
HETATM   29  C19 UNL     1      22.591   4.554  47.767  1.00  0.00     0.007 A 
HETATM   30  C20 UNL     1      23.338   5.687  48.037  1.00  0.00     0.001 A 
HETATM   31  C21 UNL     1      24.439   5.573  48.873  1.00  0.00     0.000 A 
HETATM   32  C22 UNL     1      24.716   4.323  49.383  1.00  0.00     0.001 A 
HETATM   33  C23 UNL     1      23.974   3.193  49.115  1.00  0.00     0.007 A 
ENDBRANCH  27  28
ENDBRANCH  26  27
ENDBRANCH  21  26
BRANCH  22  34
HETATM   34  O1  UNL     1      17.739   2.104  48.117  1.00  0.00    -0.345 OA
HETATM   35  H31 UNL     1      16.813   1.734  48.050  1.00  0.00     0.219 HD
ENDBRANCH  22  34
ENDBRANCH   1  19
TORSDOF 8
ENDMDL
MODEL 9
REMARK VINA RESULT:      -8.0      1.841      2.924
REMARK  8 active torsions:
REMARK  status: ('A' for Active; 'I' for Inactive)
REMARK    1  A    between atoms: C4_4  and  N1_5 
REMARK    2  A    between atoms: C12_14  and  C13_15 
REMARK    3  A    between atoms: C13_15  and  N3_16 
REMARK    4  A    between atoms: C13_15  and  C14_17 
REMARK    5  A    between atoms: N4_19  and  C16_20 
REMARK    6  A    between atoms: C16_20  and  C17_21 
REMARK    7  A    between atoms: C17_21  and  C18_22 
REMARK    8  A    between atoms: C24_28  and  O1_29 
ROOT
HETATM    1  C13 UNL     1      23.634   2.827  49.054  1.00  0.00     0.302 C 
ENDROOT
BRANCH   1   2
HETATM    2  C12 UNL     1      24.262   4.147  49.101  1.00  0.00    -0.014 A 
HETATM    3  C2  UNL     1      25.595   4.420  49.306  1.00  0.00    -0.051 A 
HETATM    4  C1  UNL     1      26.524   3.268  49.503  1.00  0.00     0.049 C 
HETATM    5  C3  UNL     1      26.124   5.694  49.340  1.00  0.00     0.036 A 
HETATM    6  C4  UNL     1      25.352   6.795  49.168  1.00  0.00     0.030 A 
HETATM    7  C10 UNL     1      24.004   6.591  48.957  1.00  0.00     0.030 A 
HETATM    8  C11 UNL     1      23.482   5.297  48.925  1.00  0.00     0.012 A 
BRANCH   6   9
HETATM    9  N1  UNL     1      25.819   8.133  49.192  1.00  0.00    -0.378 N 
HETATM   10  C5  UNL     1      26.983   8.638  49.908  1.00  0.00     0.153 C 
HETATM   11  C6  UNL     1      28.013   9.013  48.890  1.00  0.00     0.291 C 
HETATM   12  N2  UNL     1      27.467  10.048  48.050  1.00  0.00     0.087 N 
HETATM   13  C7  UNL     1      27.555  11.369  48.604  1.00  0.00     0.310 C 
HETATM   14  C8  UNL     1      26.197   9.735  47.477  1.00  0.00     0.291 C 
HETATM   15  C9  UNL     1      25.174   9.222  48.473  1.00  0.00     0.153 C 
ENDBRANCH   6   9
ENDBRANCH   1   2
BRANCH   1  16
HETATM   16  N3  UNL     1      22.519   2.862  48.101  1.00  0.00     0.093 N 
HETATM   17  H19 UNL     1      22.374   1.939  47.663  1.00  0.00     0.314 HD
HETATM   18  H20 UNL     1      22.617   3.588  47.384  1.00  0.00     0.314 HD
ENDBRANCH   1  16
BRANCH   1  19
HETATM   19  C14 UNL     1      23.206   2.275  50.344  1.00  0.00     0.062 A 
HETATM   20  C15 UNL     1      23.897   1.779  51.384  1.00  0.00     0.120 A 
HETATM   21  N4  UNL     1      23.323   1.274  52.583  1.00  0.00    -0.335 N 
HETATM   22  C24 UNL     1      21.919   1.294  52.697  1.00  0.00     0.157 A 
HETATM   23  C25 UNL     1      21.174   1.773  51.702  1.00  0.00     0.144 A 
HETATM   24  N5  UNL     1      21.779   2.280  50.494  1.00  0.00    -0.362 N 
HETATM   25  H33 UNL     1      21.070   2.621  49.806  1.00  0.00     0.165 HD
BRANCH  21  26
HETATM   26  C16 UNL     1      24.248   0.792  53.565  1.00  0.00     0.135 C 
BRANCH  26  27
HETATM   27  C17 UNL     1      24.798  -0.569  53.296  1.00  0.00     0.058 C 
BRANCH  27  28
HETATM   28  C18 UNL     1      26.261  -0.551  53.563  1.00  0.00    -0.057 A 
HETATM   29  C19 UNL     1      26.829   0.236  54.549  1.00  0.00     0.007 A 
HETATM   30  C20 UNL     1      28.185   0.278  54.826  1.00  0.00     0.001 A 
HETATM   31  C21 UNL     1      29.041  -0.513  54.075  1.00  0.00     0.000 A 
HETATM   32  C22 UNL     1      28.475  -1.296  53.092  1.00  0.00     0.001 A 
HETATM   33  C23 UNL     1      27.126  -1.340  52.814  1.00  0.00     0.007 A 
ENDBRANCH  27  28
ENDBRANCH  26  27
ENDBRANCH  21  26
BRANCH  22  34
HETATM   34  O1  UNL     1      21.365   0.796  53.879  1.00  0.00    -0.345 OA
HETATM   35  H31 UNL     1      20.383   0.672  54.015  1.00  0.00     0.219 HD
ENDBRANCH  22  34
ENDBRANCH   1  19
TORSDOF 8
ENDMDL
