MODEL 1
REMARK VINA RESULT:      -7.0      0.000      0.000
REMARK  7 active torsions:
REMARK  status: ('A' for Active; 'I' for Inactive)
REMARK    1  A    between atoms: N1_2  and  C3_4 
REMARK    2  A    between atoms: C3_4  and  C4_5 
REMARK    3  A    between atoms: C5_6  and  C6_7 
REMARK       I    between atoms: C6_7  and  N2_9 
REMARK    4  A    between atoms: C13_19  and  N5_20 
REMARK    5  A    between atoms: N5_20  and  C14_21 
REMARK    6  A    between atoms: C14_21  and  C15_22 
REMARK    7  A    between atoms: C15_22  and  O2_23 
ROOT
HETATM    1  C6  UNL     1      20.012   3.399  51.394  1.00  0.00     0.243 C 
HETATM    2  O1  UNL     1      18.893   3.624  51.963  1.00  0.00    -0.268 OA
HETATM    3  N2  UNL     1      20.719   2.172  51.250  1.00  0.00    -0.344 N 
HETATM    4  C7  UNL     1      21.949   1.800  50.649  1.00  0.00     0.131 C 
HETATM    5  C8  UNL     1      23.038   1.317  51.530  1.00  0.00     0.060 C 
HETATM    6  C9  UNL     1      22.571   0.509  52.654  1.00  0.00    -0.025 A 
HETATM    7  C10 UNL     1      21.225   0.389  52.682  1.00  0.00     0.010 A 
HETATM    8  S1  UNL     1      20.868  -0.622  54.107  1.00  0.00    -0.072 SA
HETATM    9  C11 UNL     1      22.591  -0.818  54.577  1.00  0.00     0.114 A 
HETATM   10  N3  UNL     1      23.110  -1.501  55.625  1.00  0.00    -0.234 NA
HETATM   11  C12 UNL     1      24.434  -1.527  55.808  1.00  0.00     0.236 A 
HETATM   12  N4  UNL     1      25.132  -0.856  54.914  1.00  0.00    -0.224 NA
HETATM   13  C13 UNL     1      24.643  -0.190  53.894  1.00  0.00     0.138 A 
HETATM   14  C16 UNL     1      23.295  -0.113  53.632  1.00  0.00     0.053 A 
HETATM   15  C17 UNL     1      20.188   0.938  51.784  1.00  0.00     0.172 C 
ENDROOT
BRANCH   1  16
HETATM   16  C5  UNL     1      20.619   4.595  50.825  1.00  0.00     0.072 C 
HETATM   17  C4  UNL     1      21.527   5.343  51.425  1.00  0.00     0.008 C 
BRANCH  17  18
HETATM   18  C3  UNL     1      22.180   6.568  50.898  1.00  0.00     0.299 C 
BRANCH  18  19
HETATM   19  N1  UNL     1      23.614   6.582  51.182  1.00  0.00     0.083 N 
HETATM   20  C1  UNL     1      24.221   7.782  50.634  1.00  0.00     0.309 C 
HETATM   21  C2  UNL     1      24.259   5.395  50.663  1.00  0.00     0.309 C 
ENDBRANCH  18  19
ENDBRANCH  17  18
ENDBRANCH   1  16
BRANCH  13  22
HETATM   22  N5  UNL     1      25.659   0.412  53.109  1.00  0.00    -0.372 N 
HETATM   23  H16 UNL     1      26.037   0.064  52.226  1.00  0.00     0.161 HD
BRANCH  22  24
HETATM   24  C14 UNL     1      26.364   1.635  53.391  1.00  0.00     0.147 C 
BRANCH  24  25
HETATM   25  C15 UNL     1      27.815   1.634  53.024  1.00  0.00     0.183 C 
BRANCH  25  26
HETATM   26  O2  UNL     1      28.285   2.821  52.494  1.00  0.00    -0.399 OA
HETATM   27  H21 UNL     1      27.700   3.058  51.720  1.00  0.00     0.209 HD
ENDBRANCH  25  26
ENDBRANCH  24  25
ENDBRANCH  22  24
ENDBRANCH  13  22
TORSDOF 7
ENDMDL
MODEL 2
REMARK VINA RESULT:      -7.0      2.954      4.663
REMARK  7 active torsions:
REMARK  status: ('A' for Active; 'I' for Inactive)
REMARK    1  A    between atoms: N1_2  and  C3_4 
REMARK    2  A    between atoms: C3_4  and  C4_5 
REMARK    3  A    between atoms: C5_6  and  C6_7 
REMARK       I    between atoms: C6_7  and  N2_9 
REMARK    4  A    between atoms: C13_19  and  N5_20 
REMARK    5  A    between atoms: N5_20  and  C14_21 
REMARK    6  A    between atoms: C14_21  and  C15_22 
REMARK    7  A    between atoms: C15_22  and  O2_23 
ROOT
HETATM    1  C6  UNL     1      20.835   1.083  53.228  1.00  0.00     0.243 C 
HETATM    2  O1  UNL     1      20.372   0.549  54.289  1.00  0.00    -0.268 OA
HETATM    3  N2  UNL     1      21.970   0.712  52.453  1.00  0.00    -0.344 N 
HETATM    4  C7  UNL     1      22.576   1.217  51.274  1.00  0.00     0.131 C 
HETATM    5  C8  UNL     1      23.931   1.806  51.383  1.00  0.00     0.060 C 
HETATM    6  C9  UNL     1      24.796   1.117  52.336  1.00  0.00    -0.025 A 
HETATM    7  C10 UNL     1      24.172   0.091  52.957  1.00  0.00     0.010 A 
HETATM    8  S1  UNL     1      25.386  -0.608  54.059  1.00  0.00    -0.072 SA
HETATM    9  C11 UNL     1      26.679   0.553  53.601  1.00  0.00     0.114 A 
HETATM   10  N3  UNL     1      27.949   0.631  54.064  1.00  0.00    -0.234 NA
HETATM   11  C12 UNL     1      28.768   1.578  53.595  1.00  0.00     0.236 A 
HETATM   12  N4  UNL     1      28.235   2.375  52.691  1.00  0.00    -0.224 NA
HETATM   13  C13 UNL     1      27.006   2.311  52.233  1.00  0.00     0.138 A 
HETATM   14  C16 UNL     1      26.100   1.370  52.661  1.00  0.00     0.053 A 
HETATM   15  C17 UNL     1      22.790  -0.418  52.826  1.00  0.00     0.172 C 
ENDROOT
BRANCH   1  16
HETATM   16  C5  UNL     1      20.063   2.235  52.779  1.00  0.00     0.072 C 
HETATM   17  C4  UNL     1      19.099   2.197  51.878  1.00  0.00     0.008 C 
BRANCH  17  18
HETATM   18  C3  UNL     1      18.280   3.331  51.382  1.00  0.00     0.299 C 
BRANCH  18  19
HETATM   19  N1  UNL     1      17.012   2.876  50.814  1.00  0.00     0.083 N 
HETATM   20  C1  UNL     1      16.044   3.958  50.821  1.00  0.00     0.309 C 
HETATM   21  C2  UNL     1      16.505   1.725  51.526  1.00  0.00     0.309 C 
ENDBRANCH  18  19
ENDBRANCH  17  18
ENDBRANCH   1  16
BRANCH  13  22
HETATM   22  N5  UNL     1      26.745   3.305  51.255  1.00  0.00    -0.372 N 
HETATM   23  H16 UNL     1      26.560   4.296  51.424  1.00  0.00     0.161 HD
BRANCH  22  24
HETATM   24  C14 UNL     1      26.691   3.125  49.828  1.00  0.00     0.147 C 
BRANCH  24  25
HETATM   25  C15 UNL     1      27.020   4.341  49.019  1.00  0.00     0.183 C 
BRANCH  25  26
HETATM   26  O2  UNL     1      28.233   4.932  49.321  1.00  0.00    -0.399 OA
HETATM   27  H21 UNL     1      28.915   4.556  48.697  1.00  0.00     0.209 HD
ENDBRANCH  25  26
ENDBRANCH  24  25
ENDBRANCH  22  24
ENDBRANCH  13  22
TORSDOF 7
ENDMDL
MODEL 3
REMARK VINA RESULT:      -6.7      2.984      4.175
REMARK  7 active torsions:
REMARK  status: ('A' for Active; 'I' for Inactive)
REMARK    1  A    between atoms: N1_2  and  C3_4 
REMARK    2  A    between atoms: C3_4  and  C4_5 
REMARK    3  A    between atoms: C5_6  and  C6_7 
REMARK       I    between atoms: C6_7  and  N2_9 
REMARK    4  A    between atoms: C13_19  and  N5_20 
REMARK    5  A    between atoms: N5_20  and  C14_21 
REMARK    6  A    between atoms: C14_21  and  C15_22 
REMARK    7  A    between atoms: C15_22  and  O2_23 
ROOT
HETATM    1  C6  UNL     1      24.543   5.894  50.385  1.00  0.00     0.243 C 
HETATM    2  O1  UNL     1      23.393   6.416  50.562  1.00  0.00    -0.268 OA
HETATM    3  N2  UNL     1      24.887   4.534  50.142  1.00  0.00    -0.344 N 
HETATM    4  C7  UNL     1      26.107   3.841  49.932  1.00  0.00     0.131 C 
HETATM    5  C8  UNL     1      26.537   2.859  50.954  1.00  0.00     0.060 C 
HETATM    6  C9  UNL     1      25.434   2.107  51.547  1.00  0.00    -0.025 A 
HETATM    7  C10 UNL     1      24.230   2.483  51.062  1.00  0.00     0.010 A 
HETATM    8  S1  UNL     1      23.039   1.455  51.901  1.00  0.00    -0.072 SA
HETATM    9  C11 UNL     1      24.268   0.571  52.868  1.00  0.00     0.114 A 
HETATM   10  N3  UNL     1      24.081  -0.414  53.778  1.00  0.00    -0.234 NA
HETATM   11  C12 UNL     1      25.136  -0.950  54.399  1.00  0.00     0.236 A 
HETATM   12  N4  UNL     1      26.302  -0.445  54.050  1.00  0.00    -0.224 NA
HETATM   13  C13 UNL     1      26.498   0.509  53.171  1.00  0.00     0.138 A 
HETATM   14  C16 UNL     1      25.471   1.114  52.487  1.00  0.00     0.053 A 
HETATM   15  C17 UNL     1      23.870   3.510  50.062  1.00  0.00     0.172 C 
ENDROOT
BRANCH   1  16
HETATM   16  C5  UNL     1      25.631   6.861  50.448  1.00  0.00     0.072 C 
HETATM   17  C4  UNL     1      25.722   7.949  49.706  1.00  0.00     0.008 C 
BRANCH  17  18
HETATM   18  C3  UNL     1      26.801   8.968  49.725  1.00  0.00     0.299 C 
BRANCH  18  19
HETATM   19  N1  UNL     1      27.960   8.544  48.941  1.00  0.00     0.083 N 
HETATM   20  C1  UNL     1      29.141   9.280  49.356  1.00  0.00     0.309 C 
HETATM   21  C2  UNL     1      27.720   8.709  47.525  1.00  0.00     0.309 C 
ENDBRANCH  18  19
ENDBRANCH  17  18
ENDBRANCH   1  16
BRANCH  13  22
HETATM   22  N5  UNL     1      27.874   0.818  53.010  1.00  0.00    -0.372 N 
HETATM   23  H16 UNL     1      28.307   1.286  52.212  1.00  0.00     0.161 HD
BRANCH  22  24
HETATM   24  C14 UNL     1      28.940   0.540  53.937  1.00  0.00     0.147 C 
BRANCH  24  25
HETATM   25  C15 UNL     1      29.795  -0.639  53.590  1.00  0.00     0.183 C 
BRANCH  25  26
HETATM   26  O2  UNL     1      29.158  -1.864  53.664  1.00  0.00    -0.399 OA
HETATM   27  H21 UNL     1      29.693  -2.446  54.273  1.00  0.00     0.209 HD
ENDBRANCH  25  26
ENDBRANCH  24  25
ENDBRANCH  22  24
ENDBRANCH  13  22
TORSDOF 7
ENDMDL
MODEL 4
REMARK VINA RESULT:      -6.7      2.860      6.632
REMARK  7 active torsions:
REMARK  status: ('A' for Active; 'I' for Inactive)
REMARK    1  A    between atoms: N1_2  and  C3_4 
REMARK    2  A    between atoms: C3_4  and  C4_5 
REMARK    3  A    between atoms: C5_6  and  C6_7 
REMARK       I    between atoms: C6_7  and  N2_9 
REMARK    4  A    between atoms: C13_19  and  N5_20 
REMARK    5  A    between atoms: N5_20  and  C14_21 
REMARK    6  A    between atoms: C14_21  and  C15_22 
REMARK    7  A    between atoms: C15_22  and  O2_23 
ROOT
HETATM    1  C6  UNL     1      23.678  -0.130  53.182  1.00  0.00     0.243 C 
HETATM    2  O1  UNL     1      22.902  -1.137  53.080  1.00  0.00    -0.268 OA
HETATM    3  N2  UNL     1      23.379   1.255  53.046  1.00  0.00    -0.344 N 
HETATM    4  C7  UNL     1      24.141   2.449  53.136  1.00  0.00     0.131 C 
HETATM    5  C8  UNL     1      24.318   3.257  51.907  1.00  0.00     0.060 C 
HETATM    6  C9  UNL     1      23.142   3.278  51.042  1.00  0.00    -0.025 A 
HETATM    7  C10 UNL     1      22.129   2.523  51.525  1.00  0.00     0.010 A 
HETATM    8  S1  UNL     1      20.808   2.687  50.339  1.00  0.00    -0.072 SA
HETATM    9  C11 UNL     1      21.727   3.782  49.251  1.00  0.00     0.114 A 
HETATM   10  N3  UNL     1      21.332   4.343  48.083  1.00  0.00    -0.234 NA
HETATM   11  C12 UNL     1      22.172   5.137  47.413  1.00  0.00     0.236 A 
HETATM   12  N4  UNL     1      23.351   5.303  47.978  1.00  0.00    -0.224 NA
HETATM   13  C13 UNL     1      23.747   4.767  49.108  1.00  0.00     0.138 A 
HETATM   14  C16 UNL     1      22.948   3.939  49.861  1.00  0.00     0.053 A 
HETATM   15  C17 UNL     1      22.037   1.702  52.750  1.00  0.00     0.172 C 
ENDROOT
BRANCH   1  16
HETATM   16  C5  UNL     1      25.057  -0.493  53.482  1.00  0.00     0.072 C 
HETATM   17  C4  UNL     1      26.071  -0.379  52.644  1.00  0.00     0.008 C 
BRANCH  17  18
HETATM   18  C3  UNL     1      27.491  -0.731  52.890  1.00  0.00     0.299 C 
BRANCH  18  19
HETATM   19  N1  UNL     1      28.277   0.435  53.291  1.00  0.00     0.083 N 
HETATM   20  C1  UNL     1      28.447   0.452  54.733  1.00  0.00     0.309 C 
HETATM   21  C2  UNL     1      27.663   1.660  52.829  1.00  0.00     0.309 C 
ENDBRANCH  18  19
ENDBRANCH  17  18
ENDBRANCH   1  16
BRANCH  13  22
HETATM   22  N5  UNL     1      25.069   5.153  49.452  1.00  0.00    -0.372 N 
HETATM   23  H16 UNL     1      25.922   4.609  49.308  1.00  0.00     0.161 HD
BRANCH  22  24
HETATM   24  C14 UNL     1      25.480   6.386  50.069  1.00  0.00     0.147 C 
BRANCH  24  25
HETATM   25  C15 UNL     1      24.429   7.072  50.885  1.00  0.00     0.183 C 
BRANCH  25  26
HETATM   26  O2  UNL     1      24.471   6.800  52.240  1.00  0.00    -0.399 OA
HETATM   27  H21 UNL     1      23.562   6.982  52.612  1.00  0.00     0.209 HD
ENDBRANCH  25  26
ENDBRANCH  24  25
ENDBRANCH  22  24
ENDBRANCH  13  22
TORSDOF 7
ENDMDL
MODEL 5
REMARK VINA RESULT:      -6.5      3.015      7.465
REMARK  7 active torsions:
REMARK  status: ('A' for Active; 'I' for Inactive)
REMARK    1  A    between atoms: N1_2  and  C3_4 
REMARK    2  A    between atoms: C3_4  and  C4_5 
REMARK    3  A    between atoms: C5_6  and  C6_7 
REMARK       I    between atoms: C6_7  and  N2_9 
REMARK    4  A    between atoms: C13_19  and  N5_20 
REMARK    5  A    between atoms: N5_20  and  C14_21 
REMARK    6  A    between atoms: C14_21  and  C15_22 
REMARK    7  A    between atoms: C15_22  and  O2_23 
ROOT
HETATM    1  C6  UNL     1      22.887   1.939  52.004  1.00  0.00     0.243 C 
HETATM    2  O1  UNL     1      22.134   1.090  51.420  1.00  0.00    -0.268 OA
HETATM    3  N2  UNL     1      22.625   3.299  52.334  1.00  0.00    -0.344 N 
HETATM    4  C7  UNL     1      23.367   4.326  52.972  1.00  0.00     0.131 C 
HETATM    5  C8  UNL     1      23.761   5.505  52.166  1.00  0.00     0.060 C 
HETATM    6  C9  UNL     1      22.753   5.914  51.192  1.00  0.00    -0.025 A 
HETATM    7  C10 UNL     1      21.667   5.109  51.198  1.00  0.00     0.010 A 
HETATM    8  S1  UNL     1      20.575   5.776  49.957  1.00  0.00    -0.072 SA
HETATM    9  C11 UNL     1      21.677   7.120  49.504  1.00  0.00     0.114 A 
HETATM   10  N3  UNL     1      21.495   8.087  48.572  1.00  0.00    -0.234 NA
HETATM   11  C12 UNL     1      22.444   9.008  48.380  1.00  0.00     0.236 A 
HETATM   12  N4  UNL     1      23.507   8.879  49.148  1.00  0.00    -0.224 NA
HETATM   13  C13 UNL     1      23.697   7.949  50.054  1.00  0.00     0.138 A 
HETATM   14  C16 UNL     1      22.773   6.964  50.316  1.00  0.00     0.053 A 
HETATM   15  C17 UNL     1      21.358   3.914  52.010  1.00  0.00     0.172 C 
ENDROOT
BRANCH   1  16
HETATM   16  C5  UNL     1      24.189   1.398  52.368  1.00  0.00     0.072 C 
HETATM   17  C4  UNL     1      25.295   1.541  51.660  1.00  0.00     0.008 C 
BRANCH  17  18
HETATM   18  C3  UNL     1      26.646   1.016  51.978  1.00  0.00     0.299 C 
BRANCH  18  19
HETATM   19  N1  UNL     1      26.610   0.065  53.088  1.00  0.00     0.083 N 
HETATM   20  C1  UNL     1      27.603   0.424  54.086  1.00  0.00     0.309 C 
HETATM   21  C2  UNL     1      26.812  -1.289  52.622  1.00  0.00     0.309 C 
ENDBRANCH  18  19
ENDBRANCH  17  18
ENDBRANCH   1  16
BRANCH  13  22
HETATM   22  N5  UNL     1      24.940   8.094  50.721  1.00  0.00    -0.372 N 
HETATM   23  H16 UNL     1      25.083   8.340  51.703  1.00  0.00     0.161 HD
BRANCH  22  24
HETATM   24  C14 UNL     1      26.253   7.923  50.158  1.00  0.00     0.147 C 
BRANCH  24  25
HETATM   25  C15 UNL     1      27.055   9.179  50.017  1.00  0.00     0.183 C 
BRANCH  25  26
HETATM   26  O2  UNL     1      27.580   9.673  51.197  1.00  0.00    -0.399 OA
HETATM   27  H21 UNL     1      27.782  10.640  51.055  1.00  0.00     0.209 HD
ENDBRANCH  25  26
ENDBRANCH  24  25
ENDBRANCH  22  24
ENDBRANCH  13  22
TORSDOF 7
ENDMDL
MODEL 6
REMARK VINA RESULT:      -6.3      2.192      5.021
REMARK  7 active torsions:
REMARK  status: ('A' for Active; 'I' for Inactive)
REMARK    1  A    between atoms: N1_2  and  C3_4 
REMARK    2  A    between atoms: C3_4  and  C4_5 
REMARK    3  A    between atoms: C5_6  and  C6_7 
REMARK       I    between atoms: C6_7  and  N2_9 
REMARK    4  A    between atoms: C13_19  and  N5_20 
REMARK    5  A    between atoms: N5_20  and  C14_21 
REMARK    6  A    between atoms: C14_21  and  C15_22 
REMARK    7  A    between atoms: C15_22  and  O2_23 
ROOT
HETATM    1  C6  UNL     1      25.873   3.379  50.291  1.00  0.00     0.243 C 
HETATM    2  O1  UNL     1      26.877   2.737  49.838  1.00  0.00    -0.268 OA
HETATM    3  N2  UNL     1      25.229   3.269  51.556  1.00  0.00    -0.344 N 
HETATM    4  C7  UNL     1      24.125   3.916  52.168  1.00  0.00     0.131 C 
HETATM    5  C8  UNL     1      22.917   3.109  52.459  1.00  0.00     0.060 C 
HETATM    6  C9  UNL     1      23.212   1.743  52.884  1.00  0.00    -0.025 A 
HETATM    7  C10 UNL     1      24.537   1.477  52.896  1.00  0.00     0.010 A 
HETATM    8  S1  UNL     1      24.677  -0.215  53.440  1.00  0.00    -0.072 SA
HETATM    9  C11 UNL     1      22.906  -0.455  53.617  1.00  0.00     0.114 A 
HETATM   10  N3  UNL     1      22.237  -1.565  54.013  1.00  0.00    -0.234 NA
HETATM   11  C12 UNL     1      20.902  -1.545  54.079  1.00  0.00     0.236 A 
HETATM   12  N4  UNL     1      20.346  -0.400  53.737  1.00  0.00    -0.224 NA
HETATM   13  C13 UNL     1      20.980   0.682  53.352  1.00  0.00     0.138 A 
HETATM   14  C16 UNL     1      22.350   0.748  53.256  1.00  0.00     0.053 A 
HETATM   15  C17 UNL     1      25.694   2.329  52.550  1.00  0.00     0.172 C 
ENDROOT
BRANCH   1  16
HETATM   16  C5  UNL     1      25.340   4.354  49.349  1.00  0.00     0.072 C 
HETATM   17  C4  UNL     1      25.744   5.607  49.244  1.00  0.00     0.008 C 
BRANCH  17  18
HETATM   18  C3  UNL     1      25.241   6.643  48.307  1.00  0.00     0.299 C 
BRANCH  18  19
HETATM   19  N1  UNL     1      23.928   7.146  48.710  1.00  0.00     0.083 N 
HETATM   20  C1  UNL     1      23.196   7.620  47.549  1.00  0.00     0.309 C 
HETATM   21  C2  UNL     1      24.053   8.189  49.704  1.00  0.00     0.309 C 
ENDBRANCH  18  19
ENDBRANCH  17  18
ENDBRANCH   1  16
BRANCH  13  22
HETATM   22  N5  UNL     1      20.093   1.752  53.067  1.00  0.00    -0.372 N 
HETATM   23  H16 UNL     1      19.835   2.516  53.694  1.00  0.00     0.161 HD
BRANCH  22  24
HETATM   24  C14 UNL     1      19.379   1.984  51.839  1.00  0.00     0.147 C 
BRANCH  24  25
HETATM   25  C15 UNL     1      19.075   3.419  51.539  1.00  0.00     0.183 C 
BRANCH  25  26
HETATM   26  O2  UNL     1      17.829   3.851  51.955  1.00  0.00    -0.399 OA
HETATM   27  H21 UNL     1      17.158   3.509  51.300  1.00  0.00     0.209 HD
ENDBRANCH  25  26
ENDBRANCH  24  25
ENDBRANCH  22  24
ENDBRANCH  13  22
TORSDOF 7
ENDMDL
MODEL 7
REMARK VINA RESULT:      -6.2      5.932      9.359
REMARK  7 active torsions:
REMARK  status: ('A' for Active; 'I' for Inactive)
REMARK    1  A    between atoms: N1_2  and  C3_4 
REMARK    2  A    between atoms: C3_4  and  C4_5 
REMARK    3  A    between atoms: C5_6  and  C6_7 
REMARK       I    between atoms: C6_7  and  N2_9 
REMARK    4  A    between atoms: C13_19  and  N5_20 
REMARK    5  A    between atoms: N5_20  and  C14_21 
REMARK    6  A    between atoms: C14_21  and  C15_22 
REMARK    7  A    between atoms: C15_22  and  O2_23 
ROOT
HETATM    1  C6  UNL     1      30.653   7.748  48.978  1.00  0.00     0.243 C 
HETATM    2  O1  UNL     1      30.931   8.922  49.392  1.00  0.00    -0.268 OA
HETATM    3  N2  UNL     1      29.459   7.266  48.371  1.00  0.00    -0.344 N 
HETATM    4  C7  UNL     1      29.036   6.006  47.876  1.00  0.00     0.131 C 
HETATM    5  C8  UNL     1      27.923   5.320  48.574  1.00  0.00     0.060 C 
HETATM    6  C9  UNL     1      26.889   6.228  49.064  1.00  0.00    -0.025 A 
HETATM    7  C10 UNL     1      27.173   7.524  48.809  1.00  0.00     0.010 A 
HETATM    8  S1  UNL     1      25.803   8.450  49.477  1.00  0.00    -0.072 SA
HETATM    9  C11 UNL     1      24.924   6.999  50.067  1.00  0.00     0.114 A 
HETATM   10  N3  UNL     1      23.737   6.934  50.716  1.00  0.00    -0.234 NA
HETATM   11  C12 UNL     1      23.244   5.745  51.078  1.00  0.00     0.236 A 
HETATM   12  N4  UNL     1      23.995   4.711  50.754  1.00  0.00    -0.224 NA
HETATM   13  C13 UNL     1      25.146   4.759  50.125  1.00  0.00     0.138 A 
HETATM   14  C16 UNL     1      25.723   5.938  49.718  1.00  0.00     0.053 A 
HETATM   15  C17 UNL     1      28.335   8.144  48.137  1.00  0.00     0.172 C 
ENDROOT
BRANCH   1  16
HETATM   16  C5  UNL     1      31.738   6.796  49.175  1.00  0.00     0.072 C 
HETATM   17  C4  UNL     1      32.752   6.620  48.347  1.00  0.00     0.008 C 
BRANCH  17  18
HETATM   18  C3  UNL     1      33.883   5.669  48.492  1.00  0.00     0.299 C 
BRANCH  18  19
HETATM   19  N1  UNL     1      33.573   4.366  47.907  1.00  0.00     0.083 N 
HETATM   20  C1  UNL     1      34.774   3.552  47.834  1.00  0.00     0.309 C 
HETATM   21  C2  UNL     1      32.968   4.511  46.602  1.00  0.00     0.309 C 
ENDBRANCH  18  19
ENDBRANCH  17  18
ENDBRANCH   1  16
BRANCH  13  22
HETATM   22  N5  UNL     1      25.696   3.469  49.914  1.00  0.00    -0.372 N 
HETATM   23  H16 UNL     1      25.564   2.874  49.094  1.00  0.00     0.161 HD
BRANCH  22  24
HETATM   24  C14 UNL     1      26.555   2.735  50.806  1.00  0.00     0.147 C 
BRANCH  24  25
HETATM   25  C15 UNL     1      25.877   1.672  51.612  1.00  0.00     0.183 C 
BRANCH  25  26
HETATM   26  O2  UNL     1      24.495   1.727  51.608  1.00  0.00    -0.399 OA
HETATM   27  H21 UNL     1      24.231   2.674  51.782  1.00  0.00     0.209 HD
ENDBRANCH  25  26
ENDBRANCH  24  25
ENDBRANCH  22  24
ENDBRANCH  13  22
TORSDOF 7
ENDMDL
MODEL 8
REMARK VINA RESULT:      -6.1      5.114      7.485
REMARK  7 active torsions:
REMARK  status: ('A' for Active; 'I' for Inactive)
REMARK    1  A    between atoms: N1_2  and  C3_4 
REMARK    2  A    between atoms: C3_4  and  C4_5 
REMARK    3  A    between atoms: C5_6  and  C6_7 
REMARK       I    between atoms: C6_7  and  N2_9 
REMARK    4  A    between atoms: C13_19  and  N5_20 
REMARK    5  A    between atoms: N5_20  and  C14_21 
REMARK    6  A    between atoms: C14_21  and  C15_22 
REMARK    7  A    between atoms: C15_22  and  O2_23 
ROOT
HETATM    1  C6  UNL     1      27.992   8.221  48.694  1.00  0.00     0.243 C 
HETATM    2  O1  UNL     1      27.477   9.384  48.794  1.00  0.00    -0.268 OA
HETATM    3  N2  UNL     1      27.363   6.981  48.385  1.00  0.00    -0.344 N 
HETATM    4  C7  UNL     1      27.818   5.645  48.246  1.00  0.00     0.131 C 
HETATM    5  C8  UNL     1      27.348   4.642  49.231  1.00  0.00     0.060 C 
HETATM    6  C9  UNL     1      25.964   4.837  49.653  1.00  0.00    -0.025 A 
HETATM    7  C10 UNL     1      25.394   5.921  49.080  1.00  0.00     0.010 A 
HETATM    8  S1  UNL     1      23.729   5.974  49.717  1.00  0.00    -0.072 SA
HETATM    9  C11 UNL     1      23.917   4.504  50.732  1.00  0.00     0.114 A 
HETATM   10  N3  UNL     1      23.008   3.913  51.543  1.00  0.00    -0.234 NA
HETATM   11  C12 UNL     1      23.344   2.813  52.225  1.00  0.00     0.236 A 
HETATM   12  N4  UNL     1      24.580   2.397  52.032  1.00  0.00    -0.224 NA
HETATM   13  C13 UNL     1      25.471   2.959  51.250  1.00  0.00     0.138 A 
HETATM   14  C16 UNL     1      25.209   4.090  50.514  1.00  0.00     0.053 A 
HETATM   15  C17 UNL     1      25.942   6.910  48.129  1.00  0.00     0.172 C 
ENDROOT
BRANCH   1  16
HETATM   16  C5  UNL     1      29.428   8.203  48.938  1.00  0.00     0.072 C 
HETATM   17  C4  UNL     1      30.328   8.842  48.212  1.00  0.00     0.008 C 
BRANCH  17  18
HETATM   18  C3  UNL     1      31.799   8.862  48.410  1.00  0.00     0.299 C 
BRANCH  18  19
HETATM   19  N1  UNL     1      32.411   7.584  48.050  1.00  0.00     0.083 N 
HETATM   20  C1  UNL     1      33.756   7.503  48.593  1.00  0.00     0.309 C 
HETATM   21  C2  UNL     1      32.421   7.396  46.616  1.00  0.00     0.309 C 
ENDBRANCH  18  19
ENDBRANCH  17  18
ENDBRANCH   1  16
BRANCH  13  22
HETATM   22  N5  UNL     1      26.705   2.258  51.251  1.00  0.00    -0.372 N 
HETATM   23  H16 UNL     1      27.444   2.320  50.548  1.00  0.00     0.161 HD
BRANCH  22  24
HETATM   24  C14 UNL     1      27.170   1.321  52.240  1.00  0.00     0.147 C 
BRANCH  24  25
HETATM   25  C15 UNL     1      28.178   1.862  53.206  1.00  0.00     0.183 C 
BRANCH  25  26
HETATM   26  O2  UNL     1      28.820   3.016  52.794  1.00  0.00    -0.399 OA
HETATM   27  H21 UNL     1      28.419   3.289  51.922  1.00  0.00     0.209 HD
ENDBRANCH  25  26
ENDBRANCH  24  25
ENDBRANCH  22  24
ENDBRANCH  13  22
TORSDOF 7
ENDMDL
MODEL 9
REMARK VINA RESULT:      -6.0      2.818      7.076
REMARK  7 active torsions:
REMARK  status: ('A' for Active; 'I' for Inactive)
REMARK    1  A    between atoms: N1_2  and  C3_4 
REMARK    2  A    between atoms: C3_4  and  C4_5 
REMARK    3  A    between atoms: C5_6  and  C6_7 
REMARK       I    between atoms: C6_7  and  N2_9 
REMARK    4  A    between atoms: C13_19  and  N5_20 
REMARK    5  A    between atoms: N5_20  and  C14_21 
REMARK    6  A    between atoms: C14_21  and  C15_22 
REMARK    7  A    between atoms: C15_22  and  O2_23 
ROOT
HETATM    1  C6  UNL     1      21.542  -0.942  54.117  1.00  0.00     0.243 C 
HETATM    2  O1  UNL     1      22.012  -1.025  55.300  1.00  0.00    -0.268 OA
HETATM    3  N2  UNL     1      22.123  -0.359  52.956  1.00  0.00    -0.344 N 
HETATM    4  C7  UNL     1      21.707  -0.207  51.608  1.00  0.00     0.131 C 
HETATM    5  C8  UNL     1      21.454   1.164  51.106  1.00  0.00     0.060 C 
HETATM    6  C9  UNL     1      22.375   2.164  51.639  1.00  0.00    -0.025 A 
HETATM    7  C10 UNL     1      23.261   1.640  52.515  1.00  0.00     0.010 A 
HETATM    8  S1  UNL     1      24.280   3.007  53.036  1.00  0.00    -0.072 SA
HETATM    9  C11 UNL     1      23.426   4.217  52.019  1.00  0.00     0.114 A 
HETATM   10  N3  UNL     1      23.668   5.545  51.899  1.00  0.00    -0.234 NA
HETATM   11  C12 UNL     1      22.912   6.284  51.082  1.00  0.00     0.236 A 
HETATM   12  N4  UNL     1      21.965   5.621  50.449  1.00  0.00    -0.224 NA
HETATM   13  C13 UNL     1      21.719   4.336  50.555  1.00  0.00     0.138 A 
HETATM   14  C16 UNL     1      22.448   3.503  51.371  1.00  0.00     0.053 A 
HETATM   15  C17 UNL     1      23.430   0.256  53.004  1.00  0.00     0.172 C 
ENDROOT
BRANCH   1  16
HETATM   16  C5  UNL     1      20.221  -1.540  53.980  1.00  0.00     0.072 C 
HETATM   17  C4  UNL     1      19.153  -0.921  53.511  1.00  0.00     0.008 C 
BRANCH  17  18
HETATM   18  C3  UNL     1      17.786  -1.476  53.348  1.00  0.00     0.299 C 
BRANCH  18  19
HETATM   19  N1  UNL     1      17.120  -0.936  52.164  1.00  0.00     0.083 N 
HETATM   20  C1  UNL     1      18.060  -0.167  51.368  1.00  0.00     0.309 C 
HETATM   21  C2  UNL     1      15.976  -0.131  52.531  1.00  0.00     0.309 C 
ENDBRANCH  18  19
ENDBRANCH  17  18
ENDBRANCH   1  16
BRANCH  13  22
HETATM   22  N5  UNL     1      20.640   3.926  49.730  1.00  0.00    -0.372 N 
HETATM   23  H16 UNL     1      20.685   3.273  48.945  1.00  0.00     0.161 HD
BRANCH  22  24
HETATM   24  C14 UNL     1      19.265   4.339  49.830  1.00  0.00     0.147 C 
BRANCH  24  25
HETATM   25  C15 UNL     1      18.406   3.487  50.711  1.00  0.00     0.183 C 
BRANCH  25  26
HETATM   26  O2  UNL     1      18.674   3.589  52.064  1.00  0.00    -0.399 OA
HETATM   27  H21 UNL     1      19.445   2.987  52.264  1.00  0.00     0.209 HD
ENDBRANCH  25  26
ENDBRANCH  24  25
ENDBRANCH  22  24
ENDBRANCH  13  22
TORSDOF 7
ENDMDL
