MODEL 1
REMARK VINA RESULT:      -7.8      0.000      0.000
REMARK  6 active torsions:
REMARK  status: ('A' for Active; 'I' for Inactive)
REMARK    1  A    between atoms: C2_2  and  C3_3 
REMARK    2  A    between atoms: C3_3  and  C4_4 
REMARK    3  A    between atoms: C4_4  and  C5_5 
REMARK    4  A    between atoms: C5_5  and  C6_6 
REMARK    5  A    between atoms: C7_7  and  O1_8 
REMARK       I    between atoms: N1_10  and  C9_11 
REMARK       I    between atoms: C9_11  and  N2_13 
REMARK    6  A    between atoms: N2_13  and  C10_14 
ROOT
HETATM    1  C6  UNL     1      20.802   0.578  52.397  1.00  0.00    -0.027 C 
HETATM    2  C7  UNL     1      22.094   0.893  52.203  1.00  0.00     0.068 C 
HETATM    3  C8  UNL     1      23.458   0.498  52.496  1.00  0.00     0.198 C 
HETATM    4  N1  UNL     1      23.708  -0.291  53.644  1.00  0.00    -0.304 N 
HETATM    5  C9  UNL     1      25.136  -0.498  53.736  1.00  0.00     0.327 C 
HETATM    6  O2  UNL     1      25.652  -1.182  54.686  1.00  0.00    -0.246 OA
HETATM    7  N2  UNL     1      26.091  -0.000  52.835  1.00  0.00    -0.309 N 
HETATM    8  C16 UNL     1      23.068  -0.947  54.734  1.00  0.00     0.096 C 
HETATM    9  C17 UNL     1      21.819  -1.340  54.922  1.00  0.00     0.017 C 
HETATM   10  C18 UNL     1      20.597  -1.279  54.132  1.00  0.00     0.002 C 
HETATM   11  C19 UNL     1      20.205  -0.523  53.142  1.00  0.00     0.010 C 
HETATM   12  H15 UNL     1      25.757   0.570  52.027  1.00  0.00     0.170 HD
ENDROOT
BRANCH   2  13
HETATM   13  O1  UNL     1      22.076   2.057  51.403  1.00  0.00    -0.363 OA
HETATM   14  H12 UNL     1      21.700   2.041  50.455  1.00  0.00     0.217 HD
ENDBRANCH   2  13
BRANCH   7  15
HETATM   15  C10 UNL     1      27.443  -0.315  53.099  1.00  0.00     0.036 A 
HETATM   16  C11 UNL     1      28.241   0.726  53.526  1.00  0.00     0.029 A 
HETATM   17  C12 UNL     1      29.588   0.496  53.806  1.00  0.00     0.002 A 
HETATM   18  C13 UNL     1      30.123  -0.768  53.659  1.00  0.00     0.000 A 
HETATM   19  C14 UNL     1      29.334  -1.835  53.228  1.00  0.00     0.002 A 
HETATM   20  C15 UNL     1      27.990  -1.594  52.951  1.00  0.00     0.029 A 
ENDBRANCH   7  15
BRANCH   1  21
HETATM   21  C5  UNL     1      19.813   1.496  51.751  1.00  0.00     0.041 C 
BRANCH  21  22
HETATM   22  C4  UNL     1      18.939   0.697  50.821  1.00  0.00     0.005 C 
BRANCH  22  23
HETATM   23  C3  UNL     1      17.460   0.813  51.144  1.00  0.00    -0.000 C 
BRANCH  23  24
HETATM   24  C2  UNL     1      16.826  -0.536  51.196  1.00  0.00    -0.005 C 
HETATM   25  C1  UNL     1      16.595  -0.881  52.656  1.00  0.00     0.005 C 
ENDBRANCH  23  24
ENDBRANCH  22  23
ENDBRANCH  21  22
ENDBRANCH   1  21
TORSDOF 6
ENDMDL
MODEL 2
REMARK VINA RESULT:      -7.7      1.289      1.942
REMARK  6 active torsions:
REMARK  status: ('A' for Active; 'I' for Inactive)
REMARK    1  A    between atoms: C2_2  and  C3_3 
REMARK    2  A    between atoms: C3_3  and  C4_4 
REMARK    3  A    between atoms: C4_4  and  C5_5 
REMARK    4  A    between atoms: C5_5  and  C6_6 
REMARK    5  A    between atoms: C7_7  and  O1_8 
REMARK       I    between atoms: N1_10  and  C9_11 
REMARK       I    between atoms: C9_11  and  N2_13 
REMARK    6  A    between atoms: N2_13  and  C10_14 
ROOT
HETATM    1  C6  UNL     1      20.951   1.339  52.697  1.00  0.00    -0.027 C 
HETATM    2  C7  UNL     1      22.268   1.586  52.599  1.00  0.00     0.068 C 
HETATM    3  C8  UNL     1      23.589   1.022  52.801  1.00  0.00     0.198 C 
HETATM    4  N1  UNL     1      23.744  -0.038  53.727  1.00  0.00    -0.304 N 
HETATM    5  C9  UNL     1      25.148  -0.376  53.780  1.00  0.00     0.327 C 
HETATM    6  O2  UNL     1      25.583  -1.307  54.542  1.00  0.00    -0.246 OA
HETATM    7  N2  UNL     1      26.165   0.245  53.038  1.00  0.00    -0.309 N 
HETATM    8  C16 UNL     1      23.024  -0.883  54.619  1.00  0.00     0.096 C 
HETATM    9  C17 UNL     1      21.743  -1.207  54.693  1.00  0.00     0.017 C 
HETATM   10  C18 UNL     1      20.553  -0.858  53.928  1.00  0.00     0.002 C 
HETATM   11  C19 UNL     1      20.250   0.144  53.147  1.00  0.00     0.010 C 
HETATM   12  H15 UNL     1      25.900   1.018  52.388  1.00  0.00     0.170 HD
ENDROOT
BRANCH   2  13
HETATM   13  O1  UNL     1      22.363   2.905  52.105  1.00  0.00    -0.363 OA
HETATM   14  H12 UNL     1      23.213   3.239  51.648  1.00  0.00     0.217 HD
ENDBRANCH   2  13
BRANCH   7  15
HETATM   15  C10 UNL     1      27.481  -0.233  53.231  1.00  0.00     0.036 A 
HETATM   16  C11 UNL     1      28.396   0.676  53.722  1.00  0.00     0.029 A 
HETATM   17  C12 UNL     1      29.715   0.281  53.939  1.00  0.00     0.002 A 
HETATM   18  C13 UNL     1      30.108  -1.013  53.667  1.00  0.00     0.000 A 
HETATM   19  C14 UNL     1      29.199  -1.949  53.170  1.00  0.00     0.002 A 
HETATM   20  C15 UNL     1      27.884  -1.544  52.956  1.00  0.00     0.029 A 
ENDBRANCH   7  15
BRANCH   1  21
HETATM   21  C5  UNL     1      20.054   2.462  52.282  1.00  0.00     0.041 C 
BRANCH  21  22
HETATM   22  C4  UNL     1      19.184   2.000  51.145  1.00  0.00     0.005 C 
BRANCH  22  23
HETATM   23  C3  UNL     1      19.790   2.273  49.780  1.00  0.00    -0.000 C 
BRANCH  23  24
HETATM   24  C2  UNL     1      20.564   1.090  49.302  1.00  0.00    -0.005 C 
HETATM   25  C1  UNL     1      21.833   1.603  48.648  1.00  0.00     0.005 C 
ENDBRANCH  23  24
ENDBRANCH  22  23
ENDBRANCH  21  22
ENDBRANCH   1  21
TORSDOF 6
ENDMDL
MODEL 3
REMARK VINA RESULT:      -7.4      1.570      2.443
REMARK  6 active torsions:
REMARK  status: ('A' for Active; 'I' for Inactive)
REMARK    1  A    between atoms: C2_2  and  C3_3 
REMARK    2  A    between atoms: C3_3  and  C4_4 
REMARK    3  A    between atoms: C4_4  and  C5_5 
REMARK    4  A    between atoms: C5_5  and  C6_6 
REMARK    5  A    between atoms: C7_7  and  O1_8 
REMARK       I    between atoms: N1_10  and  C9_11 
REMARK       I    between atoms: C9_11  and  N2_13 
REMARK    6  A    between atoms: N2_13  and  C10_14 
ROOT
HETATM    1  C6  UNL     1      20.401  -0.002  53.150  1.00  0.00    -0.027 C 
HETATM    2  C7  UNL     1      21.544  -0.625  53.482  1.00  0.00     0.068 C 
HETATM    3  C8  UNL     1      22.989  -0.498  53.507  1.00  0.00     0.198 C 
HETATM    4  N1  UNL     1      23.610   0.402  52.608  1.00  0.00    -0.304 N 
HETATM    5  C9  UNL     1      25.040   0.300  52.798  1.00  0.00     0.327 C 
HETATM    6  O2  UNL     1      25.857   1.005  52.112  1.00  0.00    -0.246 OA
HETATM    7  N2  UNL     1      25.681  -0.547  53.716  1.00  0.00    -0.309 N 
HETATM    8  C16 UNL     1      23.340   1.363  51.593  1.00  0.00     0.096 C 
HETATM    9  C17 UNL     1      22.251   2.050  51.290  1.00  0.00     0.017 C 
HETATM   10  C18 UNL     1      20.903   2.126  51.838  1.00  0.00     0.002 C 
HETATM   11  C19 UNL     1      20.184   1.316  52.568  1.00  0.00     0.010 C 
HETATM   12  H15 UNL     1      25.089  -1.160  54.319  1.00  0.00     0.170 HD
ENDROOT
BRANCH   2  13
HETATM   13  O1  UNL     1      21.148  -1.876  54.003  1.00  0.00    -0.363 OA
HETATM   14  H12 UNL     1      20.861  -1.976  54.977  1.00  0.00     0.217 HD
ENDBRANCH   2  13
BRANCH   7  15
HETATM   15  C10 UNL     1      27.093  -0.500  53.751  1.00  0.00     0.036 A 
HETATM   16  C11 UNL     1      27.653   0.516  54.498  1.00  0.00     0.029 A 
HETATM   17  C12 UNL     1      29.041   0.629  54.581  1.00  0.00     0.002 A 
HETATM   18  C13 UNL     1      29.853  -0.269  53.919  1.00  0.00     0.000 A 
HETATM   19  C14 UNL     1      29.308  -1.303  53.158  1.00  0.00     0.002 A 
HETATM   20  C15 UNL     1      27.921  -1.408  53.081  1.00  0.00     0.029 A 
ENDBRANCH   7  15
BRANCH   1  21
HETATM   21  C5  UNL     1      19.148  -0.774  53.416  1.00  0.00     0.041 C 
BRANCH  21  22
HETATM   22  C4  UNL     1      18.091  -0.345  52.435  1.00  0.00     0.005 C 
BRANCH  22  23
HETATM   23  C3  UNL     1      16.887  -1.271  52.410  1.00  0.00    -0.000 C 
BRANCH  23  24
HETATM   24  C2  UNL     1      15.976  -0.919  51.282  1.00  0.00    -0.005 C 
HETATM   25  C1  UNL     1      16.824  -0.328  50.171  1.00  0.00     0.005 C 
ENDBRANCH  23  24
ENDBRANCH  22  23
ENDBRANCH  21  22
ENDBRANCH   1  21
TORSDOF 6
ENDMDL
MODEL 4
REMARK VINA RESULT:      -7.3      2.970      8.283
REMARK  6 active torsions:
REMARK  status: ('A' for Active; 'I' for Inactive)
REMARK    1  A    between atoms: C2_2  and  C3_3 
REMARK    2  A    between atoms: C3_3  and  C4_4 
REMARK    3  A    between atoms: C4_4  and  C5_5 
REMARK    4  A    between atoms: C5_5  and  C6_6 
REMARK    5  A    between atoms: C7_7  and  O1_8 
REMARK       I    between atoms: N1_10  and  C9_11 
REMARK       I    between atoms: C9_11  and  N2_13 
REMARK    6  A    between atoms: N2_13  and  C10_14 
ROOT
HETATM    1  C6  UNL     1      27.178   1.577  53.522  1.00  0.00    -0.027 C 
HETATM    2  C7  UNL     1      26.520   2.151  52.501  1.00  0.00     0.068 C 
HETATM    3  C8  UNL     1      25.224   2.285  51.864  1.00  0.00     0.198 C 
HETATM    4  N1  UNL     1      24.258   1.269  52.060  1.00  0.00    -0.304 N 
HETATM    5  C9  UNL     1      23.089   1.614  51.283  1.00  0.00     0.327 C 
HETATM    6  O2  UNL     1      22.051   0.868  51.271  1.00  0.00    -0.246 OA
HETATM    7  N2  UNL     1      22.952   2.759  50.482  1.00  0.00    -0.309 N 
HETATM    8  C16 UNL     1      24.024   0.040  52.739  1.00  0.00     0.096 C 
HETATM    9  C17 UNL     1      24.601  -0.515  53.792  1.00  0.00     0.017 C 
HETATM   10  C18 UNL     1      25.685  -0.131  54.686  1.00  0.00     0.002 C 
HETATM   11  C19 UNL     1      26.694   0.691  54.573  1.00  0.00     0.010 C 
HETATM   12  H15 UNL     1      23.753   3.426  50.433  1.00  0.00     0.170 HD
ENDROOT
BRANCH   2  13
HETATM   13  O1  UNL     1      27.493   2.904  51.808  1.00  0.00    -0.363 OA
HETATM   14  H12 UNL     1      27.228   3.566  51.078  1.00  0.00     0.217 HD
ENDBRANCH   2  13
BRANCH   7  15
HETATM   15  C10 UNL     1      21.726   2.917  49.798  1.00  0.00     0.036 A 
HETATM   16  C11 UNL     1      20.758   3.661  50.442  1.00  0.00     0.029 A 
HETATM   17  C12 UNL     1      19.520   3.862  49.832  1.00  0.00     0.002 A 
HETATM   18  C13 UNL     1      19.261   3.322  48.589  1.00  0.00     0.000 A 
HETATM   19  C14 UNL     1      20.225   2.567  47.920  1.00  0.00     0.002 A 
HETATM   20  C15 UNL     1      21.458   2.371  48.538  1.00  0.00     0.029 A 
ENDBRANCH   7  15
BRANCH   1  21
HETATM   21  C5  UNL     1      28.639   1.891  53.603  1.00  0.00     0.041 C 
BRANCH  21  22
HETATM   22  C4  UNL     1      29.342   0.766  54.313  1.00  0.00     0.005 C 
BRANCH  22  23
HETATM   23  C3  UNL     1      30.094  -0.158  53.372  1.00  0.00    -0.000 C 
BRANCH  23  24
HETATM   24  C2  UNL     1      29.868  -1.585  53.744  1.00  0.00    -0.005 C 
HETATM   25  C1  UNL     1      28.611  -2.053  53.035  1.00  0.00     0.005 C 
ENDBRANCH  23  24
ENDBRANCH  22  23
ENDBRANCH  21  22
ENDBRANCH   1  21
TORSDOF 6
ENDMDL
MODEL 5
REMARK VINA RESULT:      -7.0      5.120      8.994
REMARK  6 active torsions:
REMARK  status: ('A' for Active; 'I' for Inactive)
REMARK    1  A    between atoms: C2_2  and  C3_3 
REMARK    2  A    between atoms: C3_3  and  C4_4 
REMARK    3  A    between atoms: C4_4  and  C5_5 
REMARK    4  A    between atoms: C5_5  and  C6_6 
REMARK    5  A    between atoms: C7_7  and  O1_8 
REMARK       I    between atoms: N1_10  and  C9_11 
REMARK       I    between atoms: C9_11  and  N2_13 
REMARK    6  A    between atoms: N2_13  and  C10_14 
ROOT
HETATM    1  C6  UNL     1      26.385   5.073  49.198  1.00  0.00    -0.027 C 
HETATM    2  C7  UNL     1      25.967   3.883  49.661  1.00  0.00     0.068 C 
HETATM    3  C8  UNL     1      24.873   3.195  50.319  1.00  0.00     0.198 C 
HETATM    4  N1  UNL     1      23.978   3.945  51.119  1.00  0.00    -0.304 N 
HETATM    5  C9  UNL     1      23.025   3.025  51.697  1.00  0.00     0.327 C 
HETATM    6  O2  UNL     1      22.091   3.429  52.472  1.00  0.00    -0.246 OA
HETATM    7  N2  UNL     1      23.004   1.637  51.489  1.00  0.00    -0.309 N 
HETATM    8  C16 UNL     1      23.680   5.266  51.558  1.00  0.00     0.096 C 
HETATM    9  C17 UNL     1      24.010   6.455  51.080  1.00  0.00     0.017 C 
HETATM   10  C18 UNL     1      24.791   6.919  49.942  1.00  0.00     0.002 C 
HETATM   11  C19 UNL     1      25.722   6.371  49.208  1.00  0.00     0.010 C 
HETATM   12  H15 UNL     1      23.731   1.219  50.869  1.00  0.00     0.170 HD
ENDROOT
BRANCH   2  13
HETATM   13  O1  UNL     1      27.020   2.985  49.380  1.00  0.00    -0.363 OA
HETATM   14  H12 UNL     1      27.195   2.173  49.974  1.00  0.00     0.217 HD
ENDBRANCH   2  13
BRANCH   7  15
HETATM   15  C10 UNL     1      21.986   0.908  52.146  1.00  0.00     0.036 A 
HETATM   16  C11 UNL     1      22.309   0.383  53.381  1.00  0.00     0.029 A 
HETATM   17  C12 UNL     1      21.358  -0.349  54.091  1.00  0.00     0.002 A 
HETATM   18  C13 UNL     1      20.099  -0.550  53.564  1.00  0.00     0.000 A 
HETATM   19  C14 UNL     1      19.751  -0.029  52.318  1.00  0.00     0.002 A 
HETATM   20  C15 UNL     1      20.707   0.701  51.616  1.00  0.00     0.029 A 
ENDBRANCH   7  15
BRANCH   1  21
HETATM   21  C5  UNL     1      27.744   5.078  48.572  1.00  0.00     0.041 C 
BRANCH  21  22
HETATM   22  C4  UNL     1      28.019   6.447  48.010  1.00  0.00     0.005 C 
BRANCH  22  23
HETATM   23  C3  UNL     1      29.499   6.727  47.816  1.00  0.00    -0.000 C 
BRANCH  23  24
HETATM   24  C2  UNL     1      30.297   5.478  47.990  1.00  0.00    -0.005 C 
HETATM   25  C1  UNL     1      31.485   5.810  48.874  1.00  0.00     0.005 C 
ENDBRANCH  23  24
ENDBRANCH  22  23
ENDBRANCH  21  22
ENDBRANCH   1  21
TORSDOF 6
ENDMDL
MODEL 6
REMARK VINA RESULT:      -7.0      5.313      8.087
REMARK  6 active torsions:
REMARK  status: ('A' for Active; 'I' for Inactive)
REMARK    1  A    between atoms: C2_2  and  C3_3 
REMARK    2  A    between atoms: C3_3  and  C4_4 
REMARK    3  A    between atoms: C4_4  and  C5_5 
REMARK    4  A    between atoms: C5_5  and  C6_6 
REMARK    5  A    between atoms: C7_7  and  O1_8 
REMARK       I    between atoms: N1_10  and  C9_11 
REMARK       I    between atoms: C9_11  and  N2_13 
REMARK    6  A    between atoms: N2_13  and  C10_14 
ROOT
HETATM    1  C6  UNL     1      25.123   0.889  52.453  1.00  0.00    -0.027 C 
HETATM    2  C7  UNL     1      25.816   1.799  51.750  1.00  0.00     0.068 C 
HETATM    3  C8  UNL     1      25.772   3.137  51.191  1.00  0.00     0.198 C 
HETATM    4  N1  UNL     1      24.512   3.720  50.914  1.00  0.00    -0.304 N 
HETATM    5  C9  UNL     1      24.746   5.017  50.321  1.00  0.00     0.327 C 
HETATM    6  O2  UNL     1      23.778   5.773  49.966  1.00  0.00    -0.246 OA
HETATM    7  N2  UNL     1      26.006   5.584  50.072  1.00  0.00    -0.309 N 
HETATM    8  C16 UNL     1      23.109   3.492  51.007  1.00  0.00     0.096 C 
HETATM    9  C17 UNL     1      22.393   2.660  51.745  1.00  0.00     0.017 C 
HETATM   10  C18 UNL     1      22.708   1.652  52.748  1.00  0.00     0.002 C 
HETATM   11  C19 UNL     1      23.782   0.961  53.020  1.00  0.00     0.010 C 
HETATM   12  H15 UNL     1      26.854   5.034  50.331  1.00  0.00     0.170 HD
ENDROOT
BRANCH   2  13
HETATM   13  O1  UNL     1      27.055   1.184  51.465  1.00  0.00    -0.363 OA
HETATM   14  H12 UNL     1      27.899   1.432  51.982  1.00  0.00     0.217 HD
ENDBRANCH   2  13
BRANCH   7  15
HETATM   15  C10 UNL     1      26.023   6.869  49.483  1.00  0.00     0.036 A 
HETATM   16  C11 UNL     1      26.109   6.910  48.107  1.00  0.00     0.029 A 
HETATM   17  C12 UNL     1      26.133   8.140  47.452  1.00  0.00     0.002 A 
HETATM   18  C13 UNL     1      26.069   9.314  48.174  1.00  0.00     0.000 A 
HETATM   19  C14 UNL     1      25.982   9.296  49.566  1.00  0.00     0.002 A 
HETATM   20  C15 UNL     1      25.959   8.062  50.211  1.00  0.00     0.029 A 
ENDBRANCH   7  15
BRANCH   1  21
HETATM   21  C5  UNL     1      25.829  -0.407  52.700  1.00  0.00     0.041 C 
BRANCH  21  22
HETATM   22  C4  UNL     1      25.898  -0.652  54.183  1.00  0.00     0.005 C 
BRANCH  22  23
HETATM   23  C3  UNL     1      26.885   0.257  54.894  1.00  0.00    -0.000 C 
BRANCH  23  24
HETATM   24  C2  UNL     1      28.287  -0.104  54.532  1.00  0.00    -0.005 C 
HETATM   25  C1  UNL     1      29.058   1.187  54.327  1.00  0.00     0.005 C 
ENDBRANCH  23  24
ENDBRANCH  22  23
ENDBRANCH  21  22
ENDBRANCH   1  21
TORSDOF 6
ENDMDL
MODEL 7
REMARK VINA RESULT:      -7.0      5.258      6.899
REMARK  6 active torsions:
REMARK  status: ('A' for Active; 'I' for Inactive)
REMARK    1  A    between atoms: C2_2  and  C3_3 
REMARK    2  A    between atoms: C3_3  and  C4_4 
REMARK    3  A    between atoms: C4_4  and  C5_5 
REMARK    4  A    between atoms: C5_5  and  C6_6 
REMARK    5  A    between atoms: C7_7  and  O1_8 
REMARK       I    between atoms: N1_10  and  C9_11 
REMARK       I    between atoms: C9_11  and  N2_13 
REMARK    6  A    between atoms: N2_13  and  C10_14 
ROOT
HETATM    1  C6  UNL     1      23.551   1.074  52.140  1.00  0.00    -0.027 C 
HETATM    2  C7  UNL     1      24.443   2.076  52.068  1.00  0.00     0.068 C 
HETATM    3  C8  UNL     1      24.755   3.327  51.404  1.00  0.00     0.198 C 
HETATM    4  N1  UNL     1      24.203   3.578  50.125  1.00  0.00    -0.304 N 
HETATM    5  C9  UNL     1      24.707   4.853  49.669  1.00  0.00     0.327 C 
HETATM    6  O2  UNL     1      24.372   5.336  48.533  1.00  0.00    -0.246 OA
HETATM    7  N2  UNL     1      25.586   5.684  50.381  1.00  0.00    -0.309 N 
HETATM    8  C16 UNL     1      23.339   3.032  49.133  1.00  0.00     0.096 C 
HETATM    9  C17 UNL     1      22.399   2.104  49.190  1.00  0.00     0.017 C 
HETATM   10  C18 UNL     1      21.852   1.264  50.248  1.00  0.00     0.002 C 
HETATM   11  C19 UNL     1      22.311   0.864  51.403  1.00  0.00     0.010 C 
HETATM   12  H15 UNL     1      25.913   5.367  51.321  1.00  0.00     0.170 HD
ENDROOT
BRANCH   2  13
HETATM   13  O1  UNL     1      25.441   1.753  53.012  1.00  0.00    -0.363 OA
HETATM   14  H12 UNL     1      25.949   0.869  52.964  1.00  0.00     0.217 HD
ENDBRANCH   2  13
BRANCH   7  15
HETATM   15  C10 UNL     1      25.964   6.897  49.761  1.00  0.00     0.036 A 
HETATM   16  C11 UNL     1      26.951   6.812  48.801  1.00  0.00     0.029 A 
HETATM   17  C12 UNL     1      27.378   7.965  48.144  1.00  0.00     0.002 A 
HETATM   18  C13 UNL     1      26.817   9.188  48.450  1.00  0.00     0.000 A 
HETATM   19  C14 UNL     1      25.817   9.297  49.417  1.00  0.00     0.002 A 
HETATM   20  C15 UNL     1      25.398   8.139  50.067  1.00  0.00     0.029 A 
ENDBRANCH   7  15
BRANCH   1  21
HETATM   21  C5  UNL     1      23.869  -0.001  53.132  1.00  0.00     0.041 C 
BRANCH  21  22
HETATM   22  C4  UNL     1      22.681  -0.913  53.264  1.00  0.00     0.005 C 
BRANCH  22  23
HETATM   23  C3  UNL     1      22.051  -0.878  54.646  1.00  0.00    -0.000 C 
BRANCH  23  24
HETATM   24  C2  UNL     1      20.858   0.018  54.657  1.00  0.00    -0.005 C 
HETATM   25  C1  UNL     1      19.855  -0.537  53.663  1.00  0.00     0.005 C 
ENDBRANCH  23  24
ENDBRANCH  22  23
ENDBRANCH  21  22
ENDBRANCH   1  21
TORSDOF 6
ENDMDL
MODEL 8
REMARK VINA RESULT:      -7.0      3.994      4.913
REMARK  6 active torsions:
REMARK  status: ('A' for Active; 'I' for Inactive)
REMARK    1  A    between atoms: C2_2  and  C3_3 
REMARK    2  A    between atoms: C3_3  and  C4_4 
REMARK    3  A    between atoms: C4_4  and  C5_5 
REMARK    4  A    between atoms: C5_5  and  C6_6 
REMARK    5  A    between atoms: C7_7  and  O1_8 
REMARK       I    between atoms: N1_10  and  C9_11 
REMARK       I    between atoms: C9_11  and  N2_13 
REMARK    6  A    between atoms: N2_13  and  C10_14 
ROOT
HETATM    1  C6  UNL     1      21.080   0.331  51.966  1.00  0.00    -0.027 C 
HETATM    2  C7  UNL     1      21.455   1.405  51.251  1.00  0.00     0.068 C 
HETATM    3  C8  UNL     1      22.595   2.188  50.813  1.00  0.00     0.198 C 
HETATM    4  N1  UNL     1      23.788   2.139  51.573  1.00  0.00    -0.304 N 
HETATM    5  C9  UNL     1      24.739   3.038  50.960  1.00  0.00     0.327 C 
HETATM    6  O2  UNL     1      25.914   3.197  51.440  1.00  0.00    -0.246 OA
HETATM    7  N2  UNL     1      24.505   3.814  49.814  1.00  0.00    -0.309 N 
HETATM    8  C16 UNL     1      24.386   1.530  52.713  1.00  0.00     0.096 C 
HETATM    9  C17 UNL     1      24.089   0.433  53.391  1.00  0.00     0.017 C 
HETATM   10  C18 UNL     1      23.063  -0.594  53.276  1.00  0.00     0.002 C 
HETATM   11  C19 UNL     1      21.884  -0.627  52.715  1.00  0.00     0.010 C 
HETATM   12  H15 UNL     1      23.570   3.747  49.355  1.00  0.00     0.170 HD
ENDROOT
BRANCH   2  13
HETATM   13  O1  UNL     1      20.255   1.954  50.749  1.00  0.00    -0.363 OA
HETATM   14  H12 UNL     1      19.563   1.370  50.278  1.00  0.00     0.217 HD
ENDBRANCH   2  13
BRANCH   7  15
HETATM   15  C10 UNL     1      25.566   4.634  49.369  1.00  0.00     0.036 A 
HETATM   16  C11 UNL     1      26.748   3.992  49.062  1.00  0.00     0.029 A 
HETATM   17  C12 UNL     1      27.843   4.732  48.616  1.00  0.00     0.002 A 
HETATM   18  C13 UNL     1      27.747   6.102  48.481  1.00  0.00     0.000 A 
HETATM   19  C14 UNL     1      26.562   6.772  48.786  1.00  0.00     0.002 A 
HETATM   20  C15 UNL     1      25.475   6.024  49.230  1.00  0.00     0.029 A 
ENDBRANCH   7  15
BRANCH   1  21
HETATM   21  C5  UNL     1      19.608   0.067  52.007  1.00  0.00     0.041 C 
BRANCH  21  22
HETATM   22  C4  UNL     1      19.291  -0.750  53.230  1.00  0.00     0.005 C 
BRANCH  22  23
HETATM   23  C3  UNL     1      17.956  -1.468  53.138  1.00  0.00    -0.000 C 
BRANCH  23  24
HETATM   24  C2  UNL     1      17.989  -2.741  53.916  1.00  0.00    -0.005 C 
HETATM   25  C1  UNL     1      16.938  -3.666  53.331  1.00  0.00     0.005 C 
ENDBRANCH  23  24
ENDBRANCH  22  23
ENDBRANCH  21  22
ENDBRANCH   1  21
TORSDOF 6
ENDMDL
MODEL 9
REMARK VINA RESULT:      -6.9      1.520      1.913
REMARK  6 active torsions:
REMARK  status: ('A' for Active; 'I' for Inactive)
REMARK    1  A    between atoms: C2_2  and  C3_3 
REMARK    2  A    between atoms: C3_3  and  C4_4 
REMARK    3  A    between atoms: C4_4  and  C5_5 
REMARK    4  A    between atoms: C5_5  and  C6_6 
REMARK    5  A    between atoms: C7_7  and  O1_8 
REMARK       I    between atoms: N1_10  and  C9_11 
REMARK       I    between atoms: C9_11  and  N2_13 
REMARK    6  A    between atoms: N2_13  and  C10_14 
ROOT
HETATM    1  C6  UNL     1      21.105   1.731  51.299  1.00  0.00    -0.027 C 
HETATM    2  C7  UNL     1      22.445   1.827  51.283  1.00  0.00     0.068 C 
HETATM    3  C8  UNL     1      23.675   1.207  51.740  1.00  0.00     0.198 C 
HETATM    4  N1  UNL     1      23.637   0.381  52.888  1.00  0.00    -0.304 N 
HETATM    5  C9  UNL     1      24.986  -0.062  53.158  1.00  0.00     0.327 C 
HETATM    6  O2  UNL     1      25.252  -0.828  54.147  1.00  0.00    -0.246 OA
HETATM    7  N2  UNL     1      26.120   0.275  52.404  1.00  0.00    -0.309 N 
HETATM    8  C16 UNL     1      22.759  -0.166  53.867  1.00  0.00     0.096 C 
HETATM    9  C17 UNL     1      21.448  -0.346  53.880  1.00  0.00     0.017 C 
HETATM   10  C18 UNL     1      20.368  -0.077  52.940  1.00  0.00     0.002 C 
HETATM   11  C19 UNL     1      20.241   0.740  51.929  1.00  0.00     0.010 C 
HETATM   12  H15 UNL     1      25.996   0.898  51.575  1.00  0.00     0.170 HD
ENDROOT
BRANCH   2  13
HETATM   13  O1  UNL     1      22.726   2.982  50.521  1.00  0.00    -0.363 OA
HETATM   14  H12 UNL     1      23.449   2.977  49.801  1.00  0.00     0.217 HD
ENDBRANCH   2  13
BRANCH   7  15
HETATM   15  C10 UNL     1      27.356  -0.263  52.832  1.00  0.00     0.036 A 
HETATM   16  C11 UNL     1      28.229   0.617  53.438  1.00  0.00     0.029 A 
HETATM   17  C12 UNL     1      29.468   0.163  53.887  1.00  0.00     0.002 A 
HETATM   18  C13 UNL     1      29.823  -1.162  53.728  1.00  0.00     0.000 A 
HETATM   19  C14 UNL     1      28.956  -2.068  53.118  1.00  0.00     0.002 A 
HETATM   20  C15 UNL     1      27.720  -1.605  52.673  1.00  0.00     0.029 A 
ENDBRANCH   7  15
BRANCH   1  21
HETATM   21  C5  UNL     1      20.375   2.804  50.556  1.00  0.00     0.041 C 
BRANCH  21  22
HETATM   22  C4  UNL     1      19.502   3.560  51.520  1.00  0.00     0.005 C 
BRANCH  22  23
HETATM   23  C3  UNL     1      18.140   3.909  50.946  1.00  0.00    -0.000 C 
BRANCH  23  24
HETATM   24  C2  UNL     1      17.057   3.207  51.695  1.00  0.00    -0.005 C 
HETATM   25  C1  UNL     1      15.931   4.199  51.916  1.00  0.00     0.005 C 
ENDBRANCH  23  24
ENDBRANCH  22  23
ENDBRANCH  21  22
ENDBRANCH   1  21
TORSDOF 6
ENDMDL
