MODEL 1
REMARK VINA RESULT:      -7.8      0.000      0.000
REMARK  7 active torsions:
REMARK  status: ('A' for Active; 'I' for Inactive)
REMARK    1  A    between atoms: N1_2  and  C2_3 
REMARK    2  A    between atoms: C2_3  and  C3_4 
REMARK    3  A    between atoms: C4_5  and  C5_6 
REMARK       I    between atoms: C5_6  and  N2_8 
REMARK    4  A    between atoms: N2_8  and  C6_9 
REMARK    5  A    between atoms: C10_14  and  C11_15 
REMARK    6  A    between atoms: C11_15  and  N3_16 
REMARK    7  A    between atoms: N3_16  and  C12_17 
ROOT
HETATM    1  C6  UNL     1      24.348   3.447  51.243  1.00  0.00     0.036 A 
HETATM    2  C7  UNL     1      23.094   3.331  50.628  1.00  0.00     0.031 A 
HETATM    3  C8  UNL     1      22.240   2.265  50.935  1.00  0.00     0.022 A 
HETATM    4  C9  UNL     1      22.702   1.349  51.865  1.00  0.00     0.019 A 
HETATM    5 BR1  UNL     1      21.526  -0.109  52.281  1.00  0.00    -0.051 Br
HETATM    6  C10 UNL     1      23.960   1.480  52.471  1.00  0.00    -0.021 A 
HETATM    7  C19 UNL     1      24.787   2.533  52.158  1.00  0.00     0.039 A 
ENDROOT
BRANCH   6   8
HETATM    8  C11 UNL     1      24.296   0.395  53.429  1.00  0.00     0.155 C 
BRANCH   8   9
HETATM    9  N3  UNL     1      25.014  -0.696  52.855  1.00  0.00    -0.407 N 
HETATM   10  H12 UNL     1      24.993  -0.789  51.838  1.00  0.00     0.154 HD
BRANCH   9  11
HETATM   11  C12 UNL     1      26.262  -0.919  53.504  1.00  0.00     0.124 C 
HETATM   12  C13 UNL     1      27.007  -1.989  52.765  1.00  0.00     0.002 C 
HETATM   13  C14 UNL     1      28.283  -2.400  52.693  1.00  0.00    -0.002 C 
HETATM   14  C15 UNL     1      29.362  -1.756  53.466  1.00  0.00     0.001 C 
HETATM   15  C16 UNL     1      29.448  -0.503  53.947  1.00  0.00     0.019 C 
HETATM   16  C17 UNL     1      28.389   0.515  53.765  1.00  0.00     0.009 C 
HETATM   17 BR2  UNL     1      29.101   2.305  53.817  1.00  0.00    -0.051 Br
HETATM   18  C18 UNL     1      27.090   0.322  53.583  1.00  0.00     0.021 C 
ENDBRANCH   9  11
ENDBRANCH   8   9
ENDBRANCH   6   8
BRANCH   1  19
HETATM   19  N2  UNL     1      25.074   4.588  50.802  1.00  0.00    -0.316 N 
HETATM   20  C5  UNL     1      25.989   4.183  49.783  1.00  0.00     0.301 C 
HETATM   21  O1  UNL     1      26.036   2.980  49.440  1.00  0.00    -0.258 OA
HETATM   22  H7  UNL     1      25.106   5.620  51.029  1.00  0.00     0.170 HD
BRANCH  20  23
HETATM   23  C4  UNL     1      26.892   5.061  49.091  1.00  0.00    -0.004 C 
HETATM   24  C3  UNL     1      27.650   5.787  48.492  1.00  0.00    -0.066 C 
BRANCH  24  25
HETATM   25  C2  UNL     1      28.578   6.668  47.784  1.00  0.00     0.362 C 
BRANCH  25  26
HETATM   26  N1  UNL     1      29.698   7.097  48.595  1.00  0.00     0.089 N 
HETATM   27  C1  UNL     1      30.631   5.966  48.596  1.00  0.00     0.307 C 
HETATM   28  H4  UNL     1      30.177   7.853  48.060  1.00  0.00     0.316 HD
ENDBRANCH  25  26
ENDBRANCH  24  25
ENDBRANCH  20  23
ENDBRANCH   1  19
TORSDOF 7
ENDMDL
MODEL 2
REMARK VINA RESULT:      -7.4      3.279      7.980
REMARK  7 active torsions:
REMARK  status: ('A' for Active; 'I' for Inactive)
REMARK    1  A    between atoms: N1_2  and  C2_3 
REMARK    2  A    between atoms: C2_3  and  C3_4 
REMARK    3  A    between atoms: C4_5  and  C5_6 
REMARK       I    between atoms: C5_6  and  N2_8 
REMARK    4  A    between atoms: N2_8  and  C6_9 
REMARK    5  A    between atoms: C10_14  and  C11_15 
REMARK    6  A    between atoms: C11_15  and  N3_16 
REMARK    7  A    between atoms: N3_16  and  C12_17 
ROOT
HETATM    1  C6  UNL     1      26.073   3.952  49.721  1.00  0.00     0.036 A 
HETATM    2  C7  UNL     1      25.137   4.916  50.117  1.00  0.00     0.031 A 
HETATM    3  C8  UNL     1      25.333   6.271  49.820  1.00  0.00     0.022 A 
HETATM    4  C9  UNL     1      26.487   6.592  49.126  1.00  0.00     0.019 A 
HETATM    5 BR1  UNL     1      26.749   8.450  48.722  1.00  0.00    -0.051 Br
HETATM    6  C10 UNL     1      27.414   5.614  48.737  1.00  0.00    -0.021 A 
HETATM    7  C19 UNL     1      27.207   4.288  49.036  1.00  0.00     0.039 A 
ENDROOT
BRANCH   6   8
HETATM    8  C11 UNL     1      28.601   6.144  48.018  1.00  0.00     0.155 C 
BRANCH   8   9
HETATM    9  N3  UNL     1      29.783   6.225  48.812  1.00  0.00    -0.407 N 
HETATM   10  H12 UNL     1      29.801   5.692  49.683  1.00  0.00     0.154 HD
BRANCH   9  11
HETATM   11  C12 UNL     1      30.966   6.216  48.019  1.00  0.00     0.124 C 
HETATM   12  C13 UNL     1      32.045   6.955  48.751  1.00  0.00     0.002 C 
HETATM   13  C14 UNL     1      33.384   7.020  48.683  1.00  0.00    -0.002 C 
HETATM   14  C15 UNL     1      34.161   6.240  47.702  1.00  0.00     0.001 C 
HETATM   15  C16 UNL     1      33.858   5.082  47.086  1.00  0.00     0.019 C 
HETATM   16  C17 UNL     1      32.594   4.346  47.312  1.00  0.00     0.009 C 
HETATM   17 BR2  UNL     1      32.795   2.459  46.974  1.00  0.00    -0.051 Br
HETATM   18  C18 UNL     1      31.421   4.831  47.695  1.00  0.00     0.021 C 
ENDBRANCH   9  11
ENDBRANCH   8   9
ENDBRANCH   6   8
BRANCH   1  19
HETATM   19  N2  UNL     1      25.707   2.635  50.114  1.00  0.00    -0.316 N 
HETATM   20  C5  UNL     1      26.616   2.188  51.120  1.00  0.00     0.301 C 
HETATM   21  O1  UNL     1      27.544   2.943  51.492  1.00  0.00    -0.258 OA
HETATM   22  H7  UNL     1      24.960   1.931  49.861  1.00  0.00     0.170 HD
BRANCH  20  23
HETATM   23  C4  UNL     1      26.564   0.906  51.767  1.00  0.00    -0.004 C 
HETATM   24  C3  UNL     1      26.519  -0.181  52.293  1.00  0.00    -0.066 C 
BRANCH  24  25
HETATM   25  C2  UNL     1      26.452  -1.489  52.943  1.00  0.00     0.362 C 
BRANCH  25  26
HETATM   26  N1  UNL     1      27.712  -2.202  52.934  1.00  0.00     0.089 N 
HETATM   27  C1  UNL     1      28.707  -1.238  53.412  1.00  0.00     0.307 C 
HETATM   28  H4  UNL     1      27.646  -2.927  53.680  1.00  0.00     0.316 HD
ENDBRANCH  25  26
ENDBRANCH  24  25
ENDBRANCH  20  23
ENDBRANCH   1  19
TORSDOF 7
ENDMDL
MODEL 3
REMARK VINA RESULT:      -7.4      3.089      4.640
REMARK  7 active torsions:
REMARK  status: ('A' for Active; 'I' for Inactive)
REMARK    1  A    between atoms: N1_2  and  C2_3 
REMARK    2  A    between atoms: C2_3  and  C3_4 
REMARK    3  A    between atoms: C4_5  and  C5_6 
REMARK       I    between atoms: C5_6  and  N2_8 
REMARK    4  A    between atoms: N2_8  and  C6_9 
REMARK    5  A    between atoms: C10_14  and  C11_15 
REMARK    6  A    between atoms: C11_15  and  N3_16 
REMARK    7  A    between atoms: N3_16  and  C12_17 
ROOT
HETATM    1  C6  UNL     1      26.304   6.625  48.421  1.00  0.00     0.036 A 
HETATM    2  C7  UNL     1      24.921   6.758  48.247  1.00  0.00     0.031 A 
HETATM    3  C8  UNL     1      24.050   5.720  48.602  1.00  0.00     0.022 A 
HETATM    4  C9  UNL     1      24.630   4.577  49.124  1.00  0.00     0.019 A 
HETATM    5 BR1  UNL     1      23.430   3.159  49.609  1.00  0.00    -0.051 Br
HETATM    6  C10 UNL     1      26.017   4.460  49.291  1.00  0.00    -0.021 A 
HETATM    7  C19 UNL     1      26.859   5.488  48.938  1.00  0.00     0.039 A 
ENDROOT
BRANCH   6   8
HETATM    8  C11 UNL     1      26.461   3.155  49.847  1.00  0.00     0.155 C 
BRANCH   8   9
HETATM    9  N3  UNL     1      26.838   3.200  51.222  1.00  0.00    -0.407 N 
HETATM   10  H12 UNL     1      26.444   3.949  51.794  1.00  0.00     0.154 HD
BRANCH   9  11
HETATM   11  C12 UNL     1      26.903   1.902  51.804  1.00  0.00     0.124 C 
HETATM   12  C13 UNL     1      27.793   1.956  53.009  1.00  0.00     0.002 C 
HETATM   13  C14 UNL     1      27.992   1.191  54.094  1.00  0.00    -0.002 C 
HETATM   14  C15 UNL     1      27.237  -0.055  54.329  1.00  0.00     0.001 C 
HETATM   15  C16 UNL     1      26.019  -0.420  53.890  1.00  0.00     0.019 C 
HETATM   16  C17 UNL     1      25.171   0.437  53.031  1.00  0.00     0.009 C 
HETATM   17 BR2  UNL     1      23.298   0.040  53.249  1.00  0.00    -0.051 Br
HETATM   18  C18 UNL     1      25.555   1.382  52.184  1.00  0.00     0.021 C 
ENDBRANCH   9  11
ENDBRANCH   8   9
ENDBRANCH   6   8
BRANCH   1  19
HETATM   19  N2  UNL     1      27.025   7.777  48.000  1.00  0.00    -0.316 N 
HETATM   20  C5  UNL     1      27.111   8.689  49.096  1.00  0.00     0.301 C 
HETATM   21  O1  UNL     1      26.583   8.387  50.191  1.00  0.00    -0.258 OA
HETATM   22  H7  UNL     1      27.496   8.115  47.116  1.00  0.00     0.170 HD
BRANCH  20  23
HETATM   23  C4  UNL     1      27.771   9.964  49.056  1.00  0.00    -0.004 C 
HETATM   24  C3  UNL     1      28.324  11.037  49.002  1.00  0.00    -0.066 C 
BRANCH  24  25
HETATM   25  C2  UNL     1      29.006  12.330  48.951  1.00  0.00     0.362 C 
BRANCH  25  26
HETATM   26  N1  UNL     1      30.359  12.289  49.464  1.00  0.00     0.089 N 
HETATM   27  C1  UNL     1      31.149  11.632  48.419  1.00  0.00     0.307 C 
HETATM   28  H4  UNL     1      30.695  13.275  49.489  1.00  0.00     0.316 HD
ENDBRANCH  25  26
ENDBRANCH  24  25
ENDBRANCH  20  23
ENDBRANCH   1  19
TORSDOF 7
ENDMDL
MODEL 4
REMARK VINA RESULT:      -7.3      2.673      4.403
REMARK  7 active torsions:
REMARK  status: ('A' for Active; 'I' for Inactive)
REMARK    1  A    between atoms: N1_2  and  C2_3 
REMARK    2  A    between atoms: C2_3  and  C3_4 
REMARK    3  A    between atoms: C4_5  and  C5_6 
REMARK       I    between atoms: C5_6  and  N2_8 
REMARK    4  A    between atoms: N2_8  and  C6_9 
REMARK    5  A    between atoms: C10_14  and  C11_15 
REMARK    6  A    between atoms: C11_15  and  N3_16 
REMARK    7  A    between atoms: N3_16  and  C12_17 
ROOT
HETATM    1  C6  UNL     1      26.096   6.104  49.118  1.00  0.00     0.036 A 
HETATM    2  C7  UNL     1      25.206   6.635  48.175  1.00  0.00     0.031 A 
HETATM    3  C8  UNL     1      23.853   6.277  48.184  1.00  0.00     0.022 A 
HETATM    4  C9  UNL     1      23.456   5.382  49.163  1.00  0.00     0.019 A 
HETATM    5 BR1  UNL     1      21.599   4.896  49.170  1.00  0.00    -0.051 Br
HETATM    6  C10 UNL     1      24.359   4.860  50.100  1.00  0.00    -0.021 A 
HETATM    7  C19 UNL     1      25.686   5.222  50.077  1.00  0.00     0.039 A 
ENDROOT
BRANCH   6   8
HETATM    8  C11 UNL     1      23.760   3.900  51.063  1.00  0.00     0.155 C 
BRANCH   8   9
HETATM    9  N3  UNL     1      24.424   3.839  52.323  1.00  0.00    -0.407 N 
HETATM   10  H12 UNL     1      24.463   4.697  52.876  1.00  0.00     0.154 HD
BRANCH   9  11
HETATM   11  C12 UNL     1      24.148   2.627  53.019  1.00  0.00     0.124 C 
HETATM   12  C13 UNL     1      22.831   2.088  52.549  1.00  0.00     0.002 C 
HETATM   13  C14 UNL     1      22.209   0.899  52.586  1.00  0.00    -0.002 C 
HETATM   14  C15 UNL     1      22.822  -0.291  53.205  1.00  0.00     0.001 C 
HETATM   15  C16 UNL     1      24.119  -0.595  53.392  1.00  0.00     0.019 C 
HETATM   16  C17 UNL     1      25.231   0.288  52.972  1.00  0.00     0.009 C 
HETATM   17 BR2  UNL     1      26.844  -0.709  52.626  1.00  0.00    -0.051 Br
HETATM   18  C18 UNL     1      25.220   1.605  52.825  1.00  0.00     0.021 C 
ENDBRANCH   9  11
ENDBRANCH   8   9
ENDBRANCH   6   8
BRANCH   1  19
HETATM   19  N2  UNL     1      27.426   6.580  48.949  1.00  0.00    -0.316 N 
HETATM   20  C5  UNL     1      28.261   5.482  48.580  1.00  0.00     0.301 C 
HETATM   21  O1  UNL     1      27.762   4.338  48.468  1.00  0.00    -0.258 OA
HETATM   22  H7  UNL     1      27.933   7.504  49.023  1.00  0.00     0.170 HD
BRANCH  20  23
HETATM   23  C4  UNL     1      29.671   5.571  48.318  1.00  0.00    -0.004 C 
HETATM   24  C3  UNL     1      30.860   5.630  48.109  1.00  0.00    -0.066 C 
BRANCH  24  25
HETATM   25  C2  UNL     1      32.297   5.720  47.857  1.00  0.00     0.362 C 
BRANCH  25  26
HETATM   26  N1  UNL     1      33.059   4.651  48.468  1.00  0.00     0.089 N 
HETATM   27  C1  UNL     1      32.754   3.457  47.675  1.00  0.00     0.307 C 
HETATM   28  H4  UNL     1      34.063   4.860  48.282  1.00  0.00     0.316 HD
ENDBRANCH  25  26
ENDBRANCH  24  25
ENDBRANCH  20  23
ENDBRANCH   1  19
TORSDOF 7
ENDMDL
MODEL 5
REMARK VINA RESULT:      -7.3      4.160      8.680
REMARK  7 active torsions:
REMARK  status: ('A' for Active; 'I' for Inactive)
REMARK    1  A    between atoms: N1_2  and  C2_3 
REMARK    2  A    between atoms: C2_3  and  C3_4 
REMARK    3  A    between atoms: C4_5  and  C5_6 
REMARK       I    between atoms: C5_6  and  N2_8 
REMARK    4  A    between atoms: N2_8  and  C6_9 
REMARK    5  A    between atoms: C10_14  and  C11_15 
REMARK    6  A    between atoms: C11_15  and  N3_16 
REMARK    7  A    between atoms: N3_16  and  C12_17 
ROOT
HETATM    1  C6  UNL     1      22.147   0.483  53.299  1.00  0.00     0.036 A 
HETATM    2  C7  UNL     1      22.904  -0.667  53.558  1.00  0.00     0.031 A 
HETATM    3  C8  UNL     1      24.292  -0.670  53.366  1.00  0.00     0.022 A 
HETATM    4  C9  UNL     1      24.857   0.509  52.914  1.00  0.00     0.019 A 
HETATM    5 BR1  UNL     1      26.759   0.497  52.655  1.00  0.00    -0.051 Br
HETATM    6  C10 UNL     1      24.085   1.651  52.660  1.00  0.00    -0.021 A 
HETATM    7  C19 UNL     1      22.723   1.638  52.853  1.00  0.00     0.039 A 
ENDROOT
BRANCH   6   8
HETATM    8  C11 UNL     1      24.858   2.818  52.163  1.00  0.00     0.155 C 
BRANCH   8   9
HETATM    9  N3  UNL     1      24.698   3.080  50.770  1.00  0.00    -0.407 N 
HETATM   10  H12 UNL     1      23.788   2.873  50.354  1.00  0.00     0.154 HD
BRANCH   9  11
HETATM   11  C12 UNL     1      25.335   4.291  50.373  1.00  0.00     0.124 C 
HETATM   12  C13 UNL     1      26.612   3.956  49.664  1.00  0.00     0.002 C 
HETATM   13  C14 UNL     1      27.446   4.596  48.830  1.00  0.00    -0.002 C 
HETATM   14  C15 UNL     1      27.210   5.985  48.392  1.00  0.00     0.001 C 
HETATM   15  C16 UNL     1      26.059   6.675  48.296  1.00  0.00     0.019 C 
HETATM   16  C17 UNL     1      24.737   6.106  48.642  1.00  0.00     0.009 C 
HETATM   17 BR2  UNL     1      23.311   6.970  47.676  1.00  0.00    -0.051 Br
HETATM   18  C18 UNL     1      24.464   5.129  49.495  1.00  0.00     0.021 C 
ENDBRANCH   9  11
ENDBRANCH   8   9
ENDBRANCH   6   8
BRANCH   1  19
HETATM   19  N2  UNL     1      20.759   0.295  53.546  1.00  0.00    -0.316 N 
HETATM   20  C5  UNL     1      20.099   0.066  52.301  1.00  0.00     0.301 C 
HETATM   21  O1  UNL     1      20.767   0.065  51.241  1.00  0.00    -0.258 OA
HETATM   22  H7  UNL     1      20.117   0.281  54.386  1.00  0.00     0.170 HD
BRANCH  20  23
HETATM   23  C4  UNL     1      18.691  -0.172  52.146  1.00  0.00    -0.004 C 
HETATM   24  C3  UNL     1      17.506  -0.384  52.033  1.00  0.00    -0.066 C 
BRANCH  24  25
HETATM   25  C2  UNL     1      16.076  -0.642  51.876  1.00  0.00     0.362 C 
BRANCH  25  26
HETATM   26  N1  UNL     1      15.326  -0.501  53.106  1.00  0.00     0.089 N 
HETATM   27  C1  UNL     1      14.641   0.791  52.996  1.00  0.00     0.307 C 
HETATM   28  H4  UNL     1      14.572  -1.219  53.076  1.00  0.00     0.316 HD
ENDBRANCH  25  26
ENDBRANCH  24  25
ENDBRANCH  20  23
ENDBRANCH   1  19
TORSDOF 7
ENDMDL
MODEL 6
REMARK VINA RESULT:      -7.3      3.032      3.891
REMARK  7 active torsions:
REMARK  status: ('A' for Active; 'I' for Inactive)
REMARK    1  A    between atoms: N1_2  and  C2_3 
REMARK    2  A    between atoms: C2_3  and  C3_4 
REMARK    3  A    between atoms: C4_5  and  C5_6 
REMARK       I    between atoms: C5_6  and  N2_8 
REMARK    4  A    between atoms: N2_8  and  C6_9 
REMARK    5  A    between atoms: C10_14  and  C11_15 
REMARK    6  A    between atoms: C11_15  and  N3_16 
REMARK    7  A    between atoms: N3_16  and  C12_17 
ROOT
HETATM    1  C6  UNL     1      23.522   6.469  51.383  1.00  0.00     0.036 A 
HETATM    2  C7  UNL     1      22.302   6.900  50.847  1.00  0.00     0.031 A 
HETATM    3  C8  UNL     1      21.228   6.013  50.702  1.00  0.00     0.022 A 
HETATM    4  C9  UNL     1      21.444   4.709  51.112  1.00  0.00     0.019 A 
HETATM    5 BR1  UNL     1      19.967   3.498  50.910  1.00  0.00    -0.051 Br
HETATM    6  C10 UNL     1      22.671   4.293  51.646  1.00  0.00    -0.021 A 
HETATM    7  C19 UNL     1      23.716   5.176  51.782  1.00  0.00     0.039 A 
ENDROOT
BRANCH   6   8
HETATM    8  C11 UNL     1      22.726   2.854  52.013  1.00  0.00     0.155 C 
BRANCH   8   9
HETATM    9  N3  UNL     1      23.580   2.067  51.186  1.00  0.00    -0.407 N 
HETATM   10  H12 UNL     1      24.083   2.548  50.438  1.00  0.00     0.154 HD
BRANCH   9  11
HETATM   11  C12 UNL     1      24.299   1.089  51.930  1.00  0.00     0.124 C 
HETATM   12  C13 UNL     1      25.349   1.778  52.747  1.00  0.00     0.002 C 
HETATM   13  C14 UNL     1      26.090   1.466  53.822  1.00  0.00    -0.002 C 
HETATM   14  C15 UNL     1      25.982   0.162  54.503  1.00  0.00     0.001 C 
HETATM   15  C16 UNL     1      24.949  -0.698  54.558  1.00  0.00     0.019 C 
HETATM   16  C17 UNL     1      23.650  -0.456  53.890  1.00  0.00     0.009 C 
HETATM   17 BR2  UNL     1      22.207  -1.375  54.776  1.00  0.00    -0.051 Br
HETATM   18  C18 UNL     1      23.407   0.281  52.815  1.00  0.00     0.021 C 
ENDBRANCH   9  11
ENDBRANCH   8   9
ENDBRANCH   6   8
BRANCH   1  19
HETATM   19  N2  UNL     1      24.493   7.506  51.448  1.00  0.00    -0.316 N 
HETATM   20  C5  UNL     1      25.368   7.386  50.327  1.00  0.00     0.301 C 
HETATM   21  O1  UNL     1      25.190   6.460  49.502  1.00  0.00    -0.258 OA
HETATM   22  H7  UNL     1      24.721   8.314  52.092  1.00  0.00     0.170 HD
BRANCH  20  23
HETATM   23  C4  UNL     1      26.474   8.260  50.047  1.00  0.00    -0.004 C 
HETATM   24  C3  UNL     1      27.392   9.006  49.798  1.00  0.00    -0.066 C 
BRANCH  24  25
HETATM   25  C2  UNL     1      28.515   9.892  49.498  1.00  0.00     0.362 C 
BRANCH  25  26
HETATM   26  N1  UNL     1      29.790   9.383  49.955  1.00  0.00     0.089 N 
HETATM   27  C1  UNL     1      30.190   8.387  48.956  1.00  0.00     0.307 C 
HETATM   28  H4  UNL     1      30.473  10.165  49.857  1.00  0.00     0.316 HD
ENDBRANCH  25  26
ENDBRANCH  24  25
ENDBRANCH  20  23
ENDBRANCH   1  19
TORSDOF 7
ENDMDL
MODEL 7
REMARK VINA RESULT:      -7.3      2.825      5.323
REMARK  7 active torsions:
REMARK  status: ('A' for Active; 'I' for Inactive)
REMARK    1  A    between atoms: N1_2  and  C2_3 
REMARK    2  A    between atoms: C2_3  and  C3_4 
REMARK    3  A    between atoms: C4_5  and  C5_6 
REMARK       I    between atoms: C5_6  and  N2_8 
REMARK    4  A    between atoms: N2_8  and  C6_9 
REMARK    5  A    between atoms: C10_14  and  C11_15 
REMARK    6  A    between atoms: C11_15  and  N3_16 
REMARK    7  A    between atoms: N3_16  and  C12_17 
ROOT
HETATM    1  C6  UNL     1      27.884   6.485  48.171  1.00  0.00     0.036 A 
HETATM    2  C7  UNL     1      27.227   7.664  48.546  1.00  0.00     0.031 A 
HETATM    3  C8  UNL     1      26.110   7.625  49.390  1.00  0.00     0.022 A 
HETATM    4  C9  UNL     1      25.703   6.375  49.820  1.00  0.00     0.019 A 
HETATM    5 BR1  UNL     1      24.171   6.330  50.977  1.00  0.00    -0.051 Br
HETATM    6  C10 UNL     1      26.371   5.204  49.435  1.00  0.00    -0.021 A 
HETATM    7  C19 UNL     1      27.467   5.259  48.606  1.00  0.00     0.039 A 
ENDROOT
BRANCH   6   8
HETATM    8  C11 UNL     1      25.783   3.953  49.979  1.00  0.00     0.155 C 
BRANCH   8   9
HETATM    9  N3  UNL     1      26.610   3.274  50.921  1.00  0.00    -0.407 N 
HETATM   10  H12 UNL     1      27.434   3.770  51.266  1.00  0.00     0.154 HD
BRANCH   9  11
HETATM   11  C12 UNL     1      25.849   2.535  51.872  1.00  0.00     0.124 C 
HETATM   12  C13 UNL     1      24.427   2.465  51.404  1.00  0.00     0.002 C 
HETATM   13  C14 UNL     1      23.361   1.696  51.676  1.00  0.00    -0.002 C 
HETATM   14  C15 UNL     1      23.415   0.594  52.655  1.00  0.00     0.001 C 
HETATM   15  C16 UNL     1      24.462  -0.141  53.069  1.00  0.00     0.019 C 
HETATM   16  C17 UNL     1      25.842   0.053  52.570  1.00  0.00     0.009 C 
HETATM   17 BR2  UNL     1      26.883  -1.564  52.695  1.00  0.00    -0.051 Br
HETATM   18  C18 UNL     1      26.389   1.158  52.083  1.00  0.00     0.021 C 
ENDBRANCH   9  11
ENDBRANCH   8   9
ENDBRANCH   6   8
BRANCH   1  19
HETATM   19  N2  UNL     1      28.990   6.722  47.309  1.00  0.00    -0.316 N 
HETATM   20  C5  UNL     1      30.144   6.085  47.858  1.00  0.00     0.301 C 
HETATM   21  O1  UNL     1      30.046   5.457  48.938  1.00  0.00    -0.258 OA
HETATM   22  H7  UNL     1      29.168   7.231  46.399  1.00  0.00     0.170 HD
BRANCH  20  23
HETATM   23  C4  UNL     1      31.453   6.098  47.266  1.00  0.00    -0.004 C 
HETATM   24  C3  UNL     1      32.562   6.099  46.784  1.00  0.00    -0.066 C 
BRANCH  24  25
HETATM   25  C2  UNL     1      33.899   6.119  46.195  1.00  0.00     0.362 C 
BRANCH  25  26
HETATM   26  N1  UNL     1      34.963   6.076  47.176  1.00  0.00     0.089 N 
HETATM   27  C1  UNL     1      34.752   4.832  47.921  1.00  0.00     0.307 C 
HETATM   28  H4  UNL     1      35.849   5.936  46.645  1.00  0.00     0.316 HD
ENDBRANCH  25  26
ENDBRANCH  24  25
ENDBRANCH  20  23
ENDBRANCH   1  19
TORSDOF 7
ENDMDL
MODEL 8
REMARK VINA RESULT:      -7.1      2.577      3.754
REMARK  7 active torsions:
REMARK  status: ('A' for Active; 'I' for Inactive)
REMARK    1  A    between atoms: N1_2  and  C2_3 
REMARK    2  A    between atoms: C2_3  and  C3_4 
REMARK    3  A    between atoms: C4_5  and  C5_6 
REMARK       I    between atoms: C5_6  and  N2_8 
REMARK    4  A    between atoms: N2_8  and  C6_9 
REMARK    5  A    between atoms: C10_14  and  C11_15 
REMARK    6  A    between atoms: C11_15  and  N3_16 
REMARK    7  A    between atoms: N3_16  and  C12_17 
ROOT
HETATM    1  C6  UNL     1      25.254   5.655  49.557  1.00  0.00     0.036 A 
HETATM    2  C7  UNL     1      24.330   5.506  48.515  1.00  0.00     0.031 A 
HETATM    3  C8  UNL     1      23.073   4.933  48.747  1.00  0.00     0.022 A 
HETATM    4  C9  UNL     1      22.806   4.531  50.044  1.00  0.00     0.019 A 
HETATM    5 BR1  UNL     1      21.081   3.747  50.355  1.00  0.00    -0.051 Br
HETATM    6  C10 UNL     1      23.743   4.687  51.076  1.00  0.00    -0.021 A 
HETATM    7  C19 UNL     1      24.972   5.252  50.831  1.00  0.00     0.039 A 
ENDROOT
BRANCH   6   8
HETATM    8  C11 UNL     1      23.291   4.182  52.398  1.00  0.00     0.155 C 
BRANCH   8   9
HETATM    9  N3  UNL     1      24.346   3.760  53.258  1.00  0.00    -0.407 N 
HETATM   10  H12 UNL     1      24.276   4.010  54.246  1.00  0.00     0.154 HD
BRANCH   9  11
HETATM   11  C12 UNL     1      24.800   2.445  52.950  1.00  0.00     0.124 C 
HETATM   12  C13 UNL     1      25.962   2.114  53.836  1.00  0.00     0.002 C 
HETATM   13  C14 UNL     1      26.584   0.991  54.227  1.00  0.00    -0.002 C 
HETATM   14  C15 UNL     1      26.158  -0.346  53.771  1.00  0.00     0.001 C 
HETATM   15  C16 UNL     1      24.952  -0.770  53.353  1.00  0.00     0.019 C 
HETATM   16  C17 UNL     1      23.762   0.107  53.275  1.00  0.00     0.009 C 
HETATM   17 BR2  UNL     1      22.123  -0.894  53.443  1.00  0.00    -0.051 Br
HETATM   18  C18 UNL     1      23.723   1.422  53.111  1.00  0.00     0.021 C 
ENDBRANCH   9  11
ENDBRANCH   8   9
ENDBRANCH   6   8
BRANCH   1  19
HETATM   19  N2  UNL     1      26.473   6.250  49.130  1.00  0.00    -0.316 N 
HETATM   20  C5  UNL     1      27.408   5.214  48.827  1.00  0.00     0.301 C 
HETATM   21  O1  UNL     1      27.067   4.017  48.969  1.00  0.00    -0.258 OA
HETATM   22  H7  UNL     1      26.848   7.228  48.985  1.00  0.00     0.170 HD
BRANCH  20  23
HETATM   23  C4  UNL     1      28.750   5.426  48.359  1.00  0.00    -0.004 C 
HETATM   24  C3  UNL     1      29.877   5.623  47.971  1.00  0.00    -0.066 C 
BRANCH  24  25
HETATM   25  C2  UNL     1      31.237   5.850  47.486  1.00  0.00     0.362 C 
BRANCH  25  26
HETATM   26  N1  UNL     1      32.125   4.730  47.713  1.00  0.00     0.089 N 
HETATM   27  C1  UNL     1      33.448   5.191  47.282  1.00  0.00     0.307 C 
HETATM   28  H4  UNL     1      32.194   4.612  48.746  1.00  0.00     0.316 HD
ENDBRANCH  25  26
ENDBRANCH  24  25
ENDBRANCH  20  23
ENDBRANCH   1  19
TORSDOF 7
ENDMDL
MODEL 9
REMARK VINA RESULT:      -7.1      3.498      5.158
REMARK  7 active torsions:
REMARK  status: ('A' for Active; 'I' for Inactive)
REMARK    1  A    between atoms: N1_2  and  C2_3 
REMARK    2  A    between atoms: C2_3  and  C3_4 
REMARK    3  A    between atoms: C4_5  and  C5_6 
REMARK       I    between atoms: C5_6  and  N2_8 
REMARK    4  A    between atoms: N2_8  and  C6_9 
REMARK    5  A    between atoms: C10_14  and  C11_15 
REMARK    6  A    between atoms: C11_15  and  N3_16 
REMARK    7  A    between atoms: N3_16  and  C12_17 
ROOT
HETATM    1  C6  UNL     1      25.161   7.030  50.486  1.00  0.00     0.036 A 
HETATM    2  C7  UNL     1      24.024   7.802  50.757  1.00  0.00     0.031 A 
HETATM    3  C8  UNL     1      22.739   7.270  50.588  1.00  0.00     0.022 A 
HETATM    4  C9  UNL     1      22.664   5.962  50.143  1.00  0.00     0.019 A 
HETATM    5 BR1  UNL     1      20.900   5.240  49.914  1.00  0.00    -0.051 Br
HETATM    6  C10 UNL     1      23.813   5.203  49.875  1.00  0.00    -0.021 A 
HETATM    7  C19 UNL     1      25.067   5.740  50.047  1.00  0.00     0.039 A 
ENDROOT
BRANCH   6   8
HETATM    8  C11 UNL     1      23.540   3.826  49.389  1.00  0.00     0.155 C 
BRANCH   8   9
HETATM    9  N3  UNL     1      24.208   2.801  50.120  1.00  0.00    -0.407 N 
HETATM   10  H12 UNL     1      25.193   2.950  50.346  1.00  0.00     0.154 HD
BRANCH   9  11
HETATM   11  C12 UNL     1      23.384   2.241  51.138  1.00  0.00     0.124 C 
HETATM   12  C13 UNL     1      22.285   1.454  50.492  1.00  0.00     0.002 C 
HETATM   13  C14 UNL     1      21.430   0.494  50.882  1.00  0.00    -0.002 C 
HETATM   14  C15 UNL     1      21.424  -0.044  52.255  1.00  0.00     0.001 C 
HETATM   15  C16 UNL     1      22.415  -0.100  53.164  1.00  0.00     0.019 C 
HETATM   16  C17 UNL     1      23.781   0.412  52.912  1.00  0.00     0.009 C 
HETATM   17 BR2  UNL     1      25.096  -0.498  53.988  1.00  0.00    -0.051 Br
HETATM   18  C18 UNL     1      24.155   1.371  52.077  1.00  0.00     0.021 C 
ENDBRANCH   9  11
ENDBRANCH   8   9
ENDBRANCH   6   8
BRANCH   1  19
HETATM   19  N2  UNL     1      26.374   7.739  50.711  1.00  0.00    -0.316 N 
HETATM   20  C5  UNL     1      26.930   8.107  49.448  1.00  0.00     0.301 C 
HETATM   21  O1  UNL     1      26.335   7.784  48.395  1.00  0.00    -0.258 OA
HETATM   22  H7  UNL     1      26.945   8.050  51.544  1.00  0.00     0.170 HD
BRANCH  20  23
HETATM   23  C4  UNL     1      28.152   8.841  49.269  1.00  0.00    -0.004 C 
HETATM   24  C3  UNL     1      29.186   9.444  49.104  1.00  0.00    -0.066 C 
BRANCH  24  25
HETATM   25  C2  UNL     1      30.438  10.177  48.923  1.00  0.00     0.362 C 
BRANCH  25  26
HETATM   26  N1  UNL     1      30.581  11.306  49.819  1.00  0.00     0.089 N 
HETATM   27  C1  UNL     1      30.359  12.491  48.986  1.00  0.00     0.307 C 
HETATM   28  H4  UNL     1      29.770  11.268  50.473  1.00  0.00     0.316 HD
ENDBRANCH  25  26
ENDBRANCH  24  25
ENDBRANCH  20  23
ENDBRANCH   1  19
TORSDOF 7
ENDMDL
