MODEL 1
REMARK VINA RESULT:      -9.3      0.000      0.000
REMARK  7 active torsions:
REMARK  status: ('A' for Active; 'I' for Inactive)
REMARK    1  A    between atoms: C2_2  and  O1_3 
REMARK    2  A    between atoms: O1_3  and  C3_4 
REMARK    3  A    between atoms: C7_10  and  N3_11 
REMARK    4  A    between atoms: N3_11  and  C8_12 
REMARK    5  A    between atoms: C8_12  and  C10_14 
REMARK    6  A    between atoms: C18_22  and  N4_23 
REMARK       I    between atoms: N4_23  and  C19_24 
REMARK    7  A    between atoms: C19_24  and  C20_26 
ROOT
HETATM    1  C3  UNL     1      22.999   0.499  52.856  1.00  0.00     0.097 A 
HETATM    2  C4  UNL     1      21.882   0.639  52.064  1.00  0.00     0.071 A 
HETATM    3  C5  UNL     1      21.891   1.370  50.915  1.00  0.00     0.075 A 
HETATM    4  N1  UNL     1      20.788   1.493  50.154  1.00  0.00    -0.241 NA
HETATM    5  C6  UNL     1      20.847   2.230  49.021  1.00  0.00     0.235 A 
HETATM    6  N2  UNL     1      22.007   2.820  48.684  1.00  0.00    -0.224 NA
HETATM    7  C7  UNL     1      23.138   2.732  49.402  1.00  0.00     0.138 A 
HETATM    8  C16 UNL     1      23.073   1.981  50.555  1.00  0.00     0.041 A 
HETATM    9  C17 UNL     1      24.180   1.830  51.360  1.00  0.00     0.050 A 
HETATM   10  C18 UNL     1      24.195   1.098  52.524  1.00  0.00     0.069 A 
ENDROOT
BRANCH  10  11
HETATM   11  N4  UNL     1      25.269   0.888  53.406  1.00  0.00    -0.323 N 
HETATM   12  C19 UNL     1      26.340  -0.037  53.320  1.00  0.00     0.247 C 
HETATM   13  O2  UNL     1      26.399  -0.813  52.336  1.00  0.00    -0.271 OA
HETATM   14  H19 UNL     1      25.377   1.449  54.278  1.00  0.00     0.169 HD
BRANCH  12  15
HETATM   15  C20 UNL     1      27.435  -0.204  54.280  1.00  0.00     0.203 C 
HETATM   16  C21 UNL     1      28.741  -0.573  53.650  1.00  0.00     0.215 C 
HETATM   17  O3  UNL     1      29.309   0.678  53.331  1.00  0.00    -0.301 OA
HETATM   18  C22 UNL     1      29.059   1.503  54.442  1.00  0.00     0.361 C 
HETATM   19  O4  UNL     1      29.739   2.409  55.020  1.00  0.00    -0.238 OA
HETATM   20  N5  UNL     1      27.742   1.091  54.857  1.00  0.00    -0.321 N 
HETATM   21  H23 UNL     1      27.153   1.705  55.491  1.00  0.00     0.165 HD
ENDBRANCH  12  15
ENDBRANCH  10  11
BRANCH   1  22
HETATM   22  O1  UNL     1      22.885  -0.259  53.995  1.00  0.00    -0.349 OA
BRANCH  22  23
HETATM   23  C2  UNL     1      21.717  -0.547  54.703  1.00  0.00     0.171 C 
HETATM   24  C1  UNL     1      21.190  -1.935  54.538  1.00  0.00     0.034 C 
ENDBRANCH  22  23
ENDBRANCH   1  22
BRANCH   7  25
HETATM   25  N3  UNL     1      24.311   3.394  48.959  1.00  0.00    -0.366 N 
HETATM   26  H8  UNL     1      24.969   3.089  48.217  1.00  0.00     0.161 HD
BRANCH  25  27
HETATM   27  C8  UNL     1      24.687   4.653  49.579  1.00  0.00     0.112 C 
HETATM   28  C9  UNL     1      23.537   5.596  49.448  1.00  0.00     0.037 C 
BRANCH  27  29
HETATM   29  C10 UNL     1      25.955   5.206  49.060  1.00  0.00    -0.036 A 
HETATM   30  C11 UNL     1      27.114   4.475  48.985  1.00  0.00     0.009 A 
HETATM   31  C12 UNL     1      28.267   5.083  48.480  1.00  0.00     0.001 A 
HETATM   32  C13 UNL     1      28.289   6.412  48.046  1.00  0.00     0.000 A 
HETATM   33  C14 UNL     1      27.131   7.169  48.112  1.00  0.00     0.001 A 
HETATM   34  C15 UNL     1      26.032   6.528  48.614  1.00  0.00     0.009 A 
ENDBRANCH  27  29
ENDBRANCH  25  27
ENDBRANCH   7  25
TORSDOF 7
ENDMDL
MODEL 2
REMARK VINA RESULT:      -8.9      1.860      2.511
REMARK  7 active torsions:
REMARK  status: ('A' for Active; 'I' for Inactive)
REMARK    1  A    between atoms: C2_2  and  O1_3 
REMARK    2  A    between atoms: O1_3  and  C3_4 
REMARK    3  A    between atoms: C7_10  and  N3_11 
REMARK    4  A    between atoms: N3_11  and  C8_12 
REMARK    5  A    between atoms: C8_12  and  C10_14 
REMARK    6  A    between atoms: C18_22  and  N4_23 
REMARK       I    between atoms: N4_23  and  C19_24 
REMARK    7  A    between atoms: C19_24  and  C20_26 
ROOT
HETATM    1  C3  UNL     1      22.701   2.063  52.763  1.00  0.00     0.097 A 
HETATM    2  C4  UNL     1      21.879   3.079  52.328  1.00  0.00     0.071 A 
HETATM    3  C5  UNL     1      22.356   4.163  51.656  1.00  0.00     0.075 A 
HETATM    4  N1  UNL     1      21.535   5.145  51.239  1.00  0.00    -0.241 NA
HETATM    5  C6  UNL     1      22.057   6.202  50.574  1.00  0.00     0.235 A 
HETATM    6  N2  UNL     1      23.381   6.244  50.346  1.00  0.00    -0.224 NA
HETATM    7  C7  UNL     1      24.246   5.294  50.738  1.00  0.00     0.138 A 
HETATM    8  C16 UNL     1      23.712   4.220  51.414  1.00  0.00     0.041 A 
HETATM    9  C17 UNL     1      24.517   3.195  51.856  1.00  0.00     0.050 A 
HETATM   10  C18 UNL     1      24.060   2.092  52.538  1.00  0.00     0.069 A 
ENDROOT
BRANCH  10  11
HETATM   11  N4  UNL     1      24.800   1.002  53.025  1.00  0.00    -0.323 N 
HETATM   12  C19 UNL     1      25.894   0.983  53.927  1.00  0.00     0.247 C 
HETATM   13  O2  UNL     1      26.314   2.067  54.399  1.00  0.00    -0.271 OA
HETATM   14  H19 UNL     1      24.585   0.023  52.736  1.00  0.00     0.169 HD
BRANCH  12  15
HETATM   15  C20 UNL     1      26.624  -0.198  54.398  1.00  0.00     0.203 C 
HETATM   16  C21 UNL     1      26.741  -1.284  53.375  1.00  0.00     0.215 C 
HETATM   17  O3  UNL     1      27.910  -0.933  52.667  1.00  0.00    -0.301 OA
HETATM   18  C22 UNL     1      28.837  -0.525  53.642  1.00  0.00     0.361 C 
HETATM   19  O4  UNL     1      30.095  -0.673  53.759  1.00  0.00    -0.238 OA
HETATM   20  N5  UNL     1      28.012   0.170  54.598  1.00  0.00    -0.321 N 
HETATM   21  H23 UNL     1      28.440   0.834  55.306  1.00  0.00     0.165 HD
ENDBRANCH  12  15
ENDBRANCH  10  11
BRANCH   1  22
HETATM   22  O1  UNL     1      22.121   1.014  53.432  1.00  0.00    -0.349 OA
BRANCH  22  23
HETATM   23  C2  UNL     1      21.632  -0.171  52.882  1.00  0.00     0.171 C 
HETATM   24  C1  UNL     1      21.239  -1.224  53.867  1.00  0.00     0.034 C 
ENDBRANCH  22  23
ENDBRANCH   1  22
BRANCH   7  25
HETATM   25  N3  UNL     1      25.628   5.434  50.448  1.00  0.00    -0.366 N 
HETATM   26  H8  UNL     1      26.361   5.855  51.049  1.00  0.00     0.161 HD
BRANCH  25  27
HETATM   27  C8  UNL     1      26.135   4.949  49.177  1.00  0.00     0.112 C 
HETATM   28  C9  UNL     1      26.788   3.628  49.412  1.00  0.00     0.037 C 
BRANCH  27  29
HETATM   29  C10 UNL     1      27.012   5.917  48.487  1.00  0.00    -0.036 A 
HETATM   30  C11 UNL     1      26.557   7.108  47.978  1.00  0.00     0.009 A 
HETATM   31  C12 UNL     1      27.461   7.962  47.340  1.00  0.00     0.001 A 
HETATM   32  C13 UNL     1      28.818   7.653  47.199  1.00  0.00     0.000 A 
HETATM   33  C14 UNL     1      29.300   6.457  47.705  1.00  0.00     0.001 A 
HETATM   34  C15 UNL     1      28.375   5.658  48.319  1.00  0.00     0.009 A 
ENDBRANCH  27  29
ENDBRANCH  25  27
ENDBRANCH   7  25
TORSDOF 7
ENDMDL
MODEL 3
REMARK VINA RESULT:      -8.9      2.368      6.751
REMARK  7 active torsions:
REMARK  status: ('A' for Active; 'I' for Inactive)
REMARK    1  A    between atoms: C2_2  and  O1_3 
REMARK    2  A    between atoms: O1_3  and  C3_4 
REMARK    3  A    between atoms: C7_10  and  N3_11 
REMARK    4  A    between atoms: N3_11  and  C8_12 
REMARK    5  A    between atoms: C8_12  and  C10_14 
REMARK    6  A    between atoms: C18_22  and  N4_23 
REMARK       I    between atoms: N4_23  and  C19_24 
REMARK    7  A    between atoms: C19_24  and  C20_26 
ROOT
HETATM    1  C3  UNL     1      25.031   3.190  50.285  1.00  0.00     0.097 A 
HETATM    2  C4  UNL     1      24.122   3.304  49.257  1.00  0.00     0.071 A 
HETATM    3  C5  UNL     1      22.947   2.617  49.245  1.00  0.00     0.075 A 
HETATM    4  N1  UNL     1      22.071   2.743  48.231  1.00  0.00    -0.241 NA
HETATM    5  C6  UNL     1      20.916   2.039  48.265  1.00  0.00     0.235 A 
HETATM    6  N2  UNL     1      20.672   1.232  49.312  1.00  0.00    -0.224 NA
HETATM    7  C7  UNL     1      21.506   1.068  50.351  1.00  0.00     0.138 A 
HETATM    8  C16 UNL     1      22.681   1.786  50.312  1.00  0.00     0.041 A 
HETATM    9  C17 UNL     1      23.602   1.685  51.331  1.00  0.00     0.050 A 
HETATM   10  C18 UNL     1      24.795   2.367  51.364  1.00  0.00     0.069 A 
ENDROOT
BRANCH  10  11
HETATM   11  N4  UNL     1      25.791   2.330  52.355  1.00  0.00    -0.323 N 
HETATM   12  C19 UNL     1      26.824   1.382  52.562  1.00  0.00     0.247 C 
HETATM   13  O2  UNL     1      26.921   0.404  51.781  1.00  0.00    -0.271 OA
HETATM   14  H19 UNL     1      25.859   3.068  53.089  1.00  0.00     0.169 HD
BRANCH  12  15
HETATM   15  C20 UNL     1      27.837   1.403  53.622  1.00  0.00     0.203 C 
HETATM   16  C21 UNL     1      27.481   0.575  54.816  1.00  0.00     0.215 C 
HETATM   17  O3  UNL     1      27.970  -0.705  54.476  1.00  0.00    -0.301 OA
HETATM   18  C22 UNL     1      29.227  -0.487  53.886  1.00  0.00     0.361 C 
HETATM   19  O4  UNL     1      30.328  -1.123  53.932  1.00  0.00    -0.238 OA
HETATM   20  N5  UNL     1      29.024   0.727  53.136  1.00  0.00    -0.321 N 
HETATM   21  H23 UNL     1      29.692   1.007  52.361  1.00  0.00     0.165 HD
ENDBRANCH  12  15
ENDBRANCH  10  11
BRANCH   1  22
HETATM   22  O1  UNL     1      26.187   3.926  50.201  1.00  0.00    -0.349 OA
BRANCH  22  23
HETATM   23  C2  UNL     1      26.444   4.998  49.344  1.00  0.00     0.171 C 
HETATM   24  C1  UNL     1      27.714   4.905  48.562  1.00  0.00     0.034 C 
ENDBRANCH  22  23
ENDBRANCH   1  22
BRANCH   7  25
HETATM   25  N3  UNL     1      21.154   0.190  51.408  1.00  0.00    -0.366 N 
HETATM   26  H8  UNL     1      21.514  -0.767  51.582  1.00  0.00     0.161 HD
BRANCH  25  27
HETATM   27  C8  UNL     1      20.182   0.627  52.394  1.00  0.00     0.112 C 
HETATM   28  C9  UNL     1      20.841   0.611  53.733  1.00  0.00     0.037 C 
BRANCH  27  29
HETATM   29  C10 UNL     1      18.922  -0.142  52.357  1.00  0.00    -0.036 A 
HETATM   30  C11 UNL     1      17.932   0.089  51.435  1.00  0.00     0.009 A 
HETATM   31  C12 UNL     1      16.772  -0.689  51.477  1.00  0.00     0.001 A 
HETATM   32  C13 UNL     1      16.577  -1.700  52.424  1.00  0.00     0.000 A 
HETATM   33  C14 UNL     1      17.562  -1.952  53.363  1.00  0.00     0.001 A 
HETATM   34  C15 UNL     1      18.676  -1.162  53.280  1.00  0.00     0.009 A 
ENDBRANCH  27  29
ENDBRANCH  25  27
ENDBRANCH   7  25
TORSDOF 7
ENDMDL
MODEL 4
REMARK VINA RESULT:      -8.9      3.621      7.153
REMARK  7 active torsions:
REMARK  status: ('A' for Active; 'I' for Inactive)
REMARK    1  A    between atoms: C2_2  and  O1_3 
REMARK    2  A    between atoms: O1_3  and  C3_4 
REMARK    3  A    between atoms: C7_10  and  N3_11 
REMARK    4  A    between atoms: N3_11  and  C8_12 
REMARK    5  A    between atoms: C8_12  and  C10_14 
REMARK    6  A    between atoms: C18_22  and  N4_23 
REMARK       I    between atoms: N4_23  and  C19_24 
REMARK    7  A    between atoms: C19_24  and  C20_26 
ROOT
HETATM    1  C3  UNL     1      20.591   2.609  52.544  1.00  0.00     0.097 A 
HETATM    2  C4  UNL     1      20.367   1.480  53.299  1.00  0.00     0.071 A 
HETATM    3  C5  UNL     1      21.358   0.596  53.599  1.00  0.00     0.075 A 
HETATM    4  N1  UNL     1      21.119  -0.502  54.339  1.00  0.00    -0.241 NA
HETATM    5  C6  UNL     1      22.138  -1.350  54.610  1.00  0.00     0.235 A 
HETATM    6  N2  UNL     1      23.364  -1.074  54.132  1.00  0.00    -0.224 NA
HETATM    7  C7  UNL     1      23.661   0.004  53.390  1.00  0.00     0.138 A 
HETATM    8  C16 UNL     1      22.622   0.865  53.117  1.00  0.00     0.041 A 
HETATM    9  C17 UNL     1      22.826   2.000  52.363  1.00  0.00     0.050 A 
HETATM   10  C18 UNL     1      21.841   2.905  52.047  1.00  0.00     0.069 A 
ENDROOT
BRANCH  10  11
HETATM   11  N4  UNL     1      21.953   4.083  51.291  1.00  0.00    -0.323 N 
HETATM   12  C19 UNL     1      22.795   5.207  51.487  1.00  0.00     0.247 C 
HETATM   13  O2  UNL     1      23.582   5.216  52.464  1.00  0.00    -0.271 OA
HETATM   14  H19 UNL     1      21.371   4.243  50.440  1.00  0.00     0.169 HD
BRANCH  12  15
HETATM   15  C20 UNL     1      22.863   6.411  50.652  1.00  0.00     0.203 C 
HETATM   16  C21 UNL     1      22.528   6.169  49.214  1.00  0.00     0.215 C 
HETATM   17  O3  UNL     1      21.125   6.314  49.182  1.00  0.00    -0.301 OA
HETATM   18  C22 UNL     1      20.840   7.431  49.987  1.00  0.00     0.361 C 
HETATM   19  O4  UNL     1      19.987   8.371  49.896  1.00  0.00    -0.238 OA
HETATM   20  N5  UNL     1      21.799   7.309  51.056  1.00  0.00    -0.321 N 
HETATM   21  H23 UNL     1      21.667   7.834  51.969  1.00  0.00     0.165 HD
ENDBRANCH  12  15
ENDBRANCH  10  11
BRANCH   1  22
HETATM   22  O1  UNL     1      19.522   3.436  52.299  1.00  0.00    -0.349 OA
BRANCH  22  23
HETATM   23  C2  UNL     1      18.379   3.140  51.556  1.00  0.00     0.171 C 
HETATM   24  C1  UNL     1      18.626   2.606  50.182  1.00  0.00     0.034 C 
ENDBRANCH  22  23
ENDBRANCH   1  22
BRANCH   7  25
HETATM   25  N3  UNL     1      24.989   0.203  52.933  1.00  0.00    -0.366 N 
HETATM   26  H8  UNL     1      25.354   0.074  51.971  1.00  0.00     0.161 HD
BRANCH  25  27
HETATM   27  C8  UNL     1      26.002   0.641  53.878  1.00  0.00     0.112 C 
HETATM   28  C9  UNL     1      26.082   2.130  53.815  1.00  0.00     0.037 C 
BRANCH  27  29
HETATM   29  C10 UNL     1      27.309  -0.020  53.685  1.00  0.00    -0.036 A 
HETATM   30  C11 UNL     1      27.437  -1.288  53.175  1.00  0.00     0.009 A 
HETATM   31  C12 UNL     1      28.716  -1.833  53.028  1.00  0.00     0.001 A 
HETATM   32  C13 UNL     1      29.876  -1.137  53.381  1.00  0.00     0.000 A 
HETATM   33  C14 UNL     1      29.772   0.144  53.897  1.00  0.00     0.001 A 
HETATM   34  C15 UNL     1      28.499   0.631  54.021  1.00  0.00     0.009 A 
ENDBRANCH  27  29
ENDBRANCH  25  27
ENDBRANCH   7  25
TORSDOF 7
ENDMDL
MODEL 5
REMARK VINA RESULT:      -8.8      2.165      6.288
REMARK  7 active torsions:
REMARK  status: ('A' for Active; 'I' for Inactive)
REMARK    1  A    between atoms: C2_2  and  O1_3 
REMARK    2  A    between atoms: O1_3  and  C3_4 
REMARK    3  A    between atoms: C7_10  and  N3_11 
REMARK    4  A    between atoms: N3_11  and  C8_12 
REMARK    5  A    between atoms: C8_12  and  C10_14 
REMARK    6  A    between atoms: C18_22  and  N4_23 
REMARK       I    between atoms: N4_23  and  C19_24 
REMARK    7  A    between atoms: C19_24  and  C20_26 
ROOT
HETATM    1  C3  UNL     1      24.843   4.064  50.392  1.00  0.00     0.097 A 
HETATM    2  C4  UNL     1      23.853   4.919  49.962  1.00  0.00     0.071 A 
HETATM    3  C5  UNL     1      22.548   4.757  50.317  1.00  0.00     0.075 A 
HETATM    4  N1  UNL     1      21.595   5.604  49.887  1.00  0.00    -0.241 NA
HETATM    5  C6  UNL     1      20.312   5.401  50.267  1.00  0.00     0.235 A 
HETATM    6  N2  UNL     1      20.022   4.359  51.066  1.00  0.00    -0.224 NA
HETATM    7  C7  UNL     1      20.930   3.484  51.525  1.00  0.00     0.138 A 
HETATM    8  C16 UNL     1      22.235   3.693  51.136  1.00  0.00     0.041 A 
HETATM    9  C17 UNL     1      23.239   2.850  51.555  1.00  0.00     0.050 A 
HETATM   10  C18 UNL     1      24.562   2.992  51.210  1.00  0.00     0.069 A 
ENDROOT
BRANCH  10  11
HETATM   11  N4  UNL     1      25.651   2.187  51.586  1.00  0.00    -0.323 N 
HETATM   12  C19 UNL     1      26.184   1.934  52.875  1.00  0.00     0.247 C 
HETATM   13  O2  UNL     1      25.653   2.478  53.873  1.00  0.00    -0.271 OA
HETATM   14  H19 UNL     1      26.209   1.659  50.880  1.00  0.00     0.169 HD
BRANCH  12  15
HETATM   15  C20 UNL     1      27.329   1.077  53.199  1.00  0.00     0.203 C 
HETATM   16  C21 UNL     1      27.247   0.445  54.553  1.00  0.00     0.215 C 
HETATM   17  O3  UNL     1      26.521  -0.741  54.310  1.00  0.00    -0.301 OA
HETATM   18  C22 UNL     1      27.039  -1.265  53.113  1.00  0.00     0.361 C 
HETATM   19  O4  UNL     1      27.269  -2.451  52.713  1.00  0.00    -0.238 OA
HETATM   20  N5  UNL     1      27.295  -0.083  52.329  1.00  0.00    -0.321 N 
HETATM   21  H23 UNL     1      27.426  -0.144  51.278  1.00  0.00     0.165 HD
ENDBRANCH  12  15
ENDBRANCH  10  11
BRANCH   1  22
HETATM   22  O1  UNL     1      26.128   4.315  49.977  1.00  0.00    -0.349 OA
BRANCH  22  23
HETATM   23  C2  UNL     1      26.533   5.194  48.971  1.00  0.00     0.171 C 
HETATM   24  C1  UNL     1      27.972   5.102  48.579  1.00  0.00     0.034 C 
ENDBRANCH  22  23
ENDBRANCH   1  22
BRANCH   7  25
HETATM   25  N3  UNL     1      20.521   2.415  52.363  1.00  0.00    -0.366 N 
HETATM   26  H8  UNL     1      20.134   2.476  53.324  1.00  0.00     0.161 HD
BRANCH  25  27
HETATM   27  C8  UNL     1      20.632   1.052  51.873  1.00  0.00     0.112 C 
HETATM   28  C9  UNL     1      19.306   0.650  51.318  1.00  0.00     0.037 C 
BRANCH  27  29
HETATM   29  C10 UNL     1      21.151   0.106  52.883  1.00  0.00    -0.036 A 
HETATM   30  C11 UNL     1      20.337  -0.705  53.633  1.00  0.00     0.009 A 
HETATM   31  C12 UNL     1      20.918  -1.569  54.567  1.00  0.00     0.001 A 
HETATM   32  C13 UNL     1      22.300  -1.642  54.768  1.00  0.00     0.000 A 
HETATM   33  C14 UNL     1      23.140  -0.832  54.022  1.00  0.00     0.001 A 
HETATM   34  C15 UNL     1      22.522  -0.005  53.124  1.00  0.00     0.009 A 
ENDBRANCH  27  29
ENDBRANCH  25  27
ENDBRANCH   7  25
TORSDOF 7
ENDMDL
MODEL 6
REMARK VINA RESULT:      -8.7      4.061      7.135
REMARK  7 active torsions:
REMARK  status: ('A' for Active; 'I' for Inactive)
REMARK    1  A    between atoms: C2_2  and  O1_3 
REMARK    2  A    between atoms: O1_3  and  C3_4 
REMARK    3  A    between atoms: C7_10  and  N3_11 
REMARK    4  A    between atoms: N3_11  and  C8_12 
REMARK    5  A    between atoms: C8_12  and  C10_14 
REMARK    6  A    between atoms: C18_22  and  N4_23 
REMARK       I    between atoms: N4_23  and  C19_24 
REMARK    7  A    between atoms: C19_24  and  C20_26 
ROOT
HETATM    1  C3  UNL     1      19.972   0.533  52.253  1.00  0.00     0.097 A 
HETATM    2  C4  UNL     1      20.153  -0.263  53.362  1.00  0.00     0.071 A 
HETATM    3  C5  UNL     1      21.389  -0.547  53.859  1.00  0.00     0.075 A 
HETATM    4  N1  UNL     1      21.545  -1.327  54.945  1.00  0.00    -0.241 NA
HETATM    5  C6  UNL     1      22.793  -1.580  55.401  1.00  0.00     0.235 A 
HETATM    6  N2  UNL     1      23.846  -1.046  54.759  1.00  0.00    -0.224 NA
HETATM    7  C7  UNL     1      23.751  -0.262  53.673  1.00  0.00     0.138 A 
HETATM    8  C16 UNL     1      22.479  -0.006  53.211  1.00  0.00     0.041 A 
HETATM    9  C17 UNL     1      22.277   0.787  52.104  1.00  0.00     0.050 A 
HETATM   10  C18 UNL     1      21.040   1.087  51.583  1.00  0.00     0.069 A 
ENDROOT
BRANCH  10  11
HETATM   11  N4  UNL     1      20.737   1.882  50.466  1.00  0.00    -0.323 N 
HETATM   12  C19 UNL     1      20.984   1.641  49.091  1.00  0.00     0.247 C 
HETATM   13  O2  UNL     1      21.557   0.577  48.751  1.00  0.00    -0.271 OA
HETATM   14  H19 UNL     1      20.258   2.803  50.565  1.00  0.00     0.169 HD
BRANCH  12  15
HETATM   15  C20 UNL     1      20.638   2.518  47.968  1.00  0.00     0.203 C 
HETATM   16  C21 UNL     1      19.869   3.738  48.369  1.00  0.00     0.215 C 
HETATM   17  O3  UNL     1      20.882   4.666  48.688  1.00  0.00    -0.301 OA
HETATM   18  C22 UNL     1      21.860   4.520  47.689  1.00  0.00     0.361 C 
HETATM   19  O4  UNL     1      22.610   5.348  47.081  1.00  0.00    -0.238 OA
HETATM   20  N5  UNL     1      21.860   3.099  47.446  1.00  0.00    -0.321 N 
HETATM   21  H23 UNL     1      22.673   2.630  46.952  1.00  0.00     0.165 HD
ENDBRANCH  12  15
ENDBRANCH  10  11
BRANCH   1  22
HETATM   22  O1  UNL     1      18.684   0.757  51.832  1.00  0.00    -0.349 OA
BRANCH  22  23
HETATM   23  C2  UNL     1      17.829  -0.153  51.211  1.00  0.00     0.171 C 
HETATM   24  C1  UNL     1      16.887  -0.874  52.120  1.00  0.00     0.034 C 
ENDBRANCH  22  23
ENDBRANCH   1  22
BRANCH   7  25
HETATM   25  N3  UNL     1      24.926   0.252  53.067  1.00  0.00    -0.366 N 
HETATM   26  H8  UNL     1      25.175   0.244  52.060  1.00  0.00     0.161 HD
BRANCH  25  27
HETATM   27  C8  UNL     1      25.936   0.877  53.904  1.00  0.00     0.112 C 
HETATM   28  C9  UNL     1      25.899   2.348  53.653  1.00  0.00     0.037 C 
BRANCH  27  29
HETATM   29  C10 UNL     1      27.282   0.292  53.735  1.00  0.00    -0.036 A 
HETATM   30  C11 UNL     1      28.435   0.969  54.044  1.00  0.00     0.009 A 
HETATM   31  C12 UNL     1      29.665   0.334  53.851  1.00  0.00     0.001 A 
HETATM   32  C13 UNL     1      29.771  -0.969  53.354  1.00  0.00     0.000 A 
HETATM   33  C14 UNL     1      28.621  -1.671  53.036  1.00  0.00     0.001 A 
HETATM   34  C15 UNL     1      27.443  -1.006  53.242  1.00  0.00     0.009 A 
ENDBRANCH  27  29
ENDBRANCH  25  27
ENDBRANCH   7  25
TORSDOF 7
ENDMDL
MODEL 7
REMARK VINA RESULT:      -8.5      2.902      8.265
REMARK  7 active torsions:
REMARK  status: ('A' for Active; 'I' for Inactive)
REMARK    1  A    between atoms: C2_2  and  O1_3 
REMARK    2  A    between atoms: O1_3  and  C3_4 
REMARK    3  A    between atoms: C7_10  and  N3_11 
REMARK    4  A    between atoms: N3_11  and  C8_12 
REMARK    5  A    between atoms: C8_12  and  C10_14 
REMARK    6  A    between atoms: C18_22  and  N4_23 
REMARK       I    between atoms: N4_23  and  C19_24 
REMARK    7  A    between atoms: C19_24  and  C20_26 
ROOT
HETATM    1  C3  UNL     1      25.940   3.061  50.829  1.00  0.00     0.097 A 
HETATM    2  C4  UNL     1      26.913   2.514  51.634  1.00  0.00     0.071 A 
HETATM    3  C5  UNL     1      26.686   1.418  52.409  1.00  0.00     0.075 A 
HETATM    4  N1  UNL     1      27.652   0.898  53.188  1.00  0.00    -0.241 NA
HETATM    5  C6  UNL     1      27.377  -0.193  53.940  1.00  0.00     0.235 A 
HETATM    6  N2  UNL     1      26.146  -0.730  53.889  1.00  0.00    -0.224 NA
HETATM    7  C7  UNL     1      25.145  -0.256  53.131  1.00  0.00     0.138 A 
HETATM    8  C16 UNL     1      25.428   0.855  52.367  1.00  0.00     0.041 A 
HETATM    9  C17 UNL     1      24.468   1.416  51.556  1.00  0.00     0.050 A 
HETATM   10  C18 UNL     1      24.673   2.523  50.766  1.00  0.00     0.069 A 
ENDROOT
BRANCH  10  11
HETATM   11  N4  UNL     1      23.760   3.162  49.911  1.00  0.00    -0.323 N 
HETATM   12  C19 UNL     1      22.709   4.061  50.221  1.00  0.00     0.247 C 
HETATM   13  O2  UNL     1      22.507   4.374  51.419  1.00  0.00    -0.271 OA
HETATM   14  H19 UNL     1      23.785   3.015  48.878  1.00  0.00     0.169 HD
BRANCH  12  15
HETATM   15  C20 UNL     1      21.789   4.697  49.273  1.00  0.00     0.203 C 
HETATM   16  C21 UNL     1      22.263   4.663  47.854  1.00  0.00     0.215 C 
HETATM   17  O3  UNL     1      21.777   3.425  47.382  1.00  0.00    -0.301 OA
HETATM   18  C22 UNL     1      20.470   3.313  47.887  1.00  0.00     0.361 C 
HETATM   19  O4  UNL     1      19.392   2.841  47.404  1.00  0.00    -0.238 OA
HETATM   20  N5  UNL     1      20.581   3.898  49.199  1.00  0.00    -0.321 N 
HETATM   21  H23 UNL     1      19.843   3.718  49.940  1.00  0.00     0.165 HD
ENDBRANCH  12  15
ENDBRANCH  10  11
BRANCH   1  22
HETATM   22  O1  UNL     1      26.271   4.168  50.087  1.00  0.00    -0.349 OA
BRANCH  22  23
HETATM   23  C2  UNL     1      27.189   4.236  49.038  1.00  0.00     0.171 C 
HETATM   24  C1  UNL     1      27.557   5.614  48.593  1.00  0.00     0.034 C 
ENDBRANCH  22  23
ENDBRANCH   1  22
BRANCH   7  25
HETATM   25  N3  UNL     1      23.879  -0.896  53.149  1.00  0.00    -0.366 N 
HETATM   26  H8  UNL     1      23.581  -1.725  52.602  1.00  0.00     0.161 HD
BRANCH  25  27
HETATM   27  C8  UNL     1      22.837  -0.376  54.017  1.00  0.00     0.112 C 
HETATM   28  C9  UNL     1      22.828  -1.188  55.269  1.00  0.00     0.037 C 
BRANCH  27  29
HETATM   29  C10 UNL     1      21.514  -0.298  53.364  1.00  0.00    -0.036 A 
HETATM   30  C11 UNL     1      20.375  -0.823  53.920  1.00  0.00     0.009 A 
HETATM   31  C12 UNL     1      19.166  -0.703  53.228  1.00  0.00     0.001 A 
HETATM   32  C13 UNL     1      19.069  -0.066  51.987  1.00  0.00     0.000 A 
HETATM   33  C14 UNL     1      20.205   0.472  51.407  1.00  0.00     0.001 A 
HETATM   34  C15 UNL     1      21.362   0.327  52.123  1.00  0.00     0.009 A 
ENDBRANCH  27  29
ENDBRANCH  25  27
ENDBRANCH   7  25
TORSDOF 7
ENDMDL
MODEL 8
REMARK VINA RESULT:      -8.4      3.265      7.616
REMARK  7 active torsions:
REMARK  status: ('A' for Active; 'I' for Inactive)
REMARK    1  A    between atoms: C2_2  and  O1_3 
REMARK    2  A    between atoms: O1_3  and  C3_4 
REMARK    3  A    between atoms: C7_10  and  N3_11 
REMARK    4  A    between atoms: N3_11  and  C8_12 
REMARK    5  A    between atoms: C8_12  and  C10_14 
REMARK    6  A    between atoms: C18_22  and  N4_23 
REMARK       I    between atoms: N4_23  and  C19_24 
REMARK    7  A    between atoms: C19_24  and  C20_26 
ROOT
HETATM    1  C3  UNL     1      26.136   1.290  52.867  1.00  0.00     0.097 A 
HETATM    2  C4  UNL     1      25.863   0.269  53.749  1.00  0.00     0.071 A 
HETATM    3  C5  UNL     1      24.591  -0.105  54.059  1.00  0.00     0.075 A 
HETATM    4  N1  UNL     1      24.347  -1.107  54.924  1.00  0.00    -0.241 NA
HETATM    5  C6  UNL     1      23.065  -1.442  55.200  1.00  0.00     0.235 A 
HETATM    6  N2  UNL     1      22.068  -0.765  54.603  1.00  0.00    -0.224 NA
HETATM    7  C7  UNL     1      22.252   0.241  53.734  1.00  0.00     0.138 A 
HETATM    8  C16 UNL     1      23.558   0.579  53.455  1.00  0.00     0.041 A 
HETATM    9  C17 UNL     1      23.850   1.597  52.576  1.00  0.00     0.050 A 
HETATM   10  C18 UNL     1      25.125   1.993  52.248  1.00  0.00     0.069 A 
ENDROOT
BRANCH  10  11
HETATM   11  N4  UNL     1      25.520   3.014  51.366  1.00  0.00    -0.323 N 
HETATM   12  C19 UNL     1      24.928   3.435  50.149  1.00  0.00     0.247 C 
HETATM   13  O2  UNL     1      23.897   2.851  49.738  1.00  0.00    -0.271 OA
HETATM   14  H19 UNL     1      26.360   3.603  51.555  1.00  0.00     0.169 HD
BRANCH  12  15
HETATM   15  C20 UNL     1      25.394   4.515  49.273  1.00  0.00     0.203 C 
HETATM   16  C21 UNL     1      24.296   5.393  48.760  1.00  0.00     0.215 C 
HETATM   17  O3  UNL     1      24.165   6.368  49.772  1.00  0.00    -0.301 OA
HETATM   18  C22 UNL     1      25.477   6.709  50.143  1.00  0.00     0.361 C 
HETATM   19  O4  UNL     1      26.026   7.806  50.477  1.00  0.00    -0.238 OA
HETATM   20  N5  UNL     1      26.170   5.447  50.068  1.00  0.00    -0.321 N 
HETATM   21  H23 UNL     1      27.104   5.309  50.551  1.00  0.00     0.165 HD
ENDBRANCH  12  15
ENDBRANCH  10  11
BRANCH   1  22
HETATM   22  O1  UNL     1      27.453   1.589  52.622  1.00  0.00    -0.349 OA
BRANCH  22  23
HETATM   23  C2  UNL     1      28.433   1.912  53.561  1.00  0.00     0.171 C 
HETATM   24  C1  UNL     1      29.435   0.839  53.841  1.00  0.00     0.034 C 
ENDBRANCH  22  23
ENDBRANCH   1  22
BRANCH   7  25
HETATM   25  N3  UNL     1      21.131   0.892  53.159  1.00  0.00    -0.366 N 
HETATM   26  H8  UNL     1      20.646   1.741  53.504  1.00  0.00     0.161 HD
BRANCH  25  27
HETATM   27  C8  UNL     1      20.550   0.354  51.941  1.00  0.00     0.112 C 
HETATM   28  C9  UNL     1      20.623   1.409  50.887  1.00  0.00     0.037 C 
BRANCH  27  29
HETATM   29  C10 UNL     1      19.189  -0.187  52.130  1.00  0.00    -0.036 A 
HETATM   30  C11 UNL     1      18.815  -0.898  53.242  1.00  0.00     0.009 A 
HETATM   31  C12 UNL     1      17.503  -1.373  53.334  1.00  0.00     0.001 A 
HETATM   32  C13 UNL     1      16.551  -1.151  52.334  1.00  0.00     0.000 A 
HETATM   33  C14 UNL     1      16.905  -0.436  51.203  1.00  0.00     0.001 A 
HETATM   34  C15 UNL     1      18.200   0.005  51.161  1.00  0.00     0.009 A 
ENDBRANCH  27  29
ENDBRANCH  25  27
ENDBRANCH   7  25
TORSDOF 7
ENDMDL
MODEL 9
REMARK VINA RESULT:      -8.4      2.394      4.084
REMARK  7 active torsions:
REMARK  status: ('A' for Active; 'I' for Inactive)
REMARK    1  A    between atoms: C2_2  and  O1_3 
REMARK    2  A    between atoms: O1_3  and  C3_4 
REMARK    3  A    between atoms: C7_10  and  N3_11 
REMARK    4  A    between atoms: N3_11  and  C8_12 
REMARK    5  A    between atoms: C8_12  and  C10_14 
REMARK    6  A    between atoms: C18_22  and  N4_23 
REMARK       I    between atoms: N4_23  and  C19_24 
REMARK    7  A    between atoms: C19_24  and  C20_26 
ROOT
HETATM    1  C3  UNL     1      23.719   3.079  49.979  1.00  0.00     0.097 A 
HETATM    2  C4  UNL     1      23.183   4.006  49.114  1.00  0.00     0.071 A 
HETATM    3  C5  UNL     1      23.880   5.097  48.693  1.00  0.00     0.075 A 
HETATM    4  N1  UNL     1      23.338   5.992  47.846  1.00  0.00    -0.241 NA
HETATM    5  C6  UNL     1      24.071   7.060  47.457  1.00  0.00     0.235 A 
HETATM    6  N2  UNL     1      25.323   7.201  47.926  1.00  0.00    -0.224 NA
HETATM    7  C7  UNL     1      25.915   6.342  48.771  1.00  0.00     0.138 A 
HETATM    8  C16 UNL     1      25.166   5.256  49.165  1.00  0.00     0.041 A 
HETATM    9  C17 UNL     1      25.685   4.318  50.029  1.00  0.00     0.050 A 
HETATM   10  C18 UNL     1      25.001   3.210  50.469  1.00  0.00     0.069 A 
ENDROOT
BRANCH  10  11
HETATM   11  N4  UNL     1      25.444   2.204  51.344  1.00  0.00    -0.323 N 
HETATM   12  C19 UNL     1      25.223   2.056  52.736  1.00  0.00     0.247 C 
HETATM   13  O2  UNL     1      24.537   2.916  53.340  1.00  0.00    -0.271 OA
HETATM   14  H19 UNL     1      26.028   1.407  51.008  1.00  0.00     0.169 HD
BRANCH  12  15
HETATM   15  C20 UNL     1      25.717   0.974  53.594  1.00  0.00     0.203 C 
HETATM   16  C21 UNL     1      26.519  -0.057  52.865  1.00  0.00     0.215 C 
HETATM   17  O3  UNL     1      27.828   0.470  52.900  1.00  0.00    -0.301 OA
HETATM   18  C22 UNL     1      27.999   0.975  54.200  1.00  0.00     0.361 C 
HETATM   19  O4  UNL     1      28.990   0.998  54.998  1.00  0.00    -0.238 OA
HETATM   20  N5  UNL     1      26.702   1.525  54.505  1.00  0.00    -0.321 N 
HETATM   21  H23 UNL     1      26.577   2.222  55.295  1.00  0.00     0.165 HD
ENDBRANCH  12  15
ENDBRANCH  10  11
BRANCH   1  22
HETATM   22  O1  UNL     1      22.933   2.014  50.342  1.00  0.00    -0.349 OA
BRANCH  22  23
HETATM   23  C2  UNL     1      21.796   2.041  51.151  1.00  0.00     0.171 C 
HETATM   24  C1  UNL     1      21.689   0.934  52.149  1.00  0.00     0.034 C 
ENDBRANCH  22  23
ENDBRANCH   1  22
BRANCH   7  25
HETATM   25  N3  UNL     1      27.243   6.582  49.208  1.00  0.00    -0.366 N 
HETATM   26  H8  UNL     1      27.573   6.730  50.180  1.00  0.00     0.161 HD
BRANCH  25  27
HETATM   27  C8  UNL     1      28.310   6.638  48.224  1.00  0.00     0.112 C 
HETATM   28  C9  UNL     1      29.034   5.333  48.250  1.00  0.00     0.037 C 
BRANCH  27  29
HETATM   29  C10 UNL     1      29.204   7.802  48.394  1.00  0.00    -0.036 A 
HETATM   30  C11 UNL     1      28.880   8.887  49.170  1.00  0.00     0.009 A 
HETATM   31  C12 UNL     1      29.789   9.944  49.271  1.00  0.00     0.001 A 
HETATM   32  C13 UNL     1      31.022   9.942  48.612  1.00  0.00     0.000 A 
HETATM   33  C14 UNL     1      31.372   8.858  47.824  1.00  0.00     0.001 A 
HETATM   34  C15 UNL     1      30.447   7.851  47.758  1.00  0.00     0.009 A 
ENDBRANCH  27  29
ENDBRANCH  25  27
ENDBRANCH   7  25
TORSDOF 7
ENDMDL
