MODEL 1
REMARK VINA RESULT:      -7.7      0.000      0.000
REMARK  6 active torsions:
REMARK  status: ('A' for Active; 'I' for Inactive)
REMARK    1  A    between atoms: C2_2  and  C3_3 
REMARK       I    between atoms: C3_3  and  N1_5 
REMARK    2  A    between atoms: N1_5  and  C4_6 
REMARK    3  A    between atoms: C8_10  and  N2_11 
REMARK    4  A    between atoms: N2_11  and  C9_12 
REMARK    5  A    between atoms: C10_14  and  N4_15 
REMARK    6  A    between atoms: C12_19  and  C13_20 
ROOT
HETATM    1  N2  UNL     1      22.660   0.553  51.814  1.00  0.00    -0.340 N 
HETATM    2  H8  UNL     1      22.760   0.020  50.938  1.00  0.00     0.167 HD
ENDROOT
BRANCH   1   3
HETATM    3  C8  UNL     1      23.144  -0.023  53.021  1.00  0.00     0.035 A 
HETATM    4  C7  UNL     1      22.331  -0.448  54.046  1.00  0.00     0.029 A 
HETATM    5  C6  UNL     1      22.770  -1.016  55.215  1.00  0.00     0.004 A 
HETATM    6  C5  UNL     1      24.121  -1.183  55.399  1.00  0.00     0.029 A 
HETATM    7  C4  UNL     1      24.971  -0.771  54.395  1.00  0.00     0.037 A 
HETATM    8  C15 UNL     1      24.516  -0.203  53.227  1.00  0.00     0.059 A 
BRANCH   7   9
HETATM    9  N1  UNL     1      26.401  -0.902  54.490  1.00  0.00    -0.324 N 
HETATM   10  C3  UNL     1      27.100   0.311  54.642  1.00  0.00     0.244 C 
HETATM   11  O1  UNL     1      26.966   1.545  54.733  1.00  0.00    -0.268 OA
HETATM   12  H4  UNL     1      26.983  -1.767  54.462  1.00  0.00     0.169 HD
BRANCH  10  13
HETATM   13  C2  UNL     1      28.557   0.322  54.750  1.00  0.00     0.064 C 
HETATM   14  C1  UNL     1      29.279  -0.414  53.932  1.00  0.00     0.017 C 
ENDBRANCH  10  13
ENDBRANCH   7   9
ENDBRANCH   1   3
BRANCH   1  15
HETATM   15  C9  UNL     1      22.076   1.845  51.979  1.00  0.00     0.161 A 
HETATM   16  N3  UNL     1      23.025   2.774  52.265  1.00  0.00    -0.042 NA
HETATM   17  C10 UNL     1      22.688   4.049  52.462  1.00  0.00     0.751 A 
HETATM   18  N5  UNL     1      21.397   4.415  52.377  1.00  0.00    -0.072 NA
HETATM   19  C11 UNL     1      20.445   3.510  52.096  1.00  0.00     0.153 A 
HETATM   20  C12 UNL     1      20.747   2.191  51.886  1.00  0.00     0.077 A 
BRANCH  17  21
HETATM   21  N4  UNL     1      23.692   5.037  52.763  1.00  0.00    -0.050 N 
HETATM   22  F1  UNL     1      23.931   5.257  54.069  1.00  0.00    -0.086 F 
HETATM   23  H9  UNL     1      24.190   5.537  52.003  1.00  0.00     0.219 HD
ENDBRANCH  17  21
BRANCH  20  24
HETATM   24  C13 UNL     1      19.802   1.115  51.575  1.00  0.00     0.272 C 
HETATM   25  C14 UNL     1      18.428   1.736  51.408  1.00  0.00     0.096 C 
HETATM   26  F2  UNL     1      19.701   0.260  52.667  1.00  0.00    -0.201 F 
HETATM   27  F3  UNL     1      20.215   0.456  50.458  1.00  0.00    -0.201 F 
ENDBRANCH  20  24
ENDBRANCH   1  15
TORSDOF 6
ENDMDL
MODEL 2
REMARK VINA RESULT:      -7.6      3.328      5.563
REMARK  6 active torsions:
REMARK  status: ('A' for Active; 'I' for Inactive)
REMARK    1  A    between atoms: C2_2  and  C3_3 
REMARK       I    between atoms: C3_3  and  N1_5 
REMARK    2  A    between atoms: N1_5  and  C4_6 
REMARK    3  A    between atoms: C8_10  and  N2_11 
REMARK    4  A    between atoms: N2_11  and  C9_12 
REMARK    5  A    between atoms: C10_14  and  N4_15 
REMARK    6  A    between atoms: C12_19  and  C13_20 
ROOT
HETATM    1  N2  UNL     1      23.670   0.308  52.052  1.00  0.00    -0.340 N 
HETATM    2  H8  UNL     1      23.374  -0.228  51.224  1.00  0.00     0.167 HD
ENDROOT
BRANCH   1   3
HETATM    3  C8  UNL     1      23.737   1.725  51.958  1.00  0.00     0.035 A 
HETATM    4  C7  UNL     1      22.785   2.572  52.474  1.00  0.00     0.029 A 
HETATM    5  C6  UNL     1      22.830   3.942  52.405  1.00  0.00     0.004 A 
HETATM    6  C5  UNL     1      23.898   4.535  51.779  1.00  0.00     0.029 A 
HETATM    7  C4  UNL     1      24.876   3.722  51.248  1.00  0.00     0.037 A 
HETATM    8  C15 UNL     1      24.818   2.349  51.324  1.00  0.00     0.059 A 
BRANCH   7   9
HETATM    9  N1  UNL     1      26.034   4.244  50.573  1.00  0.00    -0.324 N 
HETATM   10  C3  UNL     1      25.757   5.028  49.436  1.00  0.00     0.244 C 
HETATM   11  O1  UNL     1      24.841   5.483  48.728  1.00  0.00    -0.268 OA
HETATM   12  H4  UNL     1      27.043   4.122  50.811  1.00  0.00     0.169 HD
BRANCH  10  13
HETATM   13  C2  UNL     1      26.841   5.619  48.657  1.00  0.00     0.064 C 
HETATM   14  C1  UNL     1      27.987   4.983  48.542  1.00  0.00     0.017 C 
ENDBRANCH  10  13
ENDBRANCH   7   9
ENDBRANCH   1   3
BRANCH   1  15
HETATM   15  C9  UNL     1      24.036  -0.208  53.332  1.00  0.00     0.161 A 
HETATM   16  N3  UNL     1      25.361  -0.028  53.568  1.00  0.00    -0.042 NA
HETATM   17  C10 UNL     1      25.910  -0.446  54.710  1.00  0.00     0.751 A 
HETATM   18  N5  UNL     1      25.140  -1.050  55.633  1.00  0.00    -0.072 NA
HETATM   19  C11 UNL     1      23.828  -1.235  55.417  1.00  0.00     0.153 A 
HETATM   20  C12 UNL     1      23.224  -0.822  54.259  1.00  0.00     0.077 A 
BRANCH  17  21
HETATM   21  N4  UNL     1      27.313  -0.256  54.965  1.00  0.00    -0.050 N 
HETATM   22  F1  UNL     1      28.128  -0.376  53.900  1.00  0.00    -0.086 F 
HETATM   23  H9  UNL     1      27.656  -0.038  55.919  1.00  0.00     0.219 HD
ENDBRANCH  17  21
BRANCH  20  24
HETATM   24  C13 UNL     1      21.809  -0.969  53.908  1.00  0.00     0.272 C 
HETATM   25  C14 UNL     1      21.047   0.167  54.565  1.00  0.00     0.096 C 
HETATM   26  F2  UNL     1      21.311  -2.137  54.475  1.00  0.00    -0.201 F 
HETATM   27  F3  UNL     1      21.674  -0.971  52.554  1.00  0.00    -0.201 F 
ENDBRANCH  20  24
ENDBRANCH   1  15
TORSDOF 6
ENDMDL
MODEL 3
REMARK VINA RESULT:      -7.5      1.573      3.287
REMARK  6 active torsions:
REMARK  status: ('A' for Active; 'I' for Inactive)
REMARK    1  A    between atoms: C2_2  and  C3_3 
REMARK       I    between atoms: C3_3  and  N1_5 
REMARK    2  A    between atoms: N1_5  and  C4_6 
REMARK    3  A    between atoms: C8_10  and  N2_11 
REMARK    4  A    between atoms: N2_11  and  C9_12 
REMARK    5  A    between atoms: C10_14  and  N4_15 
REMARK    6  A    between atoms: C12_19  and  C13_20 
ROOT
HETATM    1  N2  UNL     1      22.758   0.594  51.728  1.00  0.00    -0.340 N 
HETATM    2  H8  UNL     1      23.178   0.293  50.836  1.00  0.00     0.167 HD
ENDROOT
BRANCH   1   3
HETATM    3  C8  UNL     1      23.216  -0.006  52.933  1.00  0.00     0.035 A 
HETATM    4  C7  UNL     1      22.382  -0.454  53.930  1.00  0.00     0.029 A 
HETATM    5  C6  UNL     1      22.796  -1.045  55.097  1.00  0.00     0.004 A 
HETATM    6  C5  UNL     1      24.143  -1.211  55.308  1.00  0.00     0.029 A 
HETATM    7  C4  UNL     1      25.015  -0.775  54.333  1.00  0.00     0.037 A 
HETATM    8  C15 UNL     1      24.584  -0.185  53.167  1.00  0.00     0.059 A 
BRANCH   7   9
HETATM    9  N1  UNL     1      26.442  -0.903  54.458  1.00  0.00    -0.324 N 
HETATM   10  C3  UNL     1      27.135   0.310  54.629  1.00  0.00     0.244 C 
HETATM   11  O1  UNL     1      26.996   1.544  54.722  1.00  0.00    -0.268 OA
HETATM   12  H4  UNL     1      27.027  -1.767  54.440  1.00  0.00     0.169 HD
BRANCH  10  13
HETATM   13  C2  UNL     1      28.589   0.324  54.769  1.00  0.00     0.064 C 
HETATM   14  C1  UNL     1      29.326  -0.461  54.013  1.00  0.00     0.017 C 
ENDBRANCH  10  13
ENDBRANCH   7   9
ENDBRANCH   1   3
BRANCH   1  15
HETATM   15  C9  UNL     1      21.736   1.573  51.916  1.00  0.00     0.161 A 
HETATM   16  N3  UNL     1      20.502   1.017  51.793  1.00  0.00    -0.042 NA
HETATM   17  C10 UNL     1      19.406   1.764  51.928  1.00  0.00     0.751 A 
HETATM   18  N5  UNL     1      19.526   3.078  52.190  1.00  0.00    -0.072 NA
HETATM   19  C11 UNL     1      20.738   3.644  52.316  1.00  0.00     0.153 A 
HETATM   20  C12 UNL     1      21.889   2.914  52.184  1.00  0.00     0.077 A 
BRANCH  17  21
HETATM   21  N4  UNL     1      18.097   1.179  51.800  1.00  0.00    -0.050 N 
HETATM   22  F1  UNL     1      18.053  -0.060  51.276  1.00  0.00    -0.086 F 
HETATM   23  H9  UNL     1      17.251   1.698  52.102  1.00  0.00     0.219 HD
ENDBRANCH  17  21
BRANCH  20  24
HETATM   24  C13 UNL     1      23.262   3.415  52.297  1.00  0.00     0.272 C 
HETATM   25  C14 UNL     1      23.212   4.929  52.219  1.00  0.00     0.096 C 
HETATM   26  F2  UNL     1      23.997   3.002  51.191  1.00  0.00    -0.201 F 
HETATM   27  F3  UNL     1      23.814   2.972  53.459  1.00  0.00    -0.201 F 
ENDBRANCH  20  24
ENDBRANCH   1  15
TORSDOF 6
ENDMDL
MODEL 4
REMARK VINA RESULT:      -7.5      3.472      5.826
REMARK  6 active torsions:
REMARK  status: ('A' for Active; 'I' for Inactive)
REMARK    1  A    between atoms: C2_2  and  C3_3 
REMARK       I    between atoms: C3_3  and  N1_5 
REMARK    2  A    between atoms: N1_5  and  C4_6 
REMARK    3  A    between atoms: C8_10  and  N2_11 
REMARK    4  A    between atoms: N2_11  and  C9_12 
REMARK    5  A    between atoms: C10_14  and  N4_15 
REMARK    6  A    between atoms: C12_19  and  C13_20 
ROOT
HETATM    1  N2  UNL     1      23.821   2.390  53.044  1.00  0.00    -0.340 N 
HETATM    2  H8  UNL     1      23.256   2.961  53.690  1.00  0.00     0.167 HD
ENDROOT
BRANCH   1   3
HETATM    3  C8  UNL     1      23.730   2.649  51.649  1.00  0.00     0.035 A 
HETATM    4  C7  UNL     1      22.947   1.918  50.786  1.00  0.00     0.029 A 
HETATM    5  C6  UNL     1      22.832   2.152  49.438  1.00  0.00     0.004 A 
HETATM    6  C5  UNL     1      23.544   3.189  48.888  1.00  0.00     0.029 A 
HETATM    7  C4  UNL     1      24.341   3.947  49.719  1.00  0.00     0.037 A 
HETATM    8  C15 UNL     1      24.446   3.701  51.068  1.00  0.00     0.059 A 
BRANCH   7   9
HETATM    9  N1  UNL     1      25.126   5.054  49.240  1.00  0.00    -0.324 N 
HETATM   10  C3  UNL     1      26.489   4.771  49.031  1.00  0.00     0.244 C 
HETATM   11  O1  UNL     1      27.353   3.878  49.102  1.00  0.00    -0.268 OA
HETATM   12  H4  UNL     1      24.822   6.030  49.028  1.00  0.00     0.169 HD
BRANCH  10  13
HETATM   13  C2  UNL     1      27.399   5.806  48.547  1.00  0.00     0.064 C 
HETATM   14  C1  UNL     1      28.661   5.512  48.318  1.00  0.00     0.017 C 
ENDBRANCH  10  13
ENDBRANCH   7   9
ENDBRANCH   1   3
BRANCH   1  15
HETATM   15  C9  UNL     1      24.721   1.334  53.383  1.00  0.00     0.161 A 
HETATM   16  N3  UNL     1      26.011   1.752  53.307  1.00  0.00    -0.042 NA
HETATM   17  C10 UNL     1      27.012   0.914  53.580  1.00  0.00     0.751 A 
HETATM   18  N5  UNL     1      26.738  -0.354  53.933  1.00  0.00    -0.072 NA
HETATM   19  C11 UNL     1      25.468  -0.784  54.015  1.00  0.00     0.153 A 
HETATM   20  C12 UNL     1      24.410   0.042  53.743  1.00  0.00     0.077 A 
BRANCH  17  21
HETATM   21  N4  UNL     1      28.380   1.353  53.502  1.00  0.00    -0.050 N 
HETATM   22  F1  UNL     1      28.614   2.627  53.869  1.00  0.00    -0.086 F 
HETATM   23  H9  UNL     1      29.128   0.710  53.181  1.00  0.00     0.219 HD
ENDBRANCH  17  21
BRANCH  20  24
HETATM   24  C13 UNL     1      22.988  -0.308  53.795  1.00  0.00     0.272 C 
HETATM   25  C14 UNL     1      22.796  -1.305  54.922  1.00  0.00     0.096 C 
HETATM   26  F2  UNL     1      22.636  -0.981  52.630  1.00  0.00    -0.201 F 
HETATM   27  F3  UNL     1      22.247   0.820  53.965  1.00  0.00    -0.201 F 
ENDBRANCH  20  24
ENDBRANCH   1  15
TORSDOF 6
ENDMDL
MODEL 5
REMARK VINA RESULT:      -7.4      1.619      2.000
REMARK  6 active torsions:
REMARK  status: ('A' for Active; 'I' for Inactive)
REMARK    1  A    between atoms: C2_2  and  C3_3 
REMARK       I    between atoms: C3_3  and  N1_5 
REMARK    2  A    between atoms: N1_5  and  C4_6 
REMARK    3  A    between atoms: C8_10  and  N2_11 
REMARK    4  A    between atoms: N2_11  and  C9_12 
REMARK    5  A    between atoms: C10_14  and  N4_15 
REMARK    6  A    between atoms: C12_19  and  C13_20 
ROOT
HETATM    1  N2  UNL     1      21.099   1.697  52.367  1.00  0.00    -0.340 N 
HETATM    2  H8  UNL     1      20.070   1.658  52.393  1.00  0.00     0.167 HD
ENDROOT
BRANCH   1   3
HETATM    3  C8  UNL     1      21.835   0.778  53.164  1.00  0.00     0.035 A 
HETATM    4  C7  UNL     1      21.303   0.094  54.232  1.00  0.00     0.029 A 
HETATM    5  C6  UNL     1      21.987  -0.804  55.011  1.00  0.00     0.004 A 
HETATM    6  C5  UNL     1      23.306  -1.056  54.722  1.00  0.00     0.029 A 
HETATM    7  C4  UNL     1      23.879  -0.392  53.658  1.00  0.00     0.037 A 
HETATM    8  C15 UNL     1      23.180   0.507  52.886  1.00  0.00     0.059 A 
BRANCH   7   9
HETATM    9  N1  UNL     1      25.251  -0.585  53.274  1.00  0.00    -0.324 N 
HETATM   10  C3  UNL     1      26.189   0.147  54.027  1.00  0.00     0.244 C 
HETATM   11  O1  UNL     1      26.315   0.957  54.963  1.00  0.00    -0.268 OA
HETATM   12  H4  UNL     1      25.641  -1.191  52.519  1.00  0.00     0.169 HD
BRANCH  10  13
HETATM   13  C2  UNL     1      27.618   0.043  53.741  1.00  0.00     0.064 C 
HETATM   14  C1  UNL     1      28.487   0.082  54.727  1.00  0.00     0.017 C 
ENDBRANCH  10  13
ENDBRANCH   7   9
ENDBRANCH   1   3
BRANCH   1  15
HETATM   15  C9  UNL     1      21.913   2.587  51.603  1.00  0.00     0.161 A 
HETATM   16  N3  UNL     1      22.479   3.531  52.398  1.00  0.00    -0.042 NA
HETATM   17  C10 UNL     1      23.275   4.466  51.879  1.00  0.00     0.751 A 
HETATM   18  N5  UNL     1      23.518   4.472  50.556  1.00  0.00    -0.072 NA
HETATM   19  C11 UNL     1      22.967   3.545  49.755  1.00  0.00     0.153 A 
HETATM   20  C12 UNL     1      22.144   2.567  50.246  1.00  0.00     0.077 A 
BRANCH  17  21
HETATM   21  N4  UNL     1      23.879   5.468  52.719  1.00  0.00    -0.050 N 
HETATM   22  F1  UNL     1      23.907   5.194  54.037  1.00  0.00    -0.086 F 
HETATM   23  H9  UNL     1      24.265   6.341  52.313  1.00  0.00     0.219 HD
ENDBRANCH  17  21
BRANCH  20  24
HETATM   24  C13 UNL     1      21.485   1.508  49.476  1.00  0.00     0.272 C 
HETATM   25  C14 UNL     1      21.949   1.623  48.036  1.00  0.00     0.096 C 
HETATM   26  F2  UNL     1      20.114   1.740  49.452  1.00  0.00    -0.201 F 
HETATM   27  F3  UNL     1      21.780   0.298  50.024  1.00  0.00    -0.201 F 
ENDBRANCH  20  24
ENDBRANCH   1  15
TORSDOF 6
ENDMDL
MODEL 6
REMARK VINA RESULT:      -7.3      2.754      6.547
REMARK  6 active torsions:
REMARK  status: ('A' for Active; 'I' for Inactive)
REMARK    1  A    between atoms: C2_2  and  C3_3 
REMARK       I    between atoms: C3_3  and  N1_5 
REMARK    2  A    between atoms: N1_5  and  C4_6 
REMARK    3  A    between atoms: C8_10  and  N2_11 
REMARK    4  A    between atoms: N2_11  and  C9_12 
REMARK    5  A    between atoms: C10_14  and  N4_15 
REMARK    6  A    between atoms: C12_19  and  C13_20 
ROOT
HETATM    1  N2  UNL     1      24.194   0.862  51.974  1.00  0.00    -0.340 N 
HETATM    2  H8  UNL     1      24.283   0.484  51.020  1.00  0.00     0.167 HD
ENDROOT
BRANCH   1   3
HETATM    3  C8  UNL     1      23.691   2.182  52.139  1.00  0.00     0.035 A 
HETATM    4  C7  UNL     1      24.236   3.106  52.998  1.00  0.00     0.029 A 
HETATM    5  C6  UNL     1      23.778   4.388  53.170  1.00  0.00     0.004 A 
HETATM    6  C5  UNL     1      22.692   4.802  52.438  1.00  0.00     0.029 A 
HETATM    7  C4  UNL     1      22.114   3.905  51.564  1.00  0.00     0.037 A 
HETATM    8  C15 UNL     1      22.585   2.623  51.403  1.00  0.00     0.059 A 
BRANCH   7   9
HETATM    9  N1  UNL     1      20.974   4.241  50.753  1.00  0.00    -0.324 N 
HETATM   10  C3  UNL     1      19.726   3.916  51.318  1.00  0.00     0.244 C 
HETATM   11  O1  UNL     1      19.173   3.417  52.315  1.00  0.00    -0.268 OA
HETATM   12  H4  UNL     1      20.949   4.689  49.811  1.00  0.00     0.169 HD
BRANCH  10  13
HETATM   13  C2  UNL     1      18.487   4.202  50.600  1.00  0.00     0.064 C 
HETATM   14  C1  UNL     1      17.539   3.292  50.543  1.00  0.00     0.017 C 
ENDBRANCH  10  13
ENDBRANCH   7   9
ENDBRANCH   1   3
BRANCH   1  15
HETATM   15  C9  UNL     1      24.522   0.206  53.199  1.00  0.00     0.161 A 
HETATM   16  N3  UNL     1      25.849   0.316  53.468  1.00  0.00    -0.042 NA
HETATM   17  C10 UNL     1      26.366  -0.234  54.568  1.00  0.00     0.751 A 
HETATM   18  N5  UNL     1      25.563  -0.902  55.415  1.00  0.00    -0.072 NA
HETATM   19  C11 UNL     1      24.248  -1.019  55.166  1.00  0.00     0.153 A 
HETATM   20  C12 UNL     1      23.677  -0.470  54.049  1.00  0.00     0.077 A 
BRANCH  17  21
HETATM   21  N4  UNL     1      27.771  -0.118  54.858  1.00  0.00    -0.050 N 
HETATM   22  F1  UNL     1      28.597  -0.824  54.063  1.00  0.00    -0.086 F 
HETATM   23  H9  UNL     1      28.106   0.480  55.636  1.00  0.00     0.219 HD
ENDBRANCH  17  21
BRANCH  20  24
HETATM   24  C13 UNL     1      22.263  -0.532  53.667  1.00  0.00     0.272 C 
HETATM   25  C14 UNL     1      21.631  -1.694  54.411  1.00  0.00     0.096 C 
HETATM   26  F2  UNL     1      22.163  -0.848  52.317  1.00  0.00    -0.201 F 
HETATM   27  F3  UNL     1      21.663   0.656  53.951  1.00  0.00    -0.201 F 
ENDBRANCH  20  24
ENDBRANCH   1  15
TORSDOF 6
ENDMDL
MODEL 7
REMARK VINA RESULT:      -7.2      2.994      6.893
REMARK  6 active torsions:
REMARK  status: ('A' for Active; 'I' for Inactive)
REMARK    1  A    between atoms: C2_2  and  C3_3 
REMARK       I    between atoms: C3_3  and  N1_5 
REMARK    2  A    between atoms: N1_5  and  C4_6 
REMARK    3  A    between atoms: C8_10  and  N2_11 
REMARK    4  A    between atoms: N2_11  and  C9_12 
REMARK    5  A    between atoms: C10_14  and  N4_15 
REMARK    6  A    between atoms: C12_19  and  C13_20 
ROOT
HETATM    1  N2  UNL     1      24.407   0.592  51.877  1.00  0.00    -0.340 N 
HETATM    2  H8  UNL     1      24.724   0.329  50.933  1.00  0.00     0.167 HD
ENDROOT
BRANCH   1   3
HETATM    3  C8  UNL     1      23.222   1.366  52.007  1.00  0.00     0.035 A 
HETATM    4  C7  UNL     1      23.212   2.701  52.336  1.00  0.00     0.029 A 
HETATM    5  C6  UNL     1      22.084   3.473  52.458  1.00  0.00     0.004 A 
HETATM    6  C5  UNL     1      20.860   2.890  52.241  1.00  0.00     0.029 A 
HETATM    7  C4  UNL     1      20.825   1.552  51.909  1.00  0.00     0.037 A 
HETATM    8  C15 UNL     1      21.965   0.790  51.790  1.00  0.00     0.059 A 
BRANCH   7   9
HETATM    9  N1  UNL     1      19.595   0.848  51.661  1.00  0.00    -0.324 N 
HETATM   10  C3  UNL     1      19.247  -0.103  52.639  1.00  0.00     0.244 C 
HETATM   11  O1  UNL     1      19.606  -0.619  53.713  1.00  0.00    -0.268 OA
HETATM   12  H4  UNL     1      18.932   0.949  50.862  1.00  0.00     0.169 HD
BRANCH  10  13
HETATM   13  C2  UNL     1      18.023  -0.889  52.511  1.00  0.00     0.064 C 
HETATM   14  C1  UNL     1      17.832  -1.933  53.288  1.00  0.00     0.017 C 
ENDBRANCH  10  13
ENDBRANCH   7   9
ENDBRANCH   1   3
BRANCH   1  15
HETATM   15  C9  UNL     1      25.029   0.266  53.120  1.00  0.00     0.161 A 
HETATM   16  N3  UNL     1      24.204  -0.486  53.894  1.00  0.00    -0.042 NA
HETATM   17  C10 UNL     1      24.592  -0.894  55.102  1.00  0.00     0.751 A 
HETATM   18  N5  UNL     1      25.813  -0.557  55.556  1.00  0.00    -0.072 NA
HETATM   19  C11 UNL     1      26.643   0.185  54.805  1.00  0.00     0.153 A 
HETATM   20  C12 UNL     1      26.284   0.625  53.558  1.00  0.00     0.077 A 
BRANCH  17  21
HETATM   21  N4  UNL     1      23.721  -1.693  55.924  1.00  0.00    -0.050 N 
HETATM   22  F1  UNL     1      22.571  -2.093  55.351  1.00  0.00    -0.086 F 
HETATM   23  H9  UNL     1      23.984  -1.937  56.898  1.00  0.00     0.219 HD
ENDBRANCH  17  21
BRANCH  20  24
HETATM   24  C13 UNL     1      27.096   1.438  52.649  1.00  0.00     0.272 C 
HETATM   25  C14 UNL     1      28.432   1.692  53.320  1.00  0.00     0.096 C 
HETATM   26  F2  UNL     1      26.505   2.688  52.495  1.00  0.00    -0.201 F 
HETATM   27  F3  UNL     1      27.226   0.795  51.457  1.00  0.00    -0.201 F 
ENDBRANCH  20  24
ENDBRANCH   1  15
TORSDOF 6
ENDMDL
MODEL 8
REMARK VINA RESULT:      -7.2      2.963      6.747
REMARK  6 active torsions:
REMARK  status: ('A' for Active; 'I' for Inactive)
REMARK    1  A    between atoms: C2_2  and  C3_3 
REMARK       I    between atoms: C3_3  and  N1_5 
REMARK    2  A    between atoms: N1_5  and  C4_6 
REMARK    3  A    between atoms: C8_10  and  N2_11 
REMARK    4  A    between atoms: N2_11  and  C9_12 
REMARK    5  A    between atoms: C10_14  and  N4_15 
REMARK    6  A    between atoms: C12_19  and  C13_20 
ROOT
HETATM    1  N2  UNL     1      24.729   0.758  51.984  1.00  0.00    -0.340 N 
HETATM    2  H8  UNL     1      24.974   0.404  51.048  1.00  0.00     0.167 HD
ENDROOT
BRANCH   1   3
HETATM    3  C8  UNL     1      23.768   1.801  52.088  1.00  0.00     0.035 A 
HETATM    4  C7  UNL     1      22.412   1.588  52.163  1.00  0.00     0.029 A 
HETATM    5  C6  UNL     1      21.465   2.575  52.274  1.00  0.00     0.004 A 
HETATM    6  C5  UNL     1      21.879   3.883  52.314  1.00  0.00     0.029 A 
HETATM    7  C4  UNL     1      23.232   4.141  52.241  1.00  0.00     0.037 A 
HETATM    8  C15 UNL     1      24.170   3.141  52.131  1.00  0.00     0.059 A 
BRANCH   7   9
HETATM    9  N1  UNL     1      23.768   5.476  52.275  1.00  0.00    -0.324 N 
HETATM   10  C3  UNL     1      24.097   6.017  51.018  1.00  0.00     0.244 C 
HETATM   11  O1  UNL     1      24.112   5.784  49.795  1.00  0.00    -0.268 OA
HETATM   12  H4  UNL     1      23.942   6.092  53.100  1.00  0.00     0.169 HD
BRANCH  10  13
HETATM   13  C2  UNL     1      24.651   7.364  50.908  1.00  0.00     0.064 C 
HETATM   14  C1  UNL     1      24.001   8.286  50.233  1.00  0.00     0.017 C 
ENDBRANCH  10  13
ENDBRANCH   7   9
ENDBRANCH   1   3
BRANCH   1  15
HETATM   15  C9  UNL     1      25.248   0.318  53.239  1.00  0.00     0.161 A 
HETATM   16  N3  UNL     1      24.322  -0.404  53.922  1.00  0.00    -0.042 NA
HETATM   17  C10 UNL     1      24.605  -0.905  55.125  1.00  0.00     0.751 A 
HETATM   18  N5  UNL     1      25.819  -0.692  55.663  1.00  0.00    -0.072 NA
HETATM   19  C11 UNL     1      26.747   0.019  55.002  1.00  0.00     0.153 A 
HETATM   20  C12 UNL     1      26.499   0.552  53.765  1.00  0.00     0.077 A 
BRANCH  17  21
HETATM   21  N4  UNL     1      23.628  -1.672  55.851  1.00  0.00    -0.050 N 
HETATM   22  F1  UNL     1      22.394  -1.717  55.313  1.00  0.00    -0.086 F 
HETATM   23  H9  UNL     1      23.879  -2.156  56.733  1.00  0.00     0.219 HD
ENDBRANCH  17  21
BRANCH  20  24
HETATM   24  C13 UNL     1      27.424   1.343  52.949  1.00  0.00     0.272 C 
HETATM   25  C14 UNL     1      28.825   1.120  53.487  1.00  0.00     0.096 C 
HETATM   26  F2  UNL     1      27.159   2.696  53.131  1.00  0.00    -0.201 F 
HETATM   27  F3  UNL     1      27.304   0.980  51.643  1.00  0.00    -0.201 F 
ENDBRANCH  20  24
ENDBRANCH   1  15
TORSDOF 6
ENDMDL
MODEL 9
REMARK VINA RESULT:      -7.2      2.397      2.713
REMARK  6 active torsions:
REMARK  status: ('A' for Active; 'I' for Inactive)
REMARK    1  A    between atoms: C2_2  and  C3_3 
REMARK       I    between atoms: C3_3  and  N1_5 
REMARK    2  A    between atoms: N1_5  and  C4_6 
REMARK    3  A    between atoms: C8_10  and  N2_11 
REMARK    4  A    between atoms: N2_11  and  C9_12 
REMARK    5  A    between atoms: C10_14  and  N4_15 
REMARK    6  A    between atoms: C12_19  and  C13_20 
ROOT
HETATM    1  N2  UNL     1      23.032   2.769  52.473  1.00  0.00    -0.340 N 
HETATM    2  H8  UNL     1      22.399   3.230  53.142  1.00  0.00     0.167 HD
ENDROOT
BRANCH   1   3
HETATM    3  C8  UNL     1      23.677   1.564  52.865  1.00  0.00     0.035 A 
HETATM    4  C7  UNL     1      23.028   0.506  53.457  1.00  0.00     0.029 A 
HETATM    5  C6  UNL     1      23.623  -0.671  53.836  1.00  0.00     0.004 A 
HETATM    6  C5  UNL     1      24.970  -0.827  53.618  1.00  0.00     0.029 A 
HETATM    7  C4  UNL     1      25.659   0.210  53.026  1.00  0.00     0.037 A 
HETATM    8  C15 UNL     1      25.048   1.385  52.651  1.00  0.00     0.059 A 
BRANCH   7   9
HETATM    9  N1  UNL     1      27.071   0.146  52.754  1.00  0.00    -0.324 N 
HETATM   10  C3  UNL     1      27.901   0.477  53.842  1.00  0.00     0.244 C 
HETATM   11  O1  UNL     1      27.903   0.832  55.035  1.00  0.00    -0.268 OA
HETATM   12  H4  UNL     1      27.556  -0.113  51.868  1.00  0.00     0.169 HD
BRANCH  10  13
HETATM   13  C2  UNL     1      29.355   0.453  53.703  1.00  0.00     0.064 C 
HETATM   14  C1  UNL     1      29.975  -0.691  53.512  1.00  0.00     0.017 C 
ENDBRANCH  10  13
ENDBRANCH   7   9
ENDBRANCH   1   3
BRANCH   1  15
HETATM   15  C9  UNL     1      23.357   3.199  51.151  1.00  0.00     0.161 A 
HETATM   16  N3  UNL     1      24.401   4.067  51.165  1.00  0.00    -0.042 NA
HETATM   17  C10 UNL     1      24.861   4.594  50.030  1.00  0.00     0.751 A 
HETATM   18  N5  UNL     1      24.283   4.261  48.862  1.00  0.00    -0.072 NA
HETATM   19  C11 UNL     1      23.250   3.404  48.829  1.00  0.00     0.153 A 
HETATM   20  C12 UNL     1      22.746   2.840  49.971  1.00  0.00     0.077 A 
BRANCH  17  21
HETATM   21  N4  UNL     1      25.969   5.513  50.042  1.00  0.00    -0.050 N 
HETATM   22  F1  UNL     1      27.033   5.165  49.293  1.00  0.00    -0.086 F 
HETATM   23  H9  UNL     1      25.930   6.387  50.598  1.00  0.00     0.219 HD
ENDBRANCH  17  21
BRANCH  20  24
HETATM   24  C13 UNL     1      21.627   1.898  50.063  1.00  0.00     0.272 C 
HETATM   25  C14 UNL     1      20.882   1.930  48.741  1.00  0.00     0.096 C 
HETATM   26  F2  UNL     1      20.723   2.347  51.019  1.00  0.00    -0.201 F 
HETATM   27  F3  UNL     1      22.100   0.658  50.363  1.00  0.00    -0.201 F 
ENDBRANCH  20  24
ENDBRANCH   1  15
TORSDOF 6
ENDMDL
