MODEL 1
REMARK VINA RESULT:      -7.8      0.000      0.000
REMARK  6 active torsions:
REMARK  status: ('A' for Active; 'I' for Inactive)
REMARK    1  A    between atoms: N1_1  and  C1_2 
REMARK    2  A    between atoms: N2_7  and  C5_8 
REMARK    3  A    between atoms: C5_8  and  C6_9 
REMARK    4  A    between atoms: C6_9  and  C7_10 
REMARK    5  A    between atoms: C15_20  and  O2_21 
REMARK    6  A    between atoms: O2_21  and  C16_22 
ROOT
HETATM    1  C7  UNL     1      23.788  -0.249  53.401  1.00  0.00     0.045 C 
HETATM    2  N3  UNL     1      23.550  -0.960  54.451  1.00  0.00    -0.274 NA
HETATM    3  C8  UNL     1      22.401  -1.245  55.258  1.00  0.00     0.270 C 
HETATM    4  N4  UNL     1      21.144  -1.313  54.559  1.00  0.00    -0.374 N 
HETATM    5  C9  UNL     1      20.670  -0.566  53.445  1.00  0.00     0.021 A 
HETATM    6  C10 UNL     1      21.340   0.236  52.630  1.00  0.00     0.000 A 
HETATM    7  C11 UNL     1      20.419   0.792  51.619  1.00  0.00     0.011 A 
HETATM    8  C12 UNL     1      19.218   0.306  51.855  1.00  0.00    -0.020 A 
HETATM    9  C13 UNL     1      19.226  -0.604  53.028  1.00  0.00     0.084 A 
HETATM   10  C14 UNL     1      22.771   0.516  52.732  1.00  0.00     0.022 C 
HETATM   11  C15 UNL     1      23.124   1.627  52.113  1.00  0.00     0.150 C 
HETATM   12  H16 UNL     1      20.450  -2.020  54.911  1.00  0.00     0.161 HD
ENDROOT
BRANCH   1  13
HETATM   13  C6  UNL     1      25.154  -0.153  52.771  1.00  0.00     0.079 C 
BRANCH  13  14
HETATM   14  C5  UNL     1      26.235  -0.473  53.732  1.00  0.00     0.125 C 
BRANCH  14  15
HETATM   15  N2  UNL     1      26.965   0.623  54.288  1.00  0.00    -0.381 N 
HETATM   16  C1  UNL     1      26.990   1.806  53.509  1.00  0.00     0.338 C 
HETATM   17  C2  UNL     1      28.315   2.507  53.395  1.00  0.00     0.224 C 
HETATM   18  O1  UNL     1      29.181   2.249  54.436  1.00  0.00    -0.386 OA
HETATM   19  C3  UNL     1      29.430   0.866  54.494  1.00  0.00     0.187 C 
HETATM   20  C4  UNL     1      28.166   0.222  54.932  1.00  0.00     0.145 C 
BRANCH  16  21
HETATM   21  N1  UNL     1      26.036   2.768  54.089  1.00  0.00     0.103 N 
HETATM   22  H1  UNL     1      26.259   3.736  53.706  1.00  0.00     0.315 HD
HETATM   23  H2  UNL     1      26.266   2.815  55.105  1.00  0.00     0.315 HD
ENDBRANCH  16  21
ENDBRANCH  14  15
ENDBRANCH  13  14
ENDBRANCH   1  13
BRANCH  11  24
HETATM   24  O2  UNL     1      24.140   2.488  51.781  1.00  0.00    -0.348 OA
BRANCH  24  25
HETATM   25  C16 UNL     1      24.414   2.879  50.440  1.00  0.00     0.288 C 
HETATM   26 CL1  UNL     1      26.152   2.935  50.138  1.00  0.00    -0.102 Cl
ENDBRANCH  24  25
ENDBRANCH  11  24
TORSDOF 6
ENDMDL
MODEL 2
REMARK VINA RESULT:      -7.5      3.453      6.728
REMARK  6 active torsions:
REMARK  status: ('A' for Active; 'I' for Inactive)
REMARK    1  A    between atoms: N1_1  and  C1_2 
REMARK    2  A    between atoms: N2_7  and  C5_8 
REMARK    3  A    between atoms: C5_8  and  C6_9 
REMARK    4  A    between atoms: C6_9  and  C7_10 
REMARK    5  A    between atoms: C15_20  and  O2_21 
REMARK    6  A    between atoms: O2_21  and  C16_22 
ROOT
HETATM    1  C7  UNL     1      26.475   1.570  52.525  1.00  0.00     0.045 C 
HETATM    2  N3  UNL     1      27.384   2.412  52.884  1.00  0.00    -0.274 NA
HETATM    3  C8  UNL     1      28.606   2.346  53.628  1.00  0.00     0.270 C 
HETATM    4  N4  UNL     1      29.364   1.131  53.487  1.00  0.00    -0.374 N 
HETATM    5  C9  UNL     1      28.924  -0.213  53.328  1.00  0.00     0.021 A 
HETATM    6  C10 UNL     1      27.710  -0.670  53.057  1.00  0.00     0.000 A 
HETATM    7  C11 UNL     1      27.741  -2.144  52.988  1.00  0.00     0.011 A 
HETATM    8  C12 UNL     1      28.979  -2.534  53.219  1.00  0.00    -0.020 A 
HETATM    9  C13 UNL     1      29.872  -1.373  53.461  1.00  0.00     0.084 A 
HETATM   10  C14 UNL     1      26.532   0.173  52.860  1.00  0.00     0.022 C 
HETATM   11  C15 UNL     1      25.397  -0.482  53.024  1.00  0.00     0.150 C 
HETATM   12  H16 UNL     1      30.411   1.227  53.499  1.00  0.00     0.161 HD
ENDROOT
BRANCH   1  13
HETATM   13  C6  UNL     1      25.267   1.966  51.715  1.00  0.00     0.079 C 
BRANCH  13  14
HETATM   14  C5  UNL     1      24.534   3.100  52.326  1.00  0.00     0.125 C 
BRANCH  14  15
HETATM   15  N2  UNL     1      24.135   4.166  51.461  1.00  0.00    -0.381 N 
HETATM   16  C1  UNL     1      23.383   5.202  52.067  1.00  0.00     0.338 C 
HETATM   17  C2  UNL     1      22.190   5.702  51.299  1.00  0.00     0.224 C 
HETATM   18  O1  UNL     1      22.269   5.499  49.939  1.00  0.00    -0.386 OA
HETATM   19  C3  UNL     1      22.394   4.120  49.688  1.00  0.00     0.187 C 
HETATM   20  C4  UNL     1      23.739   3.718  50.173  1.00  0.00     0.145 C 
BRANCH  16  21
HETATM   21  N1  UNL     1      24.271   6.356  52.291  1.00  0.00     0.103 N 
HETATM   22  H1  UNL     1      25.250   6.096  51.965  1.00  0.00     0.315 HD
HETATM   23  H2  UNL     1      24.344   6.458  53.326  1.00  0.00     0.315 HD
ENDBRANCH  16  21
ENDBRANCH  14  15
ENDBRANCH  13  14
ENDBRANCH   1  13
BRANCH  11  24
HETATM   24  O2  UNL     1      24.026  -0.429  53.021  1.00  0.00    -0.348 OA
BRANCH  24  25
HETATM   25  C16 UNL     1      23.238  -0.748  54.162  1.00  0.00     0.288 C 
HETATM   26 CL1  UNL     1      24.252  -1.281  55.505  1.00  0.00    -0.102 Cl
ENDBRANCH  24  25
ENDBRANCH  11  24
TORSDOF 6
ENDMDL
MODEL 3
REMARK VINA RESULT:      -7.4      1.380      1.903
REMARK  6 active torsions:
REMARK  status: ('A' for Active; 'I' for Inactive)
REMARK    1  A    between atoms: N1_1  and  C1_2 
REMARK    2  A    between atoms: N2_7  and  C5_8 
REMARK    3  A    between atoms: C5_8  and  C6_9 
REMARK    4  A    between atoms: C6_9  and  C7_10 
REMARK    5  A    between atoms: C15_20  and  O2_21 
REMARK    6  A    between atoms: O2_21  and  C16_22 
ROOT
HETATM    1  C7  UNL     1      22.932   0.402  53.125  1.00  0.00     0.045 C 
HETATM    2  N3  UNL     1      23.033  -0.404  54.127  1.00  0.00    -0.274 NA
HETATM    3  C8  UNL     1      22.119  -1.038  55.030  1.00  0.00     0.270 C 
HETATM    4  N4  UNL     1      20.844  -1.409  54.475  1.00  0.00    -0.374 N 
HETATM    5  C9  UNL     1      20.045  -0.759  53.494  1.00  0.00     0.021 A 
HETATM    6  C10 UNL     1      20.363   0.239  52.682  1.00  0.00     0.000 A 
HETATM    7  C11 UNL     1      19.201   0.577  51.836  1.00  0.00     0.011 A 
HETATM    8  C12 UNL     1      18.214  -0.233  52.162  1.00  0.00    -0.020 A 
HETATM    9  C13 UNL     1      18.619  -1.169  53.240  1.00  0.00     0.084 A 
HETATM   10  C14 UNL     1      21.669   0.895  52.647  1.00  0.00     0.022 C 
HETATM   11  C15 UNL     1      21.629   2.093  52.094  1.00  0.00     0.150 C 
HETATM   12  H16 UNL     1      20.416  -2.298  54.838  1.00  0.00     0.161 HD
ENDROOT
BRANCH   1  13
HETATM   13  C6  UNL     1      24.127   0.904  52.355  1.00  0.00     0.079 C 
BRANCH  13  14
HETATM   14  C5  UNL     1      25.144   1.517  53.241  1.00  0.00     0.125 C 
BRANCH  14  15
HETATM   15  N2  UNL     1      26.481   1.019  53.150  1.00  0.00    -0.381 N 
HETATM   16  C1  UNL     1      26.872   0.112  54.164  1.00  0.00     0.338 C 
HETATM   17  C2  UNL     1      28.240   0.315  54.756  1.00  0.00     0.224 C 
HETATM   18  O1  UNL     1      29.121   0.971  53.926  1.00  0.00    -0.386 OA
HETATM   19  C3  UNL     1      28.597   2.238  53.609  1.00  0.00     0.187 C 
HETATM   20  C4  UNL     1      27.416   2.007  52.741  1.00  0.00     0.145 C 
BRANCH  16  21
HETATM   21  N1  UNL     1      26.835  -1.254  53.612  1.00  0.00     0.103 N 
HETATM   22  H1  UNL     1      26.354  -1.220  52.663  1.00  0.00     0.315 HD
HETATM   23  H2  UNL     1      26.188  -1.790  54.229  1.00  0.00     0.315 HD
ENDBRANCH  16  21
ENDBRANCH  14  15
ENDBRANCH  13  14
ENDBRANCH   1  13
BRANCH  11  24
HETATM   24  O2  UNL     1      22.327   3.216  51.727  1.00  0.00    -0.348 OA
BRANCH  24  25
HETATM   25  C16 UNL     1      22.494   3.613  50.371  1.00  0.00     0.288 C 
HETATM   26 CL1  UNL     1      22.597   2.209  49.306  1.00  0.00    -0.102 Cl
ENDBRANCH  24  25
ENDBRANCH  11  24
TORSDOF 6
ENDMDL
MODEL 4
REMARK VINA RESULT:      -7.2      3.288      6.052
REMARK  6 active torsions:
REMARK  status: ('A' for Active; 'I' for Inactive)
REMARK    1  A    between atoms: N1_1  and  C1_2 
REMARK    2  A    between atoms: N2_7  and  C5_8 
REMARK    3  A    between atoms: C5_8  and  C6_9 
REMARK    4  A    between atoms: C6_9  and  C7_10 
REMARK    5  A    between atoms: C15_20  and  O2_21 
REMARK    6  A    between atoms: O2_21  and  C16_22 
ROOT
HETATM    1  C7  UNL     1      26.272   3.492  50.255  1.00  0.00     0.045 C 
HETATM    2  N3  UNL     1      27.232   3.888  49.490  1.00  0.00    -0.274 NA
HETATM    3  C8  UNL     1      27.487   5.038  48.676  1.00  0.00     0.270 C 
HETATM    4  N4  UNL     1      26.965   6.286  49.170  1.00  0.00    -0.374 N 
HETATM    5  C9  UNL     1      25.764   6.562  49.881  1.00  0.00     0.021 A 
HETATM    6  C10 UNL     1      24.921   5.718  50.459  1.00  0.00     0.000 A 
HETATM    7  C11 UNL     1      23.814   6.474  51.077  1.00  0.00     0.011 A 
HETATM    8  C12 UNL     1      24.024   7.755  50.854  1.00  0.00    -0.020 A 
HETATM    9  C13 UNL     1      25.271   7.969  50.078  1.00  0.00     0.084 A 
HETATM   10  C14 UNL     1      25.079   4.265  50.470  1.00  0.00     0.022 C 
HETATM   11  C15 UNL     1      23.950   3.626  50.714  1.00  0.00     0.150 C 
HETATM   12  H16 UNL     1      27.547   7.142  48.987  1.00  0.00     0.161 HD
ENDROOT
BRANCH   1  13
HETATM   13  C6  UNL     1      26.307   2.183  51.001  1.00  0.00     0.079 C 
BRANCH  13  14
HETATM   14  C5  UNL     1      27.159   2.254  52.211  1.00  0.00     0.125 C 
BRANCH  14  15
HETATM   15  N2  UNL     1      27.185   1.107  53.065  1.00  0.00    -0.381 N 
HETATM   16  C1  UNL     1      28.467   0.684  53.491  1.00  0.00     0.338 C 
HETATM   17  C2  UNL     1      28.733  -0.796  53.455  1.00  0.00     0.224 C 
HETATM   18  O1  UNL     1      27.599  -1.574  53.530  1.00  0.00    -0.386 OA
HETATM   19  C3  UNL     1      26.755  -1.262  52.449  1.00  0.00     0.187 C 
HETATM   20  C4  UNL     1      26.245   0.111  52.687  1.00  0.00     0.145 C 
BRANCH  16  21
HETATM   21  N1  UNL     1      28.669   1.129  54.881  1.00  0.00     0.103 N 
HETATM   22  H1  UNL     1      27.996   1.929  55.080  1.00  0.00     0.315 HD
HETATM   23  H2  UNL     1      29.620   1.557  54.904  1.00  0.00     0.315 HD
ENDBRANCH  16  21
ENDBRANCH  14  15
ENDBRANCH  13  14
ENDBRANCH   1  13
BRANCH  11  24
HETATM   24  O2  UNL     1      23.322   2.416  50.872  1.00  0.00    -0.348 OA
BRANCH  24  25
HETATM   25  C16 UNL     1      22.503   1.833  49.865  1.00  0.00     0.288 C 
HETATM   26 CL1  UNL     1      22.845   2.536  48.282  1.00  0.00    -0.102 Cl
ENDBRANCH  24  25
ENDBRANCH  11  24
TORSDOF 6
ENDMDL
MODEL 5
REMARK VINA RESULT:      -7.0      2.832      5.175
REMARK  6 active torsions:
REMARK  status: ('A' for Active; 'I' for Inactive)
REMARK    1  A    between atoms: N1_1  and  C1_2 
REMARK    2  A    between atoms: N2_7  and  C5_8 
REMARK    3  A    between atoms: C5_8  and  C6_9 
REMARK    4  A    between atoms: C6_9  and  C7_10 
REMARK    5  A    between atoms: C15_20  and  O2_21 
REMARK    6  A    between atoms: O2_21  and  C16_22 
ROOT
HETATM    1  C7  UNL     1      23.612   1.839  51.992  1.00  0.00     0.045 C 
HETATM    2  N3  UNL     1      22.679   1.850  51.101  1.00  0.00    -0.274 NA
HETATM    3  C8  UNL     1      21.627   0.962  50.707  1.00  0.00     0.270 C 
HETATM    4  N4  UNL     1      21.020   0.198  51.765  1.00  0.00    -0.374 N 
HETATM    5  C9  UNL     1      21.595  -0.365  52.938  1.00  0.00     0.021 A 
HETATM    6  C10 UNL     1      22.791  -0.153  53.469  1.00  0.00     0.000 A 
HETATM    7  C11 UNL     1      22.939  -0.965  54.692  1.00  0.00     0.011 A 
HETATM    8  C12 UNL     1      21.823  -1.644  54.865  1.00  0.00    -0.020 A 
HETATM    9  C13 UNL     1      20.844  -1.353  53.788  1.00  0.00     0.084 A 
HETATM   10  C14 UNL     1      23.797   0.750  52.913  1.00  0.00     0.022 C 
HETATM   11  C15 UNL     1      25.017   0.489  53.342  1.00  0.00     0.150 C 
HETATM   12  H16 UNL     1      19.988   0.015  51.679  1.00  0.00     0.161 HD
ENDROOT
BRANCH   1  13
HETATM   13  C6  UNL     1      24.597   2.968  52.160  1.00  0.00     0.079 C 
BRANCH  13  14
HETATM   14  C5  UNL     1      24.965   3.583  50.863  1.00  0.00     0.125 C 
BRANCH  14  15
HETATM   15  N2  UNL     1      24.312   4.805  50.506  1.00  0.00    -0.381 N 
HETATM   16  C1  UNL     1      23.592   5.445  51.544  1.00  0.00     0.338 C 
HETATM   17  C2  UNL     1      22.235   5.985  51.185  1.00  0.00     0.224 C 
HETATM   18  O1  UNL     1      22.078   6.270  49.846  1.00  0.00    -0.386 OA
HETATM   19  C3  UNL     1      22.284   5.095  49.100  1.00  0.00     0.187 C 
HETATM   20  C4  UNL     1      23.727   4.765  49.213  1.00  0.00     0.145 C 
BRANCH  16  21
HETATM   21  N1  UNL     1      24.394   6.577  52.041  1.00  0.00     0.103 N 
HETATM   22  H1  UNL     1      24.126   7.447  51.491  1.00  0.00     0.315 HD
HETATM   23  H2  UNL     1      25.377   6.368  51.764  1.00  0.00     0.315 HD
ENDBRANCH  16  21
ENDBRANCH  14  15
ENDBRANCH  13  14
ENDBRANCH   1  13
BRANCH  11  24
HETATM   24  O2  UNL     1      26.348   0.822  53.303  1.00  0.00    -0.348 OA
BRANCH  24  25
HETATM   25  C16 UNL     1      27.375  -0.127  53.041  1.00  0.00     0.288 C 
HETATM   26 CL1  UNL     1      26.700  -1.645  52.445  1.00  0.00    -0.102 Cl
ENDBRANCH  24  25
ENDBRANCH  11  24
TORSDOF 6
ENDMDL
MODEL 6
REMARK VINA RESULT:      -7.0      2.996      6.638
REMARK  6 active torsions:
REMARK  status: ('A' for Active; 'I' for Inactive)
REMARK    1  A    between atoms: N1_1  and  C1_2 
REMARK    2  A    between atoms: N2_7  and  C5_8 
REMARK    3  A    between atoms: C5_8  and  C6_9 
REMARK    4  A    between atoms: C6_9  and  C7_10 
REMARK    5  A    between atoms: C15_20  and  O2_21 
REMARK    6  A    between atoms: O2_21  and  C16_22 
ROOT
HETATM    1  C7  UNL     1      24.285   3.216  51.353  1.00  0.00     0.045 C 
HETATM    2  N3  UNL     1      23.575   4.235  51.699  1.00  0.00    -0.274 NA
HETATM    3  C8  UNL     1      23.736   5.658  51.663  1.00  0.00     0.270 C 
HETATM    4  N4  UNL     1      24.479   6.177  50.545  1.00  0.00    -0.374 N 
HETATM    5  C9  UNL     1      25.596   5.634  49.852  1.00  0.00     0.021 A 
HETATM    6  C10 UNL     1      26.109   4.414  49.917  1.00  0.00     0.000 A 
HETATM    7  C11 UNL     1      27.271   4.317  49.011  1.00  0.00     0.011 A 
HETATM    8  C12 UNL     1      27.423   5.486  48.423  1.00  0.00    -0.020 A 
HETATM    9  C13 UNL     1      26.394   6.456  48.876  1.00  0.00     0.084 A 
HETATM   10  C14 UNL     1      25.591   3.341  50.764  1.00  0.00     0.022 C 
HETATM   11  C15 UNL     1      26.476   2.388  50.987  1.00  0.00     0.150 C 
HETATM   12  H16 UNL     1      24.163   7.105  50.163  1.00  0.00     0.161 HD
ENDROOT
BRANCH   1  13
HETATM   13  C6  UNL     1      23.816   1.794  51.527  1.00  0.00     0.079 C 
BRANCH  13  14
HETATM   14  C5  UNL     1      23.456   1.495  52.934  1.00  0.00     0.125 C 
BRANCH  14  15
HETATM   15  N2  UNL     1      22.762   0.270  53.188  1.00  0.00    -0.381 N 
HETATM   16  C1  UNL     1      21.392   0.396  53.523  1.00  0.00     0.338 C 
HETATM   17  C2  UNL     1      20.898  -0.455  54.660  1.00  0.00     0.224 C 
HETATM   18  O1  UNL     1      21.646  -1.591  54.880  1.00  0.00    -0.386 OA
HETATM   19  C3  UNL     1      22.972  -1.219  55.166  1.00  0.00     0.187 C 
HETATM   20  C4  UNL     1      23.543  -0.672  53.909  1.00  0.00     0.145 C 
BRANCH  16  21
HETATM   21  N1  UNL     1      20.586   0.050  52.338  1.00  0.00     0.103 N 
HETATM   22  H1  UNL     1      19.738   0.693  52.309  1.00  0.00     0.315 HD
HETATM   23  H2  UNL     1      20.204  -0.901  52.527  1.00  0.00     0.315 HD
ENDBRANCH  16  21
ENDBRANCH  14  15
ENDBRANCH  13  14
ENDBRANCH   1  13
BRANCH  11  24
HETATM   24  O2  UNL     1      26.751   1.191  51.599  1.00  0.00    -0.348 OA
BRANCH  24  25
HETATM   25  C16 UNL     1      27.452   1.097  52.834  1.00  0.00     0.288 C 
HETATM   26 CL1  UNL     1      27.867  -0.579  53.202  1.00  0.00    -0.102 Cl
ENDBRANCH  24  25
ENDBRANCH  11  24
TORSDOF 6
ENDMDL
MODEL 7
REMARK VINA RESULT:      -6.9      2.719      6.192
REMARK  6 active torsions:
REMARK  status: ('A' for Active; 'I' for Inactive)
REMARK    1  A    between atoms: N1_1  and  C1_2 
REMARK    2  A    between atoms: N2_7  and  C5_8 
REMARK    3  A    between atoms: C5_8  and  C6_9 
REMARK    4  A    between atoms: C6_9  and  C7_10 
REMARK    5  A    between atoms: C15_20  and  O2_21 
REMARK    6  A    between atoms: O2_21  and  C16_22 
ROOT
HETATM    1  C7  UNL     1      24.913   1.195  52.256  1.00  0.00     0.045 C 
HETATM    2  N3  UNL     1      24.573   0.104  52.854  1.00  0.00    -0.274 NA
HETATM    3  C8  UNL     1      25.258  -0.922  53.582  1.00  0.00     0.270 C 
HETATM    4  N4  UNL     1      26.386  -0.491  54.365  1.00  0.00    -0.374 N 
HETATM    5  C9  UNL     1      27.351   0.522  54.106  1.00  0.00     0.021 A 
HETATM    6  C10 UNL     1      27.339   1.472  53.182  1.00  0.00     0.000 A 
HETATM    7  C11 UNL     1      28.562   2.291  53.301  1.00  0.00     0.011 A 
HETATM    8  C12 UNL     1      29.276   1.809  54.298  1.00  0.00    -0.020 A 
HETATM    9  C13 UNL     1      28.607   0.641  54.925  1.00  0.00     0.084 A 
HETATM   10  C14 UNL     1      26.271   1.664  52.203  1.00  0.00     0.022 C 
HETATM   11  C15 UNL     1      26.655   2.365  51.153  1.00  0.00     0.150 C 
HETATM   12  H16 UNL     1      26.541  -0.990  55.277  1.00  0.00     0.161 HD
ENDROOT
BRANCH   1  13
HETATM   13  C6  UNL     1      23.920   2.088  51.557  1.00  0.00     0.079 C 
BRANCH  13  14
HETATM   14  C5  UNL     1      22.736   2.373  52.402  1.00  0.00     0.125 C 
BRANCH  14  15
HETATM   15  N2  UNL     1      22.128   3.661  52.268  1.00  0.00    -0.381 N 
HETATM   16  C1  UNL     1      21.175   3.788  51.229  1.00  0.00     0.338 C 
HETATM   17  C2  UNL     1      21.253   5.038  50.396  1.00  0.00     0.224 C 
HETATM   18  O1  UNL     1      21.846   6.105  51.035  1.00  0.00    -0.386 OA
HETATM   19  C3  UNL     1      23.157   5.750  51.400  1.00  0.00     0.187 C 
HETATM   20  C4  UNL     1      23.041   4.730  52.472  1.00  0.00     0.145 C 
BRANCH  16  21
HETATM   21  N1  UNL     1      19.827   3.743  51.822  1.00  0.00     0.103 N 
HETATM   22  H1  UNL     1      19.915   3.892  52.871  1.00  0.00     0.315 HD
HETATM   23  H2  UNL     1      19.504   2.758  51.710  1.00  0.00     0.315 HD
ENDBRANCH  16  21
ENDBRANCH  14  15
ENDBRANCH  13  14
ENDBRANCH   1  13
BRANCH  11  24
HETATM   24  O2  UNL     1      26.307   2.913  49.944  1.00  0.00    -0.348 OA
BRANCH  24  25
HETATM   25  C16 UNL     1      26.273   4.317  49.712  1.00  0.00     0.288 C 
HETATM   26 CL1  UNL     1      27.547   4.808  48.594  1.00  0.00    -0.102 Cl
ENDBRANCH  24  25
ENDBRANCH  11  24
TORSDOF 6
ENDMDL
MODEL 8
REMARK VINA RESULT:      -6.9      2.332      3.273
REMARK  6 active torsions:
REMARK  status: ('A' for Active; 'I' for Inactive)
REMARK    1  A    between atoms: N1_1  and  C1_2 
REMARK    2  A    between atoms: N2_7  and  C5_8 
REMARK    3  A    between atoms: C5_8  and  C6_9 
REMARK    4  A    between atoms: C6_9  and  C7_10 
REMARK    5  A    between atoms: C15_20  and  O2_21 
REMARK    6  A    between atoms: O2_21  and  C16_22 
ROOT
HETATM    1  C7  UNL     1      24.189   1.663  51.907  1.00  0.00     0.045 C 
HETATM    2  N3  UNL     1      23.330   1.205  52.753  1.00  0.00    -0.274 NA
HETATM    3  C8  UNL     1      21.901   1.140  52.831  1.00  0.00     0.270 C 
HETATM    4  N4  UNL     1      21.211   0.963  51.580  1.00  0.00    -0.374 N 
HETATM    5  C9  UNL     1      21.515   1.466  50.284  1.00  0.00     0.021 A 
HETATM    6  C10 UNL     1      22.624   2.048  49.851  1.00  0.00     0.000 A 
HETATM    7  C11 UNL     1      22.472   2.401  48.426  1.00  0.00     0.011 A 
HETATM    8  C12 UNL     1      21.272   2.017  48.040  1.00  0.00    -0.020 A 
HETATM    9  C13 UNL     1      20.524   1.384  49.155  1.00  0.00     0.084 A 
HETATM   10  C14 UNL     1      23.806   2.297  50.674  1.00  0.00     0.022 C 
HETATM   11  C15 UNL     1      24.591   3.235  50.178  1.00  0.00     0.150 C 
HETATM   12  H16 UNL     1      20.342   0.372  51.604  1.00  0.00     0.161 HD
ENDROOT
BRANCH   1  13
HETATM   13  C6  UNL     1      25.678   1.574  52.123  1.00  0.00     0.079 C 
BRANCH  13  14
HETATM   14  C5  UNL     1      26.025   1.441  53.558  1.00  0.00     0.125 C 
BRANCH  14  15
HETATM   15  N2  UNL     1      26.777   0.288  53.947  1.00  0.00    -0.381 N 
HETATM   16  C1  UNL     1      28.184   0.411  53.859  1.00  0.00     0.338 C 
HETATM   17  C2  UNL     1      28.925  -0.758  53.268  1.00  0.00     0.224 C 
HETATM   18  O1  UNL     1      28.260  -1.959  53.377  1.00  0.00    -0.386 OA
HETATM   19  C3  UNL     1      27.021  -1.859  52.720  1.00  0.00     0.187 C 
HETATM   20  C4  UNL     1      26.185  -0.931  53.522  1.00  0.00     0.145 C 
BRANCH  16  21
HETATM   21  N1  UNL     1      28.722   0.627  55.214  1.00  0.00     0.103 N 
HETATM   22  H1  UNL     1      27.905   0.714  55.890  1.00  0.00     0.315 HD
HETATM   23  H2  UNL     1      29.163   1.572  55.193  1.00  0.00     0.315 HD
ENDBRANCH  16  21
ENDBRANCH  14  15
ENDBRANCH  13  14
ENDBRANCH   1  13
BRANCH  11  24
HETATM   24  O2  UNL     1      25.742   3.968  50.321  1.00  0.00    -0.348 OA
BRANCH  24  25
HETATM   25  C16 UNL     1      26.818   3.908  49.392  1.00  0.00     0.288 C 
HETATM   26 CL1  UNL     1      27.075   5.472  48.616  1.00  0.00    -0.102 Cl
ENDBRANCH  24  25
ENDBRANCH  11  24
TORSDOF 6
ENDMDL
MODEL 9
REMARK VINA RESULT:      -6.7      3.581      5.905
REMARK  6 active torsions:
REMARK  status: ('A' for Active; 'I' for Inactive)
REMARK    1  A    between atoms: N1_1  and  C1_2 
REMARK    2  A    between atoms: N2_7  and  C5_8 
REMARK    3  A    between atoms: C5_8  and  C6_9 
REMARK    4  A    between atoms: C6_9  and  C7_10 
REMARK    5  A    between atoms: C15_20  and  O2_21 
REMARK    6  A    between atoms: O2_21  and  C16_22 
ROOT
HETATM    1  C7  UNL     1      25.032   3.163  51.099  1.00  0.00     0.045 C 
HETATM    2  N3  UNL     1      26.279   2.853  51.203  1.00  0.00    -0.274 NA
HETATM    3  C8  UNL     1      27.061   2.025  52.072  1.00  0.00     0.270 C 
HETATM    4  N4  UNL     1      26.415   0.831  52.552  1.00  0.00    -0.374 N 
HETATM    5  C9  UNL     1      25.056   0.599  52.901  1.00  0.00     0.021 A 
HETATM    6  C10 UNL     1      23.993   1.357  52.675  1.00  0.00     0.000 A 
HETATM    7  C11 UNL     1      22.791   0.699  53.224  1.00  0.00     0.011 A 
HETATM    8  C12 UNL     1      23.167  -0.442  53.767  1.00  0.00    -0.020 A 
HETATM    9  C13 UNL     1      24.632  -0.645  53.633  1.00  0.00     0.084 A 
HETATM   10  C14 UNL     1      24.024   2.646  51.985  1.00  0.00     0.022 C 
HETATM   11  C15 UNL     1      22.967   3.393  52.243  1.00  0.00     0.150 C 
HETATM   12  H16 UNL     1      27.026  -0.016  52.671  1.00  0.00     0.161 HD
ENDROOT
BRANCH   1  13
HETATM   13  C6  UNL     1      24.506   4.095  50.037  1.00  0.00     0.079 C 
BRANCH  13  14
HETATM   14  C5  UNL     1      25.564   4.986  49.505  1.00  0.00     0.125 C 
BRANCH  14  15
HETATM   15  N2  UNL     1      25.654   6.302  50.060  1.00  0.00    -0.381 N 
HETATM   16  C1  UNL     1      24.446   6.844  50.560  1.00  0.00     0.338 C 
HETATM   17  C2  UNL     1      24.161   8.280  50.218  1.00  0.00     0.224 C 
HETATM   18  O1  UNL     1      25.285   9.026  49.938  1.00  0.00    -0.386 OA
HETATM   19  C3  UNL     1      25.960   8.449  48.847  1.00  0.00     0.187 C 
HETATM   20  C4  UNL     1      26.516   7.157  49.323  1.00  0.00     0.145 C 
BRANCH  16  21
HETATM   21  N1  UNL     1      24.460   6.742  52.030  1.00  0.00     0.103 N 
HETATM   22  H1  UNL     1      23.481   6.490  52.361  1.00  0.00     0.315 HD
HETATM   23  H2  UNL     1      24.628   7.710  52.378  1.00  0.00     0.315 HD
ENDBRANCH  16  21
ENDBRANCH  14  15
ENDBRANCH  13  14
ENDBRANCH   1  13
BRANCH  11  24
HETATM   24  O2  UNL     1      22.317   4.582  52.026  1.00  0.00    -0.348 OA
BRANCH  24  25
HETATM   25  C16 UNL     1      21.063   4.667  51.358  1.00  0.00     0.288 C 
HETATM   26 CL1  UNL     1      20.937   6.164  50.432  1.00  0.00    -0.102 Cl
ENDBRANCH  24  25
ENDBRANCH  11  24
TORSDOF 6
ENDMDL
