MODEL 1
REMARK VINA RESULT:      -8.3      0.000      0.000
REMARK  8 active torsions:
REMARK  status: ('A' for Active; 'I' for Inactive)
REMARK    1  A    between atoms: C2_2  and  C19_23 
REMARK    2  A    between atoms: C3_3  and  C4_4 
REMARK    3  A    between atoms: C5_5  and  C6_6 
REMARK    4  A    between atoms: C6_6  and  C8_9 
REMARK    5  A    between atoms: C6_6  and  C16_17 
REMARK    6  A    between atoms: C8_9  and  C9_10 
REMARK    7  A    between atoms: C17_19  and  O1_20 
REMARK    8  A    between atoms: C19_23  and  N3_24 
ROOT
HETATM    1  C6  UNL     1      24.177   1.269  52.274  1.00  0.00     0.121 C 
HETATM    2  C7  UNL     1      24.544   2.374  53.168  1.00  0.00     0.081 C 
HETATM    3  N1  UNL     1      24.841   3.240  53.884  1.00  0.00    -0.196 NA
ENDROOT
BRANCH   1   4
HETATM    4  C5  UNL     1      25.417   0.411  52.132  1.00  0.00     0.005 C 
HETATM    5  C4  UNL     1      26.421   0.607  52.972  1.00  0.00    -0.002 C 
BRANCH   5   6
HETATM    6  C3  UNL     1      27.621  -0.212  52.845  1.00  0.00     0.004 C 
HETATM    7  C2  UNL     1      28.656  -0.127  53.664  1.00  0.00    -0.056 C 
HETATM    8  C1  UNL     1      29.888  -0.944  53.562  1.00  0.00     0.045 C 
BRANCH   7   9
HETATM    9  C19 UNL     1      28.854   0.750  54.829  1.00  0.00     0.300 C 
BRANCH   9  10
HETATM   10  N3  UNL     1      29.484   2.011  54.468  1.00  0.00     0.082 N 
HETATM   11  H20 UNL     1      29.394   2.658  55.279  1.00  0.00     0.313 HD
HETATM   12  H21 UNL     1      29.042   2.446  53.628  1.00  0.00     0.313 HD
ENDBRANCH   9  10
ENDBRANCH   7   9
ENDBRANCH   5   6
ENDBRANCH   1   4
BRANCH   1  13
HETATM   13  C8  UNL     1      23.851   1.723  50.901  1.00  0.00     0.074 C 
BRANCH  13  14
HETATM   14  C9  UNL     1      24.770   2.738  50.349  1.00  0.00    -0.056 A 
HETATM   15  C10 UNL     1      26.118   2.750  50.117  1.00  0.00     0.007 A 
HETATM   16  C11 UNL     1      26.734   3.845  49.553  1.00  0.00     0.007 A 
HETATM   17  C12 UNL     1      26.047   4.981  49.192  1.00  0.00    -0.062 A 
HETATM   18  C13 UNL     1      26.774   6.127  48.588  1.00  0.00     0.048 C 
HETATM   19  C14 UNL     1      24.685   4.991  49.418  1.00  0.00     0.007 A 
HETATM   20  C15 UNL     1      24.067   3.878  49.990  1.00  0.00     0.007 A 
ENDBRANCH  13  14
ENDBRANCH   1  13
BRANCH   1  21
HETATM   21  C16 UNL     1      23.161   0.444  52.947  1.00  0.00     0.104 A 
HETATM   22  N2  UNL     1      23.507  -0.173  53.884  1.00  0.00    -0.220 NA
HETATM   23  C17 UNL     1      22.759  -0.972  54.638  1.00  0.00     0.169 A 
HETATM   24  C18 UNL     1      21.455  -1.113  54.319  1.00  0.00     0.109 A 
HETATM   25  S1  UNL     1      21.381   0.005  52.832  1.00  0.00    -0.080 SA
BRANCH  23  26
HETATM   26  O1  UNL     1      22.995  -1.774  55.775  1.00  0.00    -0.344 OA
HETATM   27  H16 UNL     1      23.440  -2.684  55.696  1.00  0.00     0.219 HD
ENDBRANCH  23  26
ENDBRANCH   1  21
TORSDOF 8
ENDMDL
MODEL 2
REMARK VINA RESULT:      -8.3      2.625      6.061
REMARK  8 active torsions:
REMARK  status: ('A' for Active; 'I' for Inactive)
REMARK    1  A    between atoms: C2_2  and  C19_23 
REMARK    2  A    between atoms: C3_3  and  C4_4 
REMARK    3  A    between atoms: C5_5  and  C6_6 
REMARK    4  A    between atoms: C6_6  and  C8_9 
REMARK    5  A    between atoms: C6_6  and  C16_17 
REMARK    6  A    between atoms: C8_9  and  C9_10 
REMARK    7  A    between atoms: C17_19  and  O1_20 
REMARK    8  A    between atoms: C19_23  and  N3_24 
ROOT
HETATM    1  C6  UNL     1      26.571   1.176  52.527  1.00  0.00     0.121 C 
HETATM    2  C7  UNL     1      26.071   1.966  53.659  1.00  0.00     0.081 C 
HETATM    3  N1  UNL     1      25.686   2.600  54.555  1.00  0.00    -0.196 NA
ENDROOT
BRANCH   1   4
HETATM    4  C5  UNL     1      27.088   2.174  51.512  1.00  0.00     0.005 C 
HETATM    5  C4  UNL     1      26.231   2.706  50.654  1.00  0.00    -0.002 C 
BRANCH   5   6
HETATM    6  C3  UNL     1      26.718   3.668  49.672  1.00  0.00     0.004 C 
HETATM    7  C2  UNL     1      26.228   4.889  49.539  1.00  0.00    -0.056 C 
HETATM    8  C1  UNL     1      26.699   5.889  48.552  1.00  0.00     0.045 C 
BRANCH   7   9
HETATM    9  C19 UNL     1      25.145   5.546  50.288  1.00  0.00     0.300 C 
BRANCH   9  10
HETATM   10  N3  UNL     1      25.558   6.825  50.846  1.00  0.00     0.082 N 
HETATM   11  H20 UNL     1      26.426   7.123  50.353  1.00  0.00     0.313 HD
HETATM   12  H21 UNL     1      25.747   6.765  51.871  1.00  0.00     0.313 HD
ENDBRANCH   9  10
ENDBRANCH   7   9
ENDBRANCH   5   6
ENDBRANCH   1   4
BRANCH   1  13
HETATM   13  C8  UNL     1      25.499   0.425  51.832  1.00  0.00     0.074 C 
BRANCH  13  14
HETATM   14  C9  UNL     1      24.171   0.507  52.468  1.00  0.00    -0.056 A 
HETATM   15  C10 UNL     1      23.109   1.356  52.310  1.00  0.00     0.007 A 
HETATM   16  C11 UNL     1      21.947   1.186  53.030  1.00  0.00     0.007 A 
HETATM   17  C12 UNL     1      21.780   0.171  53.943  1.00  0.00    -0.062 A 
HETATM   18  C13 UNL     1      20.500   0.046  54.687  1.00  0.00     0.048 C 
HETATM   19  C14 UNL     1      22.838  -0.697  54.120  1.00  0.00     0.007 A 
HETATM   20  C15 UNL     1      24.013  -0.521  53.387  1.00  0.00     0.007 A 
ENDBRANCH  13  14
ENDBRANCH   1  13
BRANCH   1  21
HETATM   21  C16 UNL     1      27.728   0.391  52.984  1.00  0.00     0.104 A 
HETATM   22  N2  UNL     1      27.662  -0.776  52.871  1.00  0.00    -0.220 NA
HETATM   23  C17 UNL     1      28.586  -1.668  53.211  1.00  0.00     0.169 A 
HETATM   24  C18 UNL     1      29.740  -1.217  53.747  1.00  0.00     0.109 A 
HETATM   25  S1  UNL     1      29.393   0.612  53.727  1.00  0.00    -0.080 SA
BRANCH  23  26
HETATM   26  O1  UNL     1      28.681  -3.075  53.152  1.00  0.00    -0.344 OA
HETATM   27  H16 UNL     1      29.511  -3.563  53.475  1.00  0.00     0.219 HD
ENDBRANCH  23  26
ENDBRANCH   1  21
TORSDOF 8
ENDMDL
MODEL 3
REMARK VINA RESULT:      -8.2      2.626      6.093
REMARK  8 active torsions:
REMARK  status: ('A' for Active; 'I' for Inactive)
REMARK    1  A    between atoms: C2_2  and  C19_23 
REMARK    2  A    between atoms: C3_3  and  C4_4 
REMARK    3  A    between atoms: C5_5  and  C6_6 
REMARK    4  A    between atoms: C6_6  and  C8_9 
REMARK    5  A    between atoms: C6_6  and  C16_17 
REMARK    6  A    between atoms: C8_9  and  C9_10 
REMARK    7  A    between atoms: C17_19  and  O1_20 
REMARK    8  A    between atoms: C19_23  and  N3_24 
ROOT
HETATM    1  C6  UNL     1      25.915   1.992  52.227  1.00  0.00     0.121 C 
HETATM    2  C7  UNL     1      25.116   2.895  53.065  1.00  0.00     0.081 C 
HETATM    3  N1  UNL     1      24.494   3.618  53.729  1.00  0.00    -0.196 NA
ENDROOT
BRANCH   1   4
HETATM    4  C5  UNL     1      26.631   2.872  51.223  1.00  0.00     0.005 C 
HETATM    5  C4  UNL     1      25.924   3.425  50.250  1.00  0.00    -0.002 C 
BRANCH   5   6
HETATM    6  C3  UNL     1      26.602   4.273  49.277  1.00  0.00     0.004 C 
HETATM    7  C2  UNL     1      26.390   5.574  49.167  1.00  0.00    -0.056 C 
HETATM    8  C1  UNL     1      27.061   6.463  48.190  1.00  0.00     0.045 C 
BRANCH   7   9
HETATM    9  C19 UNL     1      25.482   6.440  49.937  1.00  0.00     0.300 C 
BRANCH   9  10
HETATM   10  N3  UNL     1      26.200   7.455  50.694  1.00  0.00     0.082 N 
HETATM   11  H20 UNL     1      25.555   7.824  51.425  1.00  0.00     0.313 HD
HETATM   12  H21 UNL     1      26.523   8.242  50.089  1.00  0.00     0.313 HD
ENDBRANCH   9  10
ENDBRANCH   7   9
ENDBRANCH   5   6
ENDBRANCH   1   4
BRANCH   1  13
HETATM   13  C8  UNL     1      25.083   1.068  51.421  1.00  0.00     0.074 C 
BRANCH  13  14
HETATM   14  C9  UNL     1      23.867   0.579  52.097  1.00  0.00    -0.056 A 
HETATM   15  C10 UNL     1      23.661  -0.191  53.210  1.00  0.00     0.007 A 
HETATM   16  C11 UNL     1      22.388  -0.482  53.650  1.00  0.00     0.007 A 
HETATM   17  C12 UNL     1      21.259  -0.028  53.009  1.00  0.00    -0.062 A 
HETATM   18  C13 UNL     1      19.915  -0.381  53.537  1.00  0.00     0.048 C 
HETATM   19  C14 UNL     1      21.442   0.748  51.884  1.00  0.00     0.007 A 
HETATM   20  C15 UNL     1      22.734   1.041  51.443  1.00  0.00     0.007 A 
ENDBRANCH  13  14
ENDBRANCH   1  13
BRANCH   1  21
HETATM   21  C16 UNL     1      26.951   1.373  53.068  1.00  0.00     0.104 A 
HETATM   22  N2  UNL     1      27.784   2.079  53.500  1.00  0.00    -0.220 NA
HETATM   23  C17 UNL     1      28.803   1.733  54.280  1.00  0.00     0.169 A 
HETATM   24  C18 UNL     1      28.924   0.436  54.634  1.00  0.00     0.109 A 
HETATM   25  S1  UNL     1      27.441  -0.262  53.749  1.00  0.00    -0.080 SA
BRANCH  23  26
HETATM   26  O1  UNL     1      29.876   2.426  54.881  1.00  0.00    -0.344 OA
HETATM   27  H16 UNL     1      30.840   2.148  54.721  1.00  0.00     0.219 HD
ENDBRANCH  23  26
ENDBRANCH   1  21
TORSDOF 8
ENDMDL
MODEL 4
REMARK VINA RESULT:      -7.8      2.034      2.192
REMARK  8 active torsions:
REMARK  status: ('A' for Active; 'I' for Inactive)
REMARK    1  A    between atoms: C2_2  and  C19_23 
REMARK    2  A    between atoms: C3_3  and  C4_4 
REMARK    3  A    between atoms: C5_5  and  C6_6 
REMARK    4  A    between atoms: C6_6  and  C8_9 
REMARK    5  A    between atoms: C6_6  and  C16_17 
REMARK    6  A    between atoms: C8_9  and  C9_10 
REMARK    7  A    between atoms: C17_19  and  O1_20 
REMARK    8  A    between atoms: C19_23  and  N3_24 
ROOT
HETATM    1  C6  UNL     1      23.529   2.169  51.566  1.00  0.00     0.121 C 
HETATM    2  C7  UNL     1      23.697   3.338  52.439  1.00  0.00     0.081 C 
HETATM    3  N1  UNL     1      23.835   4.255  53.139  1.00  0.00    -0.196 NA
ENDROOT
BRANCH   1   4
HETATM    4  C5  UNL     1      24.721   1.272  51.826  1.00  0.00     0.005 C 
HETATM    5  C4  UNL     1      25.233   1.240  53.047  1.00  0.00    -0.002 C 
BRANCH   5   6
HETATM    6  C3  UNL     1      26.381   0.381  53.310  1.00  0.00     0.004 C 
HETATM    7  C2  UNL     1      27.608   0.836  53.502  1.00  0.00    -0.056 C 
HETATM    8  C1  UNL     1      28.794  -0.009  53.771  1.00  0.00     0.045 C 
BRANCH   7   9
HETATM    9  C19 UNL     1      28.099   2.224  53.500  1.00  0.00     0.300 C 
BRANCH   9  10
HETATM   10  N3  UNL     1      29.373   2.359  54.190  1.00  0.00     0.082 N 
HETATM   11  H20 UNL     1      29.300   1.854  55.098  1.00  0.00     0.313 HD
HETATM   12  H21 UNL     1      29.620   3.357  54.368  1.00  0.00     0.313 HD
ENDBRANCH   9  10
ENDBRANCH   7   9
ENDBRANCH   5   6
ENDBRANCH   1   4
BRANCH   1  13
HETATM   13  C8  UNL     1      23.599   2.512  50.125  1.00  0.00     0.074 C 
BRANCH  13  14
HETATM   14  C9  UNL     1      24.751   3.351  49.743  1.00  0.00    -0.056 A 
HETATM   15  C10 UNL     1      26.100   3.125  49.704  1.00  0.00     0.007 A 
HETATM   16  C11 UNL     1      26.974   4.098  49.269  1.00  0.00     0.007 A 
HETATM   17  C12 UNL     1      26.555   5.341  48.854  1.00  0.00    -0.062 A 
HETATM   18  C13 UNL     1      27.551   6.344  48.397  1.00  0.00     0.048 C 
HETATM   19  C14 UNL     1      25.198   5.591  48.886  1.00  0.00     0.007 A 
HETATM   20  C15 UNL     1      24.318   4.602  49.327  1.00  0.00     0.007 A 
ENDBRANCH  13  14
ENDBRANCH   1  13
BRANCH   1  21
HETATM   21  C16 UNL     1      22.334   1.431  52.003  1.00  0.00     0.104 A 
HETATM   22  N2  UNL     1      21.449   1.340  51.236  1.00  0.00    -0.220 NA
HETATM   23  C17 UNL     1      20.290   0.718  51.420  1.00  0.00     0.169 A 
HETATM   24  C18 UNL     1      20.072   0.113  52.607  1.00  0.00     0.109 A 
HETATM   25  S1  UNL     1      21.682   0.511  53.453  1.00  0.00    -0.080 SA
BRANCH  23  26
HETATM   26  O1  UNL     1      19.137   0.509  50.633  1.00  0.00    -0.344 OA
HETATM   27  H16 UNL     1      19.126   0.733  49.642  1.00  0.00     0.219 HD
ENDBRANCH  23  26
ENDBRANCH   1  21
TORSDOF 8
ENDMDL
MODEL 5
REMARK VINA RESULT:      -7.8      1.491      1.655
REMARK  8 active torsions:
REMARK  status: ('A' for Active; 'I' for Inactive)
REMARK    1  A    between atoms: C2_2  and  C19_23 
REMARK    2  A    between atoms: C3_3  and  C4_4 
REMARK    3  A    between atoms: C5_5  and  C6_6 
REMARK    4  A    between atoms: C6_6  and  C8_9 
REMARK    5  A    between atoms: C6_6  and  C16_17 
REMARK    6  A    between atoms: C8_9  and  C9_10 
REMARK    7  A    between atoms: C17_19  and  O1_20 
REMARK    8  A    between atoms: C19_23  and  N3_24 
ROOT
HETATM    1  C6  UNL     1      23.951   2.336  51.644  1.00  0.00     0.121 C 
HETATM    2  C7  UNL     1      23.670   3.616  52.305  1.00  0.00     0.081 C 
HETATM    3  N1  UNL     1      23.453   4.625  52.840  1.00  0.00    -0.196 NA
ENDROOT
BRANCH   1   4
HETATM    4  C5  UNL     1      25.316   1.898  52.134  1.00  0.00     0.005 C 
HETATM    5  C4  UNL     1      25.722   0.669  51.859  1.00  0.00    -0.002 C 
BRANCH   5   6
HETATM    6  C3  UNL     1      27.034   0.236  52.326  1.00  0.00     0.004 C 
HETATM    7  C2  UNL     1      27.330   0.039  53.600  1.00  0.00    -0.056 C 
HETATM    8  C1  UNL     1      28.652  -0.399  54.106  1.00  0.00     0.045 C 
BRANCH   7   9
HETATM    9  C19 UNL     1      26.478   0.195  54.790  1.00  0.00     0.300 C 
BRANCH   9  10
HETATM   10  N3  UNL     1      25.709  -1.007  55.077  1.00  0.00     0.082 N 
HETATM   11  H20 UNL     1      25.215  -1.287  54.204  1.00  0.00     0.313 HD
HETATM   12  H21 UNL     1      25.009  -0.854  55.836  1.00  0.00     0.313 HD
ENDBRANCH   9  10
ENDBRANCH   7   9
ENDBRANCH   5   6
ENDBRANCH   1   4
BRANCH   1  13
HETATM   13  C8  UNL     1      24.081   2.464  50.173  1.00  0.00     0.074 C 
BRANCH  13  14
HETATM   14  C9  UNL     1      25.120   3.409  49.722  1.00  0.00    -0.056 A 
HETATM   15  C10 UNL     1      26.476   3.305  49.568  1.00  0.00     0.007 A 
HETATM   16  C11 UNL     1      27.223   4.360  49.091  1.00  0.00     0.007 A 
HETATM   17  C12 UNL     1      26.665   5.569  48.746  1.00  0.00    -0.062 A 
HETATM   18  C13 UNL     1      27.529   6.666  48.238  1.00  0.00     0.048 C 
HETATM   19  C14 UNL     1      25.299   5.698  48.894  1.00  0.00     0.007 A 
HETATM   20  C15 UNL     1      24.548   4.625  49.377  1.00  0.00     0.007 A 
ENDBRANCH  13  14
ENDBRANCH   1  13
BRANCH   1  21
HETATM   21  C16 UNL     1      22.983   1.340  52.129  1.00  0.00     0.104 A 
HETATM   22  N2  UNL     1      23.193   0.855  53.177  1.00  0.00    -0.220 NA
HETATM   23  C17 UNL     1      22.452  -0.054  53.803  1.00  0.00     0.169 A 
HETATM   24  C18 UNL     1      21.329  -0.490  53.194  1.00  0.00     0.109 A 
HETATM   25  S1  UNL     1      21.416   0.519  51.632  1.00  0.00    -0.080 SA
BRANCH  23  26
HETATM   26  O1  UNL     1      22.544  -0.736  55.036  1.00  0.00    -0.344 OA
HETATM   27  H16 UNL     1      22.683  -1.742  55.074  1.00  0.00     0.219 HD
ENDBRANCH  23  26
ENDBRANCH   1  21
TORSDOF 8
ENDMDL
MODEL 6
REMARK VINA RESULT:      -7.7      3.359      5.904
REMARK  8 active torsions:
REMARK  status: ('A' for Active; 'I' for Inactive)
REMARK    1  A    between atoms: C2_2  and  C19_23 
REMARK    2  A    between atoms: C3_3  and  C4_4 
REMARK    3  A    between atoms: C5_5  and  C6_6 
REMARK    4  A    between atoms: C6_6  and  C8_9 
REMARK    5  A    between atoms: C6_6  and  C16_17 
REMARK    6  A    between atoms: C8_9  and  C9_10 
REMARK    7  A    between atoms: C17_19  and  O1_20 
REMARK    8  A    between atoms: C19_23  and  N3_24 
ROOT
HETATM    1  C6  UNL     1      24.036   2.972  51.151  1.00  0.00     0.121 C 
HETATM    2  C7  UNL     1      23.182   2.457  50.073  1.00  0.00     0.081 C 
HETATM    3  N1  UNL     1      22.516   2.047  49.213  1.00  0.00    -0.196 NA
ENDROOT
BRANCH   1   4
HETATM    4  C5  UNL     1      25.217   2.028  51.239  1.00  0.00     0.005 C 
HETATM    5  C4  UNL     1      25.999   2.092  52.306  1.00  0.00    -0.002 C 
BRANCH   5   6
HETATM    6  C3  UNL     1      27.140   1.189  52.402  1.00  0.00     0.004 C 
HETATM    7  C2  UNL     1      27.382   0.425  53.455  1.00  0.00    -0.056 C 
HETATM    8  C1  UNL     1      28.531  -0.501  53.584  1.00  0.00     0.045 C 
BRANCH   7   9
HETATM    9  C19 UNL     1      26.624   0.299  54.710  1.00  0.00     0.300 C 
BRANCH   9  10
HETATM   10  N3  UNL     1      25.731  -0.850  54.700  1.00  0.00     0.082 N 
HETATM   11  H20 UNL     1      26.293  -1.695  54.937  1.00  0.00     0.313 HD
HETATM   12  H21 UNL     1      25.277  -0.988  53.770  1.00  0.00     0.313 HD
ENDBRANCH   9  10
ENDBRANCH   7   9
ENDBRANCH   5   6
ENDBRANCH   1   4
BRANCH   1  13
HETATM   13  C8  UNL     1      23.384   2.914  52.480  1.00  0.00     0.074 C 
BRANCH  13  14
HETATM   14  C9  UNL     1      22.420   1.810  52.651  1.00  0.00    -0.056 A 
HETATM   15  C10 UNL     1      22.566   0.471  52.896  1.00  0.00     0.007 A 
HETATM   16  C11 UNL     1      21.469  -0.350  53.043  1.00  0.00     0.007 A 
HETATM   17  C12 UNL     1      20.177   0.112  52.952  1.00  0.00    -0.062 A 
HETATM   18  C13 UNL     1      19.039  -0.829  53.119  1.00  0.00     0.048 C 
HETATM   19  C14 UNL     1      20.006   1.459  52.704  1.00  0.00     0.007 A 
HETATM   20  C15 UNL     1      21.120   2.286  52.557  1.00  0.00     0.007 A 
ENDBRANCH  13  14
ENDBRANCH   1  13
BRANCH   1  21
HETATM   21  C16 UNL     1      24.565   4.282  50.739  1.00  0.00     0.104 A 
HETATM   22  N2  UNL     1      24.106   5.231  51.256  1.00  0.00    -0.220 NA
HETATM   23  C17 UNL     1      24.436   6.499  51.040  1.00  0.00     0.169 A 
HETATM   24  C18 UNL     1      25.402   6.762  50.134  1.00  0.00     0.109 A 
HETATM   25  S1  UNL     1      25.806   5.022  49.606  1.00  0.00    -0.080 SA
BRANCH  23  26
HETATM   26  O1  UNL     1      24.005   7.742  51.553  1.00  0.00    -0.344 OA
HETATM   27  H16 UNL     1      23.019   7.989  51.579  1.00  0.00     0.219 HD
ENDBRANCH  23  26
ENDBRANCH   1  21
TORSDOF 8
ENDMDL
MODEL 7
REMARK VINA RESULT:      -7.6      3.241      6.089
REMARK  8 active torsions:
REMARK  status: ('A' for Active; 'I' for Inactive)
REMARK    1  A    between atoms: C2_2  and  C19_23 
REMARK    2  A    between atoms: C3_3  and  C4_4 
REMARK    3  A    between atoms: C5_5  and  C6_6 
REMARK    4  A    between atoms: C6_6  and  C8_9 
REMARK    5  A    between atoms: C6_6  and  C16_17 
REMARK    6  A    between atoms: C8_9  and  C9_10 
REMARK    7  A    between atoms: C17_19  and  O1_20 
REMARK    8  A    between atoms: C19_23  and  N3_24 
ROOT
HETATM    1  C6  UNL     1      24.249   2.532  51.239  1.00  0.00     0.121 C 
HETATM    2  C7  UNL     1      23.915   3.600  52.189  1.00  0.00     0.081 C 
HETATM    3  N1  UNL     1      23.639   4.438  52.946  1.00  0.00    -0.196 NA
ENDROOT
BRANCH   1   4
HETATM    4  C5  UNL     1      23.984   1.227  51.960  1.00  0.00     0.005 C 
HETATM    5  C4  UNL     1      23.098   1.217  52.943  1.00  0.00    -0.002 C 
BRANCH   5   6
HETATM    6  C3  UNL     1      22.834  -0.034  53.645  1.00  0.00     0.004 C 
HETATM    7  C2  UNL     1      21.619  -0.505  53.871  1.00  0.00    -0.056 C 
HETATM    8  C1  UNL     1      21.318  -1.770  54.580  1.00  0.00     0.045 C 
BRANCH   7   9
HETATM    9  C19 UNL     1      20.314   0.067  53.502  1.00  0.00     0.300 C 
BRANCH   9  10
HETATM   10  N3  UNL     1      19.223  -0.874  53.708  1.00  0.00     0.082 N 
HETATM   11  H20 UNL     1      19.570  -1.825  53.463  1.00  0.00     0.313 HD
HETATM   12  H21 UNL     1      18.392  -0.647  53.118  1.00  0.00     0.313 HD
ENDBRANCH   9  10
ENDBRANCH   7   9
ENDBRANCH   5   6
ENDBRANCH   1   4
BRANCH   1  13
HETATM   13  C8  UNL     1      25.689   2.504  50.887  1.00  0.00     0.074 C 
BRANCH  13  14
HETATM   14  C9  UNL     1      26.508   1.582  51.698  1.00  0.00    -0.056 A 
HETATM   15  C10 UNL     1      26.549   0.219  51.807  1.00  0.00     0.007 A 
HETATM   16  C11 UNL     1      27.452  -0.403  52.641  1.00  0.00     0.007 A 
HETATM   17  C12 UNL     1      28.356   0.294  53.409  1.00  0.00    -0.062 A 
HETATM   18  C13 UNL     1      29.303  -0.439  54.288  1.00  0.00     0.048 C 
HETATM   19  C14 UNL     1      28.332   1.671  53.316  1.00  0.00     0.007 A 
HETATM   20  C15 UNL     1      27.415   2.295  52.469  1.00  0.00     0.007 A 
ENDBRANCH  13  14
ENDBRANCH   1  13
BRANCH   1  21
HETATM   21  C16 UNL     1      23.304   2.599  50.113  1.00  0.00     0.104 A 
HETATM   22  N2  UNL     1      23.392   3.523  49.394  1.00  0.00    -0.220 NA
HETATM   23  C17 UNL     1      22.650   3.778  48.322  1.00  0.00     0.169 A 
HETATM   24  C18 UNL     1      21.679   2.898  47.994  1.00  0.00     0.109 A 
HETATM   25  S1  UNL     1      21.916   1.658  49.363  1.00  0.00    -0.080 SA
BRANCH  23  26
HETATM   26  O1  UNL     1      22.610   4.812  47.361  1.00  0.00    -0.344 OA
HETATM   27  H16 UNL     1      21.806   4.937  46.753  1.00  0.00     0.219 HD
ENDBRANCH  23  26
ENDBRANCH   1  21
TORSDOF 8
ENDMDL
MODEL 8
REMARK VINA RESULT:      -7.4      3.761      6.514
REMARK  8 active torsions:
REMARK  status: ('A' for Active; 'I' for Inactive)
REMARK    1  A    between atoms: C2_2  and  C19_23 
REMARK    2  A    between atoms: C3_3  and  C4_4 
REMARK    3  A    between atoms: C5_5  and  C6_6 
REMARK    4  A    between atoms: C6_6  and  C8_9 
REMARK    5  A    between atoms: C6_6  and  C16_17 
REMARK    6  A    between atoms: C8_9  and  C9_10 
REMARK    7  A    between atoms: C17_19  and  O1_20 
REMARK    8  A    between atoms: C19_23  and  N3_24 
ROOT
HETATM    1  C6  UNL     1      24.081   3.940  51.085  1.00  0.00     0.121 C 
HETATM    2  C7  UNL     1      23.459   2.992  50.152  1.00  0.00     0.081 C 
HETATM    3  N1  UNL     1      22.973   2.248  49.404  1.00  0.00    -0.196 NA
ENDROOT
BRANCH   1   4
HETATM    4  C5  UNL     1      25.523   4.083  50.642  1.00  0.00     0.005 C 
HETATM    5  C4  UNL     1      25.776   4.231  49.352  1.00  0.00    -0.002 C 
BRANCH   5   6
HETATM    6  C3  UNL     1      27.160   4.369  48.913  1.00  0.00     0.004 C 
HETATM    7  C2  UNL     1      27.698   5.517  48.537  1.00  0.00    -0.056 C 
HETATM    8  C1  UNL     1      29.099   5.690  48.086  1.00  0.00     0.045 C 
BRANCH   7   9
HETATM    9  C19 UNL     1      27.087   6.854  48.465  1.00  0.00     0.300 C 
BRANCH   9  10
HETATM   10  N3  UNL     1      27.322   7.632  49.672  1.00  0.00     0.082 N 
HETATM   11  H20 UNL     1      26.577   7.389  50.359  1.00  0.00     0.313 HD
HETATM   12  H21 UNL     1      27.300   8.660  49.488  1.00  0.00     0.313 HD
ENDBRANCH   9  10
ENDBRANCH   7   9
ENDBRANCH   5   6
ENDBRANCH   1   4
BRANCH   1  13
HETATM   13  C8  UNL     1      24.143   3.425  52.474  1.00  0.00     0.074 C 
BRANCH  13  14
HETATM   14  C9  UNL     1      24.658   2.048  52.602  1.00  0.00    -0.056 A 
HETATM   15  C10 UNL     1      24.055   0.843  52.841  1.00  0.00     0.007 A 
HETATM   16  C11 UNL     1      24.786  -0.324  52.884  1.00  0.00     0.007 A 
HETATM   17  C12 UNL     1      26.148  -0.354  52.694  1.00  0.00    -0.062 A 
HETATM   18  C13 UNL     1      26.876  -1.649  52.755  1.00  0.00     0.048 C 
HETATM   19  C14 UNL     1      26.778   0.849  52.453  1.00  0.00     0.007 A 
HETATM   20  C15 UNL     1      26.032   2.028  52.410  1.00  0.00     0.007 A 
ENDBRANCH  13  14
ENDBRANCH   1  13
BRANCH   1  21
HETATM   21  C16 UNL     1      23.446   5.255  50.904  1.00  0.00     0.104 A 
HETATM   22  N2  UNL     1      22.312   5.265  50.600  1.00  0.00    -0.220 NA
HETATM   23  C17 UNL     1      21.548   6.332  50.393  1.00  0.00     0.169 A 
HETATM   24  C18 UNL     1      22.103   7.553  50.538  1.00  0.00     0.109 A 
HETATM   25  S1  UNL     1      23.834   7.048  51.003  1.00  0.00    -0.080 SA
BRANCH  23  26
HETATM   26  O1  UNL     1      20.198   6.533  50.030  1.00  0.00    -0.344 OA
HETATM   27  H16 UNL     1      19.849   7.456  49.787  1.00  0.00     0.219 HD
ENDBRANCH  23  26
ENDBRANCH   1  21
TORSDOF 8
ENDMDL
MODEL 9
REMARK VINA RESULT:      -7.3      6.802     10.183
REMARK  8 active torsions:
REMARK  status: ('A' for Active; 'I' for Inactive)
REMARK    1  A    between atoms: C2_2  and  C19_23 
REMARK    2  A    between atoms: C3_3  and  C4_4 
REMARK    3  A    between atoms: C5_5  and  C6_6 
REMARK    4  A    between atoms: C6_6  and  C8_9 
REMARK    5  A    between atoms: C6_6  and  C16_17 
REMARK    6  A    between atoms: C8_9  and  C9_10 
REMARK    7  A    between atoms: C17_19  and  O1_20 
REMARK    8  A    between atoms: C19_23  and  N3_24 
ROOT
HETATM    1  C6  UNL     1      31.182   6.911  48.065  1.00  0.00     0.121 C 
HETATM    2  C7  UNL     1      30.622   7.511  46.847  1.00  0.00     0.081 C 
HETATM    3  N1  UNL     1      30.175   7.974  45.880  1.00  0.00    -0.196 NA
ENDROOT
BRANCH   1   4
HETATM    4  C5  UNL     1      30.168   5.889  48.536  1.00  0.00     0.005 C 
HETATM    5  C4  UNL     1      28.937   5.952  48.055  1.00  0.00    -0.002 C 
BRANCH   5   6
HETATM    6  C3  UNL     1      27.952   4.974  48.501  1.00  0.00     0.004 C 
HETATM    7  C2  UNL     1      26.748   5.297  48.944  1.00  0.00    -0.056 C 
HETATM    8  C1  UNL     1      25.726   4.329  49.405  1.00  0.00     0.045 C 
BRANCH   7   9
HETATM    9  C19 UNL     1      26.135   6.626  49.092  1.00  0.00     0.300 C 
BRANCH   9  10
HETATM   10  N3  UNL     1      26.139   7.084  50.474  1.00  0.00     0.082 N 
HETATM   11  H20 UNL     1      25.151   7.250  50.759  1.00  0.00     0.313 HD
HETATM   12  H21 UNL     1      26.686   7.965  50.594  1.00  0.00     0.313 HD
ENDBRANCH   9  10
ENDBRANCH   7   9
ENDBRANCH   5   6
ENDBRANCH   1   4
BRANCH   1  13
HETATM   13  C8  UNL     1      31.313   7.881  49.178  1.00  0.00     0.074 C 
BRANCH  13  14
HETATM   14  C9  UNL     1      30.404   9.041  49.099  1.00  0.00    -0.056 A 
HETATM   15  C10 UNL     1      29.061   9.192  49.314  1.00  0.00     0.007 A 
HETATM   16  C11 UNL     1      28.454  10.423  49.196  1.00  0.00     0.007 A 
HETATM   17  C12 UNL     1      29.146  11.563  48.857  1.00  0.00    -0.062 A 
HETATM   18  C13 UNL     1      28.429  12.860  48.746  1.00  0.00     0.048 C 
HETATM   19  C14 UNL     1      30.502  11.434  48.635  1.00  0.00     0.007 A 
HETATM   20  C15 UNL     1      31.111  10.185  48.757  1.00  0.00     0.007 A 
ENDBRANCH  13  14
ENDBRANCH   1  13
BRANCH   1  21
HETATM   21  C16 UNL     1      32.400   6.169  47.700  1.00  0.00     0.104 A 
HETATM   22  N2  UNL     1      33.136   5.888  48.569  1.00  0.00    -0.220 NA
HETATM   23  C17 UNL     1      34.281   5.221  48.465  1.00  0.00     0.169 A 
HETATM   24  C18 UNL     1      34.669   4.807  47.240  1.00  0.00     0.109 A 
HETATM   25  S1  UNL     1      33.245   5.458  46.233  1.00  0.00    -0.080 SA
BRANCH  23  26
HETATM   26  O1  UNL     1      35.274   4.800  49.377  1.00  0.00    -0.344 OA
HETATM   27  H16 UNL     1      35.126   4.854  50.381  1.00  0.00     0.219 HD
ENDBRANCH  23  26
ENDBRANCH   1  21
TORSDOF 8
ENDMDL
