MODEL 1
REMARK VINA RESULT:      -8.2      0.000      0.000
REMARK  5 active torsions:
REMARK  status: ('A' for Active; 'I' for Inactive)
REMARK    1  A    between atoms: O1_2  and  C2_3 
REMARK    2  A    between atoms: C2_3  and  C16_20 
REMARK    3  A    between atoms: C3_4  and  C4_5 
REMARK    4  A    between atoms: C6_7  and  N1_8 
REMARK    5  A    between atoms: N1_8  and  C8_10 
ROOT
HETATM    1  C4  UNL     1      22.165  -1.167  54.270  1.00  0.00     0.064 A 
HETATM    2  C5  UNL     1      23.084  -0.435  53.531  1.00  0.00     0.082 A 
HETATM    3  C6  UNL     1      24.391  -0.188  53.882  1.00  0.00     0.133 A 
HETATM    4  N2  UNL     1      24.703  -0.747  55.053  1.00  0.00    -0.224 NA
HETATM    5  C15 UNL     1      23.884  -1.461  55.822  1.00  0.00     0.235 A 
HETATM    6  N3  UNL     1      22.616  -1.682  55.449  1.00  0.00    -0.242 NA
ENDROOT
BRANCH   3   7
HETATM    7  N1  UNL     1      25.240   0.581  53.037  1.00  0.00    -0.336 N 
HETATM    8  C7  UNL     1      24.523   1.146  51.924  1.00  0.00     0.158 C 
BRANCH   7   9
HETATM    9  C8  UNL     1      26.622   0.770  53.259  1.00  0.00     0.036 A 
HETATM   10  C9  UNL     1      27.291   1.949  53.491  1.00  0.00     0.029 A 
HETATM   11  C10 UNL     1      28.640   2.097  53.704  1.00  0.00     0.003 A 
HETATM   12  C11 UNL     1      29.428   0.966  53.690  1.00  0.00     0.007 A 
HETATM   13  C12 UNL     1      28.805  -0.256  53.460  1.00  0.00    -0.060 A 
HETATM   14  C13 UNL     1      29.748  -1.406  53.467  1.00  0.00     0.048 C 
HETATM   15  C14 UNL     1      27.463  -0.322  53.257  1.00  0.00     0.036 A 
ENDBRANCH   7   9
ENDBRANCH   3   7
BRANCH   1  16
HETATM   16  C3  UNL     1      20.795  -1.410  53.863  1.00  0.00     0.071 C 
HETATM   17  C2  UNL     1      19.911  -0.488  53.568  1.00  0.00     0.103 C 
BRANCH  17  18
HETATM   18  O1  UNL     1      20.257   0.857  53.631  1.00  0.00    -0.353 OA
HETATM   19  C1  UNL     1      20.199   1.748  52.545  1.00  0.00     0.210 C 
ENDBRANCH  17  18
BRANCH  17  20
HETATM   20  C16 UNL     1      18.550  -0.897  53.170  1.00  0.00     0.100 A 
HETATM   21  C17 UNL     1      17.836  -1.960  53.419  1.00  0.00     0.039 A 
HETATM   22  C18 UNL     1      16.717  -1.436  52.630  1.00  0.00     0.206 A 
HETATM   23  O2  UNL     1      17.552  -0.342  52.419  1.00  0.00    -0.345 OA
ENDBRANCH  17  20
ENDBRANCH   1  16
TORSDOF 5
ENDMDL
MODEL 2
REMARK VINA RESULT:      -8.1      4.993      7.584
REMARK  5 active torsions:
REMARK  status: ('A' for Active; 'I' for Inactive)
REMARK    1  A    between atoms: O1_2  and  C2_3 
REMARK    2  A    between atoms: C2_3  and  C16_20 
REMARK    3  A    between atoms: C3_4  and  C4_5 
REMARK    4  A    between atoms: C6_7  and  N1_8 
REMARK    5  A    between atoms: N1_8  and  C8_10 
ROOT
HETATM    1  C4  UNL     1      25.484   1.793  52.431  1.00  0.00     0.064 A 
HETATM    2  C5  UNL     1      25.332   2.391  51.187  1.00  0.00     0.082 A 
HETATM    3  C6  UNL     1      24.623   3.538  50.922  1.00  0.00     0.133 A 
HETATM    4  N2  UNL     1      24.070   4.045  52.026  1.00  0.00    -0.224 NA
HETATM    5  C15 UNL     1      24.165   3.537  53.253  1.00  0.00     0.235 A 
HETATM    6  N3  UNL     1      24.866   2.416  53.475  1.00  0.00    -0.242 NA
ENDROOT
BRANCH   3   7
HETATM    7  N1  UNL     1      24.538   4.054  49.598  1.00  0.00    -0.336 N 
HETATM    8  C7  UNL     1      23.480   3.435  48.845  1.00  0.00     0.158 C 
BRANCH   7   9
HETATM    9  C8  UNL     1      25.391   5.054  49.078  1.00  0.00     0.036 A 
HETATM   10  C9  UNL     1      25.058   6.323  48.668  1.00  0.00     0.029 A 
HETATM   11  C10 UNL     1      25.915   7.273  48.167  1.00  0.00     0.003 A 
HETATM   12  C11 UNL     1      27.249   6.950  48.054  1.00  0.00     0.007 A 
HETATM   13  C12 UNL     1      27.645   5.678  48.455  1.00  0.00    -0.060 A 
HETATM   14  C13 UNL     1      29.103   5.438  48.291  1.00  0.00     0.048 C 
HETATM   15  C14 UNL     1      26.737   4.791  48.941  1.00  0.00     0.036 A 
ENDBRANCH   7   9
ENDBRANCH   3   7
BRANCH   1  16
HETATM   16  C3  UNL     1      26.246   0.584  52.671  1.00  0.00     0.071 C 
HETATM   17  C2  UNL     1      27.549   0.513  52.791  1.00  0.00     0.103 C 
BRANCH  17  18
HETATM   18  O1  UNL     1      28.323   1.663  52.688  1.00  0.00    -0.353 OA
HETATM   19  C1  UNL     1      28.810   2.398  53.783  1.00  0.00     0.210 C 
ENDBRANCH  17  18
BRANCH  17  20
HETATM   20  C16 UNL     1      28.180  -0.799  53.035  1.00  0.00     0.100 A 
HETATM   21  C17 UNL     1      29.392  -1.151  53.363  1.00  0.00     0.039 A 
HETATM   22  C18 UNL     1      29.018  -2.569  53.362  1.00  0.00     0.206 A 
HETATM   23  O2  UNL     1      27.755  -2.097  53.013  1.00  0.00    -0.345 OA
ENDBRANCH  17  20
ENDBRANCH   1  16
TORSDOF 5
ENDMDL
MODEL 3
REMARK VINA RESULT:      -7.9      3.179      6.993
REMARK  5 active torsions:
REMARK  status: ('A' for Active; 'I' for Inactive)
REMARK    1  A    between atoms: O1_2  and  C2_3 
REMARK    2  A    between atoms: C2_3  and  C16_20 
REMARK    3  A    between atoms: C3_4  and  C4_5 
REMARK    4  A    between atoms: C6_7  and  N1_8 
REMARK    5  A    between atoms: N1_8  and  C8_10 
ROOT
HETATM    1  C4  UNL     1      24.084  -0.552  53.794  1.00  0.00     0.064 A 
HETATM    2  C5  UNL     1      23.346   0.288  52.972  1.00  0.00     0.082 A 
HETATM    3  C6  UNL     1      22.007   0.573  53.102  1.00  0.00     0.133 A 
HETATM    4  N2  UNL     1      21.463  -0.065  54.140  1.00  0.00    -0.224 NA
HETATM    5  C15 UNL     1      22.097  -0.886  54.974  1.00  0.00     0.235 A 
HETATM    6  N3  UNL     1      23.403  -1.141  54.818  1.00  0.00    -0.242 NA
ENDROOT
BRANCH   3   7
HETATM    7  N1  UNL     1      21.357   1.455  52.192  1.00  0.00    -0.336 N 
HETATM    8  C7  UNL     1      20.216   2.099  52.787  1.00  0.00     0.158 C 
BRANCH   7   9
HETATM    9  C8  UNL     1      21.777   1.674  50.860  1.00  0.00     0.036 A 
HETATM   10  C9  UNL     1      21.380   1.005  49.726  1.00  0.00     0.029 A 
HETATM   11  C10 UNL     1      21.808   1.246  48.442  1.00  0.00     0.003 A 
HETATM   12  C11 UNL     1      22.727   2.252  48.241  1.00  0.00     0.007 A 
HETATM   13  C12 UNL     1      23.164   2.963  49.354  1.00  0.00    -0.060 A 
HETATM   14  C13 UNL     1      24.153   4.024  49.022  1.00  0.00     0.048 C 
HETATM   15  C14 UNL     1      22.695   2.667  50.594  1.00  0.00     0.036 A 
ENDBRANCH   7   9
ENDBRANCH   3   7
BRANCH   1  16
HETATM   16  C3  UNL     1      25.498  -0.824  53.628  1.00  0.00     0.071 C 
HETATM   17  C2  UNL     1      26.476  -0.024  53.975  1.00  0.00     0.103 C 
BRANCH  17  18
HETATM   18  O1  UNL     1      26.197   1.208  54.556  1.00  0.00    -0.353 OA
HETATM   19  C1  UNL     1      26.090   2.418  53.850  1.00  0.00     0.210 C 
ENDBRANCH  17  18
BRANCH  17  20
HETATM   20  C16 UNL     1      27.871  -0.445  53.739  1.00  0.00     0.100 A 
HETATM   21  C17 UNL     1      28.999   0.208  53.701  1.00  0.00     0.039 A 
HETATM   22  C18 UNL     1      29.743  -1.024  53.422  1.00  0.00     0.206 A 
HETATM   23  O2  UNL     1      28.493  -1.634  53.481  1.00  0.00    -0.345 OA
ENDBRANCH  17  20
ENDBRANCH   1  16
TORSDOF 5
ENDMDL
MODEL 4
REMARK VINA RESULT:      -7.6      4.592      7.465
REMARK  5 active torsions:
REMARK  status: ('A' for Active; 'I' for Inactive)
REMARK    1  A    between atoms: O1_2  and  C2_3 
REMARK    2  A    between atoms: C2_3  and  C16_20 
REMARK    3  A    between atoms: C3_4  and  C4_5 
REMARK    4  A    between atoms: C6_7  and  N1_8 
REMARK    5  A    between atoms: N1_8  and  C8_10 
ROOT
HETATM    1  C4  UNL     1      25.252   3.299  49.853  1.00  0.00     0.064 A 
HETATM    2  C5  UNL     1      25.619   2.513  50.937  1.00  0.00     0.082 A 
HETATM    3  C6  UNL     1      24.788   1.682  51.651  1.00  0.00     0.133 A 
HETATM    4  N2  UNL     1      23.540   1.704  51.178  1.00  0.00    -0.224 NA
HETATM    5  C15 UNL     1      23.106   2.426  50.147  1.00  0.00     0.235 A 
HETATM    6  N3  UNL     1      23.944   3.226  49.474  1.00  0.00    -0.242 NA
ENDROOT
BRANCH   3   7
HETATM    7  N1  UNL     1      25.283   0.924  52.750  1.00  0.00    -0.336 N 
HETATM    8  C7  UNL     1      24.230   0.229  53.442  1.00  0.00     0.158 C 
BRANCH   7   9
HETATM    9  C8  UNL     1      26.644   0.859  53.122  1.00  0.00     0.036 A 
HETATM   10  C9  UNL     1      27.446   1.877  53.583  1.00  0.00     0.029 A 
HETATM   11  C10 UNL     1      28.770   1.778  53.939  1.00  0.00     0.003 A 
HETATM   12  C11 UNL     1      29.382   0.548  53.834  1.00  0.00     0.007 A 
HETATM   13  C12 UNL     1      28.618  -0.519  53.373  1.00  0.00    -0.060 A 
HETATM   14  C13 UNL     1      29.377  -1.795  53.300  1.00  0.00     0.048 C 
HETATM   15  C14 UNL     1      27.312  -0.343  53.040  1.00  0.00     0.036 A 
ENDBRANCH   7   9
ENDBRANCH   3   7
BRANCH   1  16
HETATM   16  C3  UNL     1      26.160   4.161  49.122  1.00  0.00     0.071 C 
HETATM   17  C2  UNL     1      26.282   5.455  49.286  1.00  0.00     0.103 C 
BRANCH  17  18
HETATM   18  O1  UNL     1      25.501   6.117  50.226  1.00  0.00    -0.353 OA
HETATM   19  C1  UNL     1      24.438   6.981  49.914  1.00  0.00     0.210 C 
ENDBRANCH  17  18
BRANCH  17  20
HETATM   20  C16 UNL     1      27.256   6.196  48.460  1.00  0.00     0.100 A 
HETATM   21  C17 UNL     1      28.529   6.031  48.230  1.00  0.00     0.039 A 
HETATM   22  C18 UNL     1      28.556   7.201  47.345  1.00  0.00     0.206 A 
HETATM   23  O2  UNL     1      27.201   7.296  47.651  1.00  0.00    -0.345 OA
ENDBRANCH  17  20
ENDBRANCH   1  16
TORSDOF 5
ENDMDL
MODEL 5
REMARK VINA RESULT:      -7.6      2.899      8.068
REMARK  5 active torsions:
REMARK  status: ('A' for Active; 'I' for Inactive)
REMARK    1  A    between atoms: O1_2  and  C2_3 
REMARK    2  A    between atoms: C2_3  and  C16_20 
REMARK    3  A    between atoms: C3_4  and  C4_5 
REMARK    4  A    between atoms: C6_7  and  N1_8 
REMARK    5  A    between atoms: N1_8  and  C8_10 
ROOT
HETATM    1  C4  UNL     1      25.020   1.733  52.378  1.00  0.00     0.064 A 
HETATM    2  C5  UNL     1      23.899   1.189  51.767  1.00  0.00     0.082 A 
HETATM    3  C6  UNL     1      22.686   1.814  51.598  1.00  0.00     0.133 A 
HETATM    4  N2  UNL     1      22.693   3.051  52.100  1.00  0.00    -0.224 NA
HETATM    5  C15 UNL     1      23.721   3.647  52.699  1.00  0.00     0.235 A 
HETATM    6  N3  UNL     1      24.889   3.007  52.847  1.00  0.00    -0.242 NA
ENDROOT
BRANCH   3   7
HETATM    7  N1  UNL     1      21.605   1.149  50.954  1.00  0.00    -0.336 N 
HETATM    8  C7  UNL     1      21.694   1.239  49.521  1.00  0.00     0.158 C 
BRANCH   7   9
HETATM    9  C8  UNL     1      20.564   0.479  51.636  1.00  0.00     0.036 A 
HETATM   10  C9  UNL     1      20.606  -0.110  52.878  1.00  0.00     0.029 A 
HETATM   11  C10 UNL     1      19.571  -0.754  53.513  1.00  0.00     0.003 A 
HETATM   12  C11 UNL     1      18.358  -0.832  52.865  1.00  0.00     0.007 A 
HETATM   13  C12 UNL     1      18.257  -0.253  51.605  1.00  0.00    -0.060 A 
HETATM   14  C13 UNL     1      16.907  -0.396  50.999  1.00  0.00     0.048 C 
HETATM   15  C14 UNL     1      19.326   0.368  51.040  1.00  0.00     0.036 A 
ENDBRANCH   7   9
ENDBRANCH   3   7
BRANCH   1  16
HETATM   16  C3  UNL     1      26.285   1.042  52.533  1.00  0.00     0.071 C 
HETATM   17  C2  UNL     1      26.642   0.326  53.570  1.00  0.00     0.103 C 
BRANCH  17  18
HETATM   18  O1  UNL     1      25.776   0.179  54.648  1.00  0.00    -0.353 OA
HETATM   19  C1  UNL     1      24.956  -0.941  54.866  1.00  0.00     0.210 C 
ENDBRANCH  17  18
BRANCH  17  20
HETATM   20  C16 UNL     1      27.970  -0.317  53.579  1.00  0.00     0.100 A 
HETATM   21  C17 UNL     1      29.184   0.158  53.545  1.00  0.00     0.039 A 
HETATM   22  C18 UNL     1      29.752  -1.194  53.592  1.00  0.00     0.206 A 
HETATM   23  O2  UNL     1      28.422  -1.606  53.625  1.00  0.00    -0.345 OA
ENDBRANCH  17  20
ENDBRANCH   1  16
TORSDOF 5
ENDMDL
MODEL 6
REMARK VINA RESULT:      -7.5      3.113      7.684
REMARK  5 active torsions:
REMARK  status: ('A' for Active; 'I' for Inactive)
REMARK    1  A    between atoms: O1_2  and  C2_3 
REMARK    2  A    between atoms: C2_3  and  C16_20 
REMARK    3  A    between atoms: C3_4  and  C4_5 
REMARK    4  A    between atoms: C6_7  and  N1_8 
REMARK    5  A    between atoms: N1_8  and  C8_10 
ROOT
HETATM    1  C4  UNL     1      25.790   1.434  51.790  1.00  0.00     0.064 A 
HETATM    2  C5  UNL     1      24.440   1.305  52.083  1.00  0.00     0.082 A 
HETATM    3  C6  UNL     1      23.471   2.258  51.871  1.00  0.00     0.133 A 
HETATM    4  N2  UNL     1      23.980   3.368  51.331  1.00  0.00    -0.224 NA
HETATM    5  C15 UNL     1      25.257   3.574  51.021  1.00  0.00     0.235 A 
HETATM    6  N3  UNL     1      26.175   2.622  51.242  1.00  0.00    -0.242 NA
ENDROOT
BRANCH   3   7
HETATM    7  N1  UNL     1      22.113   2.008  52.216  1.00  0.00    -0.336 N 
HETATM    8  C7  UNL     1      21.244   3.070  51.783  1.00  0.00     0.158 C 
BRANCH   7   9
HETATM    9  C8  UNL     1      21.666   0.857  52.904  1.00  0.00     0.036 A 
HETATM   10  C9  UNL     1      22.381   0.047  53.754  1.00  0.00     0.029 A 
HETATM   11  C10 UNL     1      21.913  -1.067  54.409  1.00  0.00     0.003 A 
HETATM   12  C11 UNL     1      20.599  -1.433  54.213  1.00  0.00     0.007 A 
HETATM   13  C12 UNL     1      19.828  -0.649  53.361  1.00  0.00    -0.060 A 
HETATM   14  C13 UNL     1      18.429  -1.135  53.223  1.00  0.00     0.048 C 
HETATM   15  C14 UNL     1      20.362   0.440  52.748  1.00  0.00     0.036 A 
ENDBRANCH   7   9
ENDBRANCH   3   7
BRANCH   1  16
HETATM   16  C3  UNL     1      26.781   0.403  52.025  1.00  0.00     0.071 C 
HETATM   17  C2  UNL     1      27.259   0.054  53.194  1.00  0.00     0.103 C 
BRANCH  17  18
HETATM   18  O1  UNL     1      26.816   0.691  54.348  1.00  0.00    -0.353 OA
HETATM   19  C1  UNL     1      25.982   0.104  55.314  1.00  0.00     0.210 C 
ENDBRANCH  17  18
BRANCH  17  20
HETATM   20  C16 UNL     1      28.269  -1.020  53.268  1.00  0.00     0.100 A 
HETATM   21  C17 UNL     1      29.550  -1.015  53.515  1.00  0.00     0.039 A 
HETATM   22  C18 UNL     1      29.620  -2.472  53.367  1.00  0.00     0.206 A 
HETATM   23  O2  UNL     1      28.254  -2.377  53.115  1.00  0.00    -0.345 OA
ENDBRANCH  17  20
ENDBRANCH   1  16
TORSDOF 5
ENDMDL
MODEL 7
REMARK VINA RESULT:      -7.4      2.609      3.429
REMARK  5 active torsions:
REMARK  status: ('A' for Active; 'I' for Inactive)
REMARK    1  A    between atoms: O1_2  and  C2_3 
REMARK    2  A    between atoms: C2_3  and  C16_20 
REMARK    3  A    between atoms: C3_4  and  C4_5 
REMARK    4  A    between atoms: C6_7  and  N1_8 
REMARK    5  A    between atoms: N1_8  and  C8_10 
ROOT
HETATM    1  C4  UNL     1      22.355   2.514  52.262  1.00  0.00     0.064 A 
HETATM    2  C5  UNL     1      23.656   2.190  51.902  1.00  0.00     0.082 A 
HETATM    3  C6  UNL     1      24.645   3.080  51.556  1.00  0.00     0.133 A 
HETATM    4  N2  UNL     1      24.213   4.342  51.602  1.00  0.00    -0.224 NA
HETATM    5  C15 UNL     1      22.987   4.738  51.934  1.00  0.00     0.235 A 
HETATM    6  N3  UNL     1      22.047   3.842  52.267  1.00  0.00    -0.242 NA
ENDROOT
BRANCH   3   7
HETATM    7  N1  UNL     1      25.947   2.624  51.204  1.00  0.00    -0.336 N 
HETATM    8  C7  UNL     1      26.380   3.158  49.939  1.00  0.00     0.158 C 
BRANCH   7   9
HETATM    9  C8  UNL     1      26.725   1.749  51.995  1.00  0.00     0.036 A 
HETATM   10  C9  UNL     1      27.713   2.073  52.894  1.00  0.00     0.029 A 
HETATM   11  C10 UNL     1      28.451   1.194  53.651  1.00  0.00     0.003 A 
HETATM   12  C11 UNL     1      28.196  -0.153  53.516  1.00  0.00     0.007 A 
HETATM   13  C12 UNL     1      27.205  -0.539  52.620  1.00  0.00    -0.060 A 
HETATM   14  C13 UNL     1      27.014  -2.012  52.554  1.00  0.00     0.048 C 
HETATM   15  C14 UNL     1      26.517   0.390  51.905  1.00  0.00     0.036 A 
ENDBRANCH   7   9
ENDBRANCH   3   7
BRANCH   1  16
HETATM   16  C3  UNL     1      21.341   1.545  52.626  1.00  0.00     0.071 C 
HETATM   17  C2  UNL     1      20.412   1.075  51.829  1.00  0.00     0.103 C 
BRANCH  17  18
HETATM   18  O1  UNL     1      20.342   1.505  50.509  1.00  0.00    -0.353 OA
HETATM   19  C1  UNL     1      21.005   0.890  49.433  1.00  0.00     0.210 C 
ENDBRANCH  17  18
BRANCH  17  20
HETATM   20  C16 UNL     1      19.446   0.089  52.351  1.00  0.00     0.100 A 
HETATM   21  C17 UNL     1      18.283  -0.322  51.927  1.00  0.00     0.039 A 
HETATM   22  C18 UNL     1      18.155  -1.241  53.062  1.00  0.00     0.206 A 
HETATM   23  O2  UNL     1      19.400  -0.741  53.435  1.00  0.00    -0.345 OA
ENDBRANCH  17  20
ENDBRANCH   1  16
TORSDOF 5
ENDMDL
MODEL 8
REMARK VINA RESULT:      -7.3      4.362      7.875
REMARK  5 active torsions:
REMARK  status: ('A' for Active; 'I' for Inactive)
REMARK    1  A    between atoms: O1_2  and  C2_3 
REMARK    2  A    between atoms: C2_3  and  C16_20 
REMARK    3  A    between atoms: C3_4  and  C4_5 
REMARK    4  A    between atoms: C6_7  and  N1_8 
REMARK    5  A    between atoms: N1_8  and  C8_10 
ROOT
HETATM    1  C4  UNL     1      23.206   3.297  49.286  1.00  0.00     0.064 A 
HETATM    2  C5  UNL     1      22.603   2.968  50.493  1.00  0.00     0.082 A 
HETATM    3  C6  UNL     1      21.687   1.963  50.692  1.00  0.00     0.133 A 
HETATM    4  N2  UNL     1      21.423   1.303  49.562  1.00  0.00    -0.224 NA
HETATM    5  C15 UNL     1      21.954   1.552  48.367  1.00  0.00     0.235 A 
HETATM    6  N3  UNL     1      22.844   2.541  48.209  1.00  0.00    -0.242 NA
ENDROOT
BRANCH   3   7
HETATM    7  N1  UNL     1      21.136   1.723  51.983  1.00  0.00    -0.336 N 
HETATM    8  C7  UNL     1      19.975   2.536  52.232  1.00  0.00     0.158 C 
BRANCH   7   9
HETATM    9  C8  UNL     1      21.663   0.799  52.913  1.00  0.00     0.036 A 
HETATM   10  C9  UNL     1      20.987   0.083  53.873  1.00  0.00     0.029 A 
HETATM   11  C10 UNL     1      21.532  -0.810  54.763  1.00  0.00     0.003 A 
HETATM   12  C11 UNL     1      22.892  -1.031  54.713  1.00  0.00     0.007 A 
HETATM   13  C12 UNL     1      23.627  -0.333  53.761  1.00  0.00    -0.060 A 
HETATM   14  C13 UNL     1      25.080  -0.648  53.796  1.00  0.00     0.048 C 
HETATM   15  C14 UNL     1      23.016   0.536  52.913  1.00  0.00     0.036 A 
ENDBRANCH   7   9
ENDBRANCH   3   7
BRANCH   1  16
HETATM   16  C3  UNL     1      24.173   4.363  49.117  1.00  0.00     0.071 C 
HETATM   17  C2  UNL     1      25.465   4.260  49.309  1.00  0.00     0.103 C 
BRANCH  17  18
HETATM   18  O1  UNL     1      26.017   3.049  49.711  1.00  0.00    -0.353 OA
HETATM   19  C1  UNL     1      26.624   2.824  50.958  1.00  0.00     0.210 C 
ENDBRANCH  17  18
BRANCH  17  20
HETATM   20  C16 UNL     1      26.321   5.443  49.094  1.00  0.00     0.100 A 
HETATM   21  C17 UNL     1      27.448   5.617  48.460  1.00  0.00     0.039 A 
HETATM   22  C18 UNL     1      27.466   7.041  48.810  1.00  0.00     0.206 A 
HETATM   23  O2  UNL     1      26.267   6.758  49.460  1.00  0.00    -0.345 OA
ENDBRANCH  17  20
ENDBRANCH   1  16
TORSDOF 5
ENDMDL
MODEL 9
REMARK VINA RESULT:      -7.3      3.471      8.347
REMARK  5 active torsions:
REMARK  status: ('A' for Active; 'I' for Inactive)
REMARK    1  A    between atoms: O1_2  and  C2_3 
REMARK    2  A    between atoms: C2_3  and  C16_20 
REMARK    3  A    between atoms: C3_4  and  C4_5 
REMARK    4  A    between atoms: C6_7  and  N1_8 
REMARK    5  A    between atoms: N1_8  and  C8_10 
ROOT
HETATM    1  C4  UNL     1      24.008   2.831  52.712  1.00  0.00     0.064 A 
HETATM    2  C5  UNL     1      23.141   1.910  52.139  1.00  0.00     0.082 A 
HETATM    3  C6  UNL     1      21.920   2.191  51.574  1.00  0.00     0.133 A 
HETATM    4  N2  UNL     1      21.637   3.495  51.632  1.00  0.00    -0.224 NA
HETATM    5  C15 UNL     1      22.409   4.441  52.161  1.00  0.00     0.235 A 
HETATM    6  N3  UNL     1      23.594   4.130  52.704  1.00  0.00    -0.242 NA
ENDROOT
BRANCH   3   7
HETATM    7  N1  UNL     1      21.117   1.156  51.018  1.00  0.00    -0.336 N 
HETATM    8  C7  UNL     1      21.372   0.973  49.614  1.00  0.00     0.158 C 
BRANCH   7   9
HETATM    9  C8  UNL     1      20.178   0.396  51.752  1.00  0.00     0.036 A 
HETATM   10  C9  UNL     1      20.354  -0.226  52.965  1.00  0.00     0.029 A 
HETATM   11  C10 UNL     1      19.416  -0.958  53.653  1.00  0.00     0.003 A 
HETATM   12  C11 UNL     1      18.164  -1.099  53.095  1.00  0.00     0.007 A 
HETATM   13  C12 UNL     1      17.929  -0.489  51.867  1.00  0.00    -0.060 A 
HETATM   14  C13 UNL     1      16.548  -0.705  51.360  1.00  0.00     0.048 C 
HETATM   15  C14 UNL     1      18.908   0.220  51.247  1.00  0.00     0.036 A 
ENDBRANCH   7   9
ENDBRANCH   3   7
BRANCH   1  16
HETATM   16  C3  UNL     1      25.292   2.495  53.294  1.00  0.00     0.071 C 
HETATM   17  C2  UNL     1      26.390   2.237  52.626  1.00  0.00     0.103 C 
BRANCH  17  18
HETATM   18  O1  UNL     1      26.386   2.272  51.236  1.00  0.00    -0.353 OA
HETATM   19  C1  UNL     1      26.548   3.437  50.467  1.00  0.00     0.210 C 
ENDBRANCH  17  18
BRANCH  17  20
HETATM   20  C16 UNL     1      27.624   1.909  53.366  1.00  0.00     0.100 A 
HETATM   21  C17 UNL     1      28.209   0.780  53.655  1.00  0.00     0.039 A 
HETATM   22  C18 UNL     1      29.286   1.480  54.364  1.00  0.00     0.206 A 
HETATM   23  O2  UNL     1      28.589   2.632  54.008  1.00  0.00    -0.345 OA
ENDBRANCH  17  20
ENDBRANCH   1  16
TORSDOF 5
ENDMDL
