MODEL 1
REMARK VINA RESULT:      -8.4      0.000      0.000
REMARK  2 active torsions:
REMARK  status: ('A' for Active; 'I' for Inactive)
REMARK    1  A    between atoms: N1_7  and  C7_8 
REMARK    2  A    between atoms: C12_15  and  N4_16 
REMARK       I    between atoms: N4_16  and  C13_17 
ROOT
HETATM    1  C1  UNL     1      29.231  -2.013  53.463  1.00  0.00     0.017 C 
HETATM    2  C2  UNL     1      28.571  -1.054  53.193  1.00  0.00    -0.080 C 
HETATM    3  C3  UNL     1      27.768   0.089  52.875  1.00  0.00     0.023 C 
HETATM    4  C4  UNL     1      28.177   1.318  52.905  1.00  0.00    -0.011 C 
HETATM    5  C5  UNL     1      27.391   2.184  53.523  1.00  0.00     0.006 C 
HETATM    6  C6  UNL     1      25.891   2.052  53.453  1.00  0.00     0.153 C 
HETATM    7  N1  UNL     1      25.489   0.666  53.431  1.00  0.00    -0.357 N 
HETATM    8  C17 UNL     1      26.347  -0.043  52.471  1.00  0.00     0.173 C 
ENDROOT
BRANCH   7   9
HETATM    9  C7  UNL     1      24.503  -0.116  54.096  1.00  0.00     0.140 A 
HETATM   10  N2  UNL     1      24.994  -0.895  55.085  1.00  0.00    -0.224 NA
HETATM   11  C8  UNL     1      24.176  -1.701  55.812  1.00  0.00     0.236 A 
HETATM   12  N3  UNL     1      22.858  -1.754  55.581  1.00  0.00    -0.241 NA
HETATM   13  C9  UNL     1      22.362  -0.981  54.598  1.00  0.00     0.072 A 
HETATM   14  C10 UNL     1      21.006  -0.982  54.299  1.00  0.00     0.035 A 
HETATM   15  C16 UNL     1      23.149  -0.150  53.835  1.00  0.00     0.041 A 
HETATM   16  C11 UNL     1      20.517  -0.182  53.288  1.00  0.00     0.032 A 
HETATM   17  C12 UNL     1      21.355   0.645  52.540  1.00  0.00     0.035 A 
HETATM   18  C15 UNL     1      22.716   0.666  52.818  1.00  0.00     0.047 A 
BRANCH  17  19
HETATM   19  N4  UNL     1      20.858   1.473  51.496  1.00  0.00    -0.327 N 
HETATM   20  C13 UNL     1      20.096   2.664  51.469  1.00  0.00     0.218 C 
HETATM   21  C14 UNL     1      19.750   3.269  50.170  1.00  0.00     0.117 C 
HETATM   22  O1  UNL     1      19.724   3.189  52.537  1.00  0.00    -0.274 OA
HETATM   23  H8  UNL     1      21.211   0.967  50.661  1.00  0.00     0.169 HD
ENDBRANCH  17  19
ENDBRANCH   7   9
TORSDOF 2
ENDMDL
MODEL 2
REMARK VINA RESULT:      -8.1      1.226      2.717
REMARK  2 active torsions:
REMARK  status: ('A' for Active; 'I' for Inactive)
REMARK    1  A    between atoms: N1_7  and  C7_8 
REMARK    2  A    between atoms: C12_15  and  N4_16 
REMARK       I    between atoms: N4_16  and  C13_17 
ROOT
HETATM    1  C1  UNL     1      23.281   4.478  52.293  1.00  0.00     0.017 C 
HETATM    2  C2  UNL     1      24.199   3.712  52.324  1.00  0.00    -0.080 C 
HETATM    3  C3  UNL     1      25.291   2.786  52.370  1.00  0.00     0.023 C 
HETATM    4  C4  UNL     1      26.112   2.555  51.395  1.00  0.00    -0.011 C 
HETATM    5  C5  UNL     1      26.351   1.283  51.117  1.00  0.00     0.006 C 
HETATM    6  C6  UNL     1      26.415   0.252  52.216  1.00  0.00     0.153 C 
HETATM    7  N1  UNL     1      25.477   0.552  53.270  1.00  0.00    -0.357 N 
HETATM    8  C17 UNL     1      25.584   1.985  53.583  1.00  0.00     0.173 C 
ENDROOT
BRANCH   7   9
HETATM    9  C7  UNL     1      24.527  -0.191  54.027  1.00  0.00     0.140 A 
HETATM   10  N2  UNL     1      25.067  -0.903  55.041  1.00  0.00    -0.224 NA
HETATM   11  C8  UNL     1      24.289  -1.665  55.854  1.00  0.00     0.236 A 
HETATM   12  N3  UNL     1      22.962  -1.739  55.685  1.00  0.00    -0.241 NA
HETATM   13  C9  UNL     1      22.417  -1.032  54.678  1.00  0.00     0.072 A 
HETATM   14  C10 UNL     1      21.049  -1.059  54.440  1.00  0.00     0.035 A 
HETATM   15  C16 UNL     1      23.163  -0.249  53.829  1.00  0.00     0.041 A 
HETATM   16  C11 UNL     1      20.510  -0.327  53.403  1.00  0.00     0.032 A 
HETATM   17  C12 UNL     1      21.308   0.454  52.567  1.00  0.00     0.035 A 
HETATM   18  C15 UNL     1      22.680   0.499  52.782  1.00  0.00     0.047 A 
BRANCH  17  19
HETATM   19  N4  UNL     1      20.759   1.210  51.495  1.00  0.00    -0.327 N 
HETATM   20  C13 UNL     1      20.082   2.450  51.418  1.00  0.00     0.218 C 
HETATM   21  C14 UNL     1      19.640   2.948  50.102  1.00  0.00     0.117 C 
HETATM   22  O1  UNL     1      19.865   3.106  52.455  1.00  0.00    -0.274 OA
HETATM   23  H8  UNL     1      20.984   0.597  50.689  1.00  0.00     0.169 HD
ENDBRANCH  17  19
ENDBRANCH   7   9
TORSDOF 2
ENDMDL
MODEL 3
REMARK VINA RESULT:      -8.0      3.187      4.784
REMARK  2 active torsions:
REMARK  status: ('A' for Active; 'I' for Inactive)
REMARK    1  A    between atoms: N1_7  and  C7_8 
REMARK    2  A    between atoms: C12_15  and  N4_16 
REMARK       I    between atoms: N4_16  and  C13_17 
ROOT
HETATM    1  C1  UNL     1      28.297   5.127  48.574  1.00  0.00     0.017 C 
HETATM    2  C2  UNL     1      27.172   4.911  48.917  1.00  0.00    -0.080 C 
HETATM    3  C3  UNL     1      25.829   4.641  49.336  1.00  0.00     0.023 C 
HETATM    4  C4  UNL     1      24.899   5.533  49.472  1.00  0.00    -0.011 C 
HETATM    5  C5  UNL     1      24.197   5.483  50.593  1.00  0.00     0.006 C 
HETATM    6  C6  UNL     1      23.862   4.162  51.237  1.00  0.00     0.153 C 
HETATM    7  N1  UNL     1      24.933   3.210  51.064  1.00  0.00    -0.357 N 
HETATM    8  C17 UNL     1      25.374   3.268  49.662  1.00  0.00     0.173 C 
ENDROOT
BRANCH   7   9
HETATM    9  C7  UNL     1      25.615   2.283  51.903  1.00  0.00     0.140 A 
HETATM   10  N2  UNL     1      26.938   2.527  52.031  1.00  0.00    -0.224 NA
HETATM   11  C8  UNL     1      27.726   1.730  52.799  1.00  0.00     0.236 A 
HETATM   12  N3  UNL     1      27.225   0.676  53.457  1.00  0.00    -0.241 NA
HETATM   13  C9  UNL     1      25.909   0.428  53.335  1.00  0.00     0.072 A 
HETATM   14  C10 UNL     1      25.318  -0.647  53.987  1.00  0.00     0.035 A 
HETATM   15  C16 UNL     1      25.072   1.205  52.569  1.00  0.00     0.041 A 
HETATM   16  C11 UNL     1      23.967  -0.885  53.849  1.00  0.00     0.032 A 
HETATM   17  C12 UNL     1      23.157  -0.068  53.060  1.00  0.00     0.035 A 
HETATM   18  C15 UNL     1      23.723   1.014  52.396  1.00  0.00     0.047 A 
BRANCH  17  19
HETATM   19  N4  UNL     1      21.763  -0.307  52.913  1.00  0.00    -0.327 N 
HETATM   20  C13 UNL     1      20.650  -0.172  53.775  1.00  0.00     0.218 C 
HETATM   21  C14 UNL     1      19.306  -0.521  53.277  1.00  0.00     0.117 C 
HETATM   22  O1  UNL     1      20.812   0.236  54.941  1.00  0.00    -0.274 OA
HETATM   23  H8  UNL     1      21.725  -0.638  51.930  1.00  0.00     0.169 HD
ENDBRANCH  17  19
ENDBRANCH   7   9
TORSDOF 2
ENDMDL
MODEL 4
REMARK VINA RESULT:      -7.9      3.080      5.560
REMARK  2 active torsions:
REMARK  status: ('A' for Active; 'I' for Inactive)
REMARK    1  A    between atoms: N1_7  and  C7_8 
REMARK    2  A    between atoms: C12_15  and  N4_16 
REMARK       I    between atoms: N4_16  and  C13_17 
ROOT
HETATM    1  C1  UNL     1      26.431   3.251  49.335  1.00  0.00     0.017 C 
HETATM    2  C2  UNL     1      25.441   3.757  49.776  1.00  0.00    -0.080 C 
HETATM    3  C3  UNL     1      24.251   4.349  50.309  1.00  0.00     0.023 C 
HETATM    4  C4  UNL     1      24.178   5.533  50.829  1.00  0.00    -0.011 C 
HETATM    5  C5  UNL     1      23.546   5.628  51.988  1.00  0.00     0.006 C 
HETATM    6  C6  UNL     1      22.346   4.765  52.286  1.00  0.00     0.153 C 
HETATM    7  N1  UNL     1      22.482   3.457  51.691  1.00  0.00    -0.357 N 
HETATM    8  C17 UNL     1      22.953   3.630  50.309  1.00  0.00     0.173 C 
ENDROOT
BRANCH   7   9
HETATM    9  C7  UNL     1      22.272   2.117  52.124  1.00  0.00     0.140 A 
HETATM   10  N2  UNL     1      21.046   1.629  51.830  1.00  0.00    -0.224 NA
HETATM   11  C8  UNL     1      20.694   0.364  52.179  1.00  0.00     0.236 A 
HETATM   12  N3  UNL     1      21.544  -0.446  52.825  1.00  0.00    -0.241 NA
HETATM   13  C9  UNL     1      22.766   0.032  53.120  1.00  0.00     0.072 A 
HETATM   14  C10 UNL     1      23.700  -0.748  53.788  1.00  0.00     0.035 A 
HETATM   15  C16 UNL     1      23.167   1.306  52.789  1.00  0.00     0.041 A 
HETATM   16  C11 UNL     1      24.948  -0.239  54.082  1.00  0.00     0.032 A 
HETATM   17  C12 UNL     1      25.310   1.060  53.725  1.00  0.00     0.035 A 
HETATM   18  C15 UNL     1      24.394   1.863  53.056  1.00  0.00     0.047 A 
BRANCH  17  19
HETATM   19  N4  UNL     1      26.594   1.592  54.025  1.00  0.00    -0.327 N 
HETATM   20  C13 UNL     1      27.714   1.949  53.238  1.00  0.00     0.218 C 
HETATM   21  C14 UNL     1      28.918   2.486  53.900  1.00  0.00     0.117 C 
HETATM   22  O1  UNL     1      27.677   1.805  52.001  1.00  0.00    -0.274 OA
HETATM   23  H8  UNL     1      26.534   1.676  55.058  1.00  0.00     0.169 HD
ENDBRANCH  17  19
ENDBRANCH   7   9
TORSDOF 2
ENDMDL
MODEL 5
REMARK VINA RESULT:      -7.9      3.667      6.498
REMARK  2 active torsions:
REMARK  status: ('A' for Active; 'I' for Inactive)
REMARK    1  A    between atoms: N1_7  and  C7_8 
REMARK    2  A    between atoms: C12_15  and  N4_16 
REMARK       I    between atoms: N4_16  and  C13_17 
ROOT
HETATM    1  C1  UNL     1      22.712   6.307  48.145  1.00  0.00     0.017 C 
HETATM    2  C2  UNL     1      23.690   5.914  48.711  1.00  0.00    -0.080 C 
HETATM    3  C3  UNL     1      24.852   5.433  49.396  1.00  0.00     0.023 C 
HETATM    4  C4  UNL     1      26.034   5.331  48.875  1.00  0.00    -0.011 C 
HETATM    5  C5  UNL     1      26.668   4.187  49.077  1.00  0.00     0.006 C 
HETATM    6  C6  UNL     1      26.518   3.440  50.378  1.00  0.00     0.153 C 
HETATM    7  N1  UNL     1      25.184   3.580  50.910  1.00  0.00    -0.357 N 
HETATM    8  C17 UNL     1      24.799   4.995  50.812  1.00  0.00     0.173 C 
ENDROOT
BRANCH   7   9
HETATM    9  C7  UNL     1      24.218   2.699  51.474  1.00  0.00     0.140 A 
HETATM   10  N2  UNL     1      22.939   3.105  51.306  1.00  0.00    -0.224 NA
HETATM   11  C8  UNL     1      21.903   2.371  51.790  1.00  0.00     0.236 A 
HETATM   12  N3  UNL     1      22.105   1.221  52.447  1.00  0.00    -0.241 NA
HETATM   13  C9  UNL     1      23.375   0.810  52.616  1.00  0.00     0.072 A 
HETATM   14  C10 UNL     1      23.664  -0.371  53.287  1.00  0.00     0.035 A 
HETATM   15  C16 UNL     1      24.456   1.519  52.146  1.00  0.00     0.041 A 
HETATM   16  C11 UNL     1      24.972  -0.775  53.450  1.00  0.00     0.032 A 
HETATM   17  C12 UNL     1      26.037  -0.022  52.956  1.00  0.00     0.035 A 
HETATM   18  C15 UNL     1      25.777   1.165  52.281  1.00  0.00     0.047 A 
BRANCH  17  19
HETATM   19  N4  UNL     1      27.389  -0.431  53.121  1.00  0.00    -0.327 N 
HETATM   20  C13 UNL     1      28.401  -0.115  54.057  1.00  0.00     0.218 C 
HETATM   21  C14 UNL     1      29.728  -0.743  53.924  1.00  0.00     0.117 C 
HETATM   22  O1  UNL     1      28.164   0.688  54.981  1.00  0.00    -0.274 OA
HETATM   23  H8  UNL     1      27.493  -1.086  52.322  1.00  0.00     0.169 HD
ENDBRANCH  17  19
ENDBRANCH   7   9
TORSDOF 2
ENDMDL
MODEL 6
REMARK VINA RESULT:      -7.8      2.094      5.116
REMARK  2 active torsions:
REMARK  status: ('A' for Active; 'I' for Inactive)
REMARK    1  A    between atoms: N1_7  and  C7_8 
REMARK    2  A    between atoms: C12_15  and  N4_16 
REMARK       I    between atoms: N4_16  and  C13_17 
ROOT
HETATM    1  C1  UNL     1      20.726   0.842  50.600  1.00  0.00     0.017 C 
HETATM    2  C2  UNL     1      21.049   0.241  51.582  1.00  0.00    -0.080 C 
HETATM    3  C3  UNL     1      21.450  -0.477  52.755  1.00  0.00     0.023 C 
HETATM    4  C4  UNL     1      20.810  -0.478  53.881  1.00  0.00    -0.011 C 
HETATM    5  C5  UNL     1      21.536  -0.280  54.970  1.00  0.00     0.006 C 
HETATM    6  C6  UNL     1      22.937  -0.827  55.073  1.00  0.00     0.153 C 
HETATM    7  N1  UNL     1      23.607  -0.795  53.795  1.00  0.00    -0.357 N 
HETATM    8  C17 UNL     1      22.677  -1.310  52.779  1.00  0.00     0.173 C 
ENDROOT
BRANCH   7   9
HETATM    9  C7  UNL     1      24.893  -0.397  53.332  1.00  0.00     0.140 A 
HETATM   10  N2  UNL     1      25.887  -1.248  53.669  1.00  0.00    -0.224 NA
HETATM   11  C8  UNL     1      27.172  -1.005  53.300  1.00  0.00     0.236 A 
HETATM   12  N3  UNL     1      27.503   0.082  52.590  1.00  0.00    -0.241 NA
HETATM   13  C9  UNL     1      26.519   0.933  52.249  1.00  0.00     0.072 A 
HETATM   14  C10 UNL     1      26.784   2.081  51.514  1.00  0.00     0.035 A 
HETATM   15  C16 UNL     1      25.204   0.730  52.601  1.00  0.00     0.041 A 
HETATM   16  C11 UNL     1      25.761   2.941  51.175  1.00  0.00     0.032 A 
HETATM   17  C12 UNL     1      24.442   2.693  51.555  1.00  0.00     0.035 A 
HETATM   18  C15 UNL     1      24.148   1.552  52.292  1.00  0.00     0.047 A 
BRANCH  17  19
HETATM   19  N4  UNL     1      23.382   3.576  51.210  1.00  0.00    -0.327 N 
HETATM   20  C13 UNL     1      22.807   4.708  51.834  1.00  0.00     0.218 C 
HETATM   21  C14 UNL     1      21.686   5.403  51.175  1.00  0.00     0.117 C 
HETATM   22  O1  UNL     1      23.249   5.105  52.930  1.00  0.00    -0.274 OA
HETATM   23  H8  UNL     1      23.081   3.174  50.301  1.00  0.00     0.169 HD
ENDBRANCH  17  19
ENDBRANCH   7   9
TORSDOF 2
ENDMDL
MODEL 7
REMARK VINA RESULT:      -7.7      2.956      5.774
REMARK  2 active torsions:
REMARK  status: ('A' for Active; 'I' for Inactive)
REMARK    1  A    between atoms: N1_7  and  C7_8 
REMARK    2  A    between atoms: C12_15  and  N4_16 
REMARK       I    between atoms: N4_16  and  C13_17 
ROOT
HETATM    1  C1  UNL     1      22.255   2.447  47.296  1.00  0.00     0.017 C 
HETATM    2  C2  UNL     1      22.831   2.952  48.214  1.00  0.00    -0.080 C 
HETATM    3  C3  UNL     1      23.513   3.550  49.322  1.00  0.00     0.023 C 
HETATM    4  C4  UNL     1      24.757   3.911  49.323  1.00  0.00    -0.011 C 
HETATM    5  C5  UNL     1      25.477   3.536  50.368  1.00  0.00     0.006 C 
HETATM    6  C6  UNL     1      24.867   3.478  51.746  1.00  0.00     0.153 C 
HETATM    7  N1  UNL     1      23.486   3.063  51.688  1.00  0.00    -0.357 N 
HETATM    8  C17 UNL     1      22.827   3.815  50.611  1.00  0.00     0.173 C 
ENDROOT
BRANCH   7   9
HETATM    9  C7  UNL     1      22.672   2.140  52.404  1.00  0.00     0.140 A 
HETATM   10  N2  UNL     1      21.350   2.421  52.358  1.00  0.00    -0.224 NA
HETATM   11  C8  UNL     1      20.445   1.632  52.994  1.00  0.00     0.236 A 
HETATM   12  N3  UNL     1      20.822   0.549  53.686  1.00  0.00    -0.241 NA
HETATM   13  C9  UNL     1      22.136   0.263  53.736  1.00  0.00     0.072 A 
HETATM   14  C10 UNL     1      22.604  -0.842  54.434  1.00  0.00     0.035 A 
HETATM   15  C16 UNL     1      23.090   1.031  53.110  1.00  0.00     0.041 A 
HETATM   16  C11 UNL     1      23.954  -1.119  54.473  1.00  0.00     0.032 A 
HETATM   17  C12 UNL     1      24.885  -0.310  53.822  1.00  0.00     0.035 A 
HETATM   18  C15 UNL     1      24.444   0.803  53.116  1.00  0.00     0.047 A 
BRANCH  17  19
HETATM   19  N4  UNL     1      26.279  -0.588  53.857  1.00  0.00    -0.327 N 
HETATM   20  C13 UNL     1      27.399   0.087  54.397  1.00  0.00     0.218 C 
HETATM   21  C14 UNL     1      28.740  -0.507  54.245  1.00  0.00     0.117 C 
HETATM   22  O1  UNL     1      27.245   1.172  54.991  1.00  0.00    -0.274 OA
HETATM   23  H8  UNL     1      26.311  -1.493  53.349  1.00  0.00     0.169 HD
ENDBRANCH  17  19
ENDBRANCH   7   9
TORSDOF 2
ENDMDL
MODEL 8
REMARK VINA RESULT:      -7.7      2.881      5.914
REMARK  2 active torsions:
REMARK  status: ('A' for Active; 'I' for Inactive)
REMARK    1  A    between atoms: N1_7  and  C7_8 
REMARK    2  A    between atoms: C12_15  and  N4_16 
REMARK       I    between atoms: N4_16  and  C13_17 
ROOT
HETATM    1  C1  UNL     1      22.317   1.779  47.806  1.00  0.00     0.017 C 
HETATM    2  C2  UNL     1      21.629   1.847  48.781  1.00  0.00    -0.080 C 
HETATM    3  C3  UNL     1      20.815   1.923  49.958  1.00  0.00     0.023 C 
HETATM    4  C4  UNL     1      20.006   2.894  50.242  1.00  0.00    -0.011 C 
HETATM    5  C5  UNL     1      20.077   3.377  51.472  1.00  0.00     0.006 C 
HETATM    6  C6  UNL     1      20.363   2.471  52.643  1.00  0.00     0.153 C 
HETATM    7  N1  UNL     1      21.275   1.415  52.275  1.00  0.00    -0.357 N 
HETATM    8  C17 UNL     1      20.832   0.856  50.989  1.00  0.00     0.173 C 
ENDROOT
BRANCH   7   9
HETATM    9  C7  UNL     1      22.439   0.831  52.850  1.00  0.00     0.140 A 
HETATM   10  N2  UNL     1      22.188  -0.242  53.633  1.00  0.00    -0.224 NA
HETATM   11  C8  UNL     1      23.197  -0.907  54.254  1.00  0.00     0.236 A 
HETATM   12  N3  UNL     1      24.475  -0.530  54.115  1.00  0.00    -0.241 NA
HETATM   13  C9  UNL     1      24.733   0.537  53.336  1.00  0.00     0.072 A 
HETATM   14  C10 UNL     1      26.032   0.988  53.145  1.00  0.00     0.035 A 
HETATM   15  C16 UNL     1      23.746   1.243  52.689  1.00  0.00     0.041 A 
HETATM   16  C11 UNL     1      26.276   2.083  52.343  1.00  0.00     0.032 A 
HETATM   17  C12 UNL     1      25.241   2.768  51.706  1.00  0.00     0.035 A 
HETATM   18  C15 UNL     1      23.931   2.338  51.881  1.00  0.00     0.047 A 
BRANCH  17  19
HETATM   19  N4  UNL     1      25.485   3.898  50.879  1.00  0.00    -0.327 N 
HETATM   20  C13 UNL     1      26.290   4.121  49.737  1.00  0.00     0.218 C 
HETATM   21  C14 UNL     1      26.303   5.457  49.114  1.00  0.00     0.117 C 
HETATM   22  O1  UNL     1      26.977   3.192  49.270  1.00  0.00    -0.274 OA
HETATM   23  H8  UNL     1      24.881   4.608  51.336  1.00  0.00     0.169 HD
ENDBRANCH  17  19
ENDBRANCH   7   9
TORSDOF 2
ENDMDL
MODEL 9
REMARK VINA RESULT:      -7.7      2.437      5.107
REMARK  2 active torsions:
REMARK  status: ('A' for Active; 'I' for Inactive)
REMARK    1  A    between atoms: N1_7  and  C7_8 
REMARK    2  A    between atoms: C12_15  and  N4_16 
REMARK       I    between atoms: N4_16  and  C13_17 
ROOT
HETATM    1  C1  UNL     1      20.917   3.372  52.560  1.00  0.00     0.017 C 
HETATM    2  C2  UNL     1      21.838   3.617  51.838  1.00  0.00    -0.080 C 
HETATM    3  C3  UNL     1      22.951   3.902  50.982  1.00  0.00     0.023 C 
HETATM    4  C4  UNL     1      22.889   4.011  49.693  1.00  0.00    -0.011 C 
HETATM    5  C5  UNL     1      23.808   3.354  49.003  1.00  0.00     0.006 C 
HETATM    6  C6  UNL     1      25.215   3.215  49.529  1.00  0.00     0.153 C 
HETATM    7  N1  UNL     1      25.226   3.088  50.966  1.00  0.00    -0.357 N 
HETATM    8  C17 UNL     1      24.318   4.104  51.521  1.00  0.00     0.173 C 
ENDROOT
BRANCH   7   9
HETATM    9  C7  UNL     1      25.883   2.246  51.907  1.00  0.00     0.140 A 
HETATM   10  N2  UNL     1      27.197   2.518  52.065  1.00  0.00    -0.224 NA
HETATM   11  C8  UNL     1      27.962   1.800  52.928  1.00  0.00     0.236 A 
HETATM   12  N3  UNL     1      27.446   0.799  53.655  1.00  0.00    -0.241 NA
HETATM   13  C9  UNL     1      26.138   0.523  53.504  1.00  0.00     0.072 A 
HETATM   14  C10 UNL     1      25.533  -0.499  54.222  1.00  0.00     0.035 A 
HETATM   15  C16 UNL     1      25.325   1.221  52.642  1.00  0.00     0.041 A 
HETATM   16  C11 UNL     1      24.191  -0.766  54.053  1.00  0.00     0.032 A 
HETATM   17  C12 UNL     1      23.405  -0.030  53.166  1.00  0.00     0.035 A 
HETATM   18  C15 UNL     1      23.985   0.999  52.434  1.00  0.00     0.047 A 
BRANCH  17  19
HETATM   19  N4  UNL     1      22.020  -0.300  52.986  1.00  0.00    -0.327 N 
HETATM   20  C13 UNL     1      20.880  -0.160  53.811  1.00  0.00     0.218 C 
HETATM   21  C14 UNL     1      19.558  -0.550  53.286  1.00  0.00     0.117 C 
HETATM   22  O1  UNL     1      21.000   0.287  54.968  1.00  0.00    -0.274 OA
HETATM   23  H8  UNL     1      22.017  -0.662  52.013  1.00  0.00     0.169 HD
ENDBRANCH  17  19
ENDBRANCH   7   9
TORSDOF 2
ENDMDL
