MODEL 1
REMARK VINA RESULT:      -8.6      0.000      0.000
REMARK  8 active torsions:
REMARK  status: ('A' for Active; 'I' for Inactive)
REMARK    1  A    between atoms: O1_2  and  C2_3 
REMARK    2  A    between atoms: C6_9  and  N3_10 
REMARK    3  A    between atoms: N3_10  and  C7_11 
REMARK    4  A    between atoms: C15_21  and  O2_22 
REMARK    5  A    between atoms: O2_22  and  C16_23 
REMARK    6  A    between atoms: C16_23  and  C17_24 
REMARK    7  A    between atoms: C17_24  and  C18_25 
REMARK    8  A    between atoms: C18_25  and  C19_26 
ROOT
HETATM    1  C2  UNL     1      20.016  -0.093  52.439  1.00  0.00     0.103 A 
HETATM    2  C3  UNL     1      20.360  -0.662  53.645  1.00  0.00     0.072 A 
HETATM    3  C4  UNL     1      21.688  -0.763  54.009  1.00  0.00     0.075 A 
HETATM    4  N1  UNL     1      21.945  -1.334  55.195  1.00  0.00    -0.241 NA
HETATM    5  C5  UNL     1      23.209  -1.481  55.631  1.00  0.00     0.236 A 
HETATM    6  N2  UNL     1      24.180  -1.031  54.824  1.00  0.00    -0.224 NA
HETATM    7  C6  UNL     1      23.982  -0.455  53.635  1.00  0.00     0.142 A 
HETATM    8  C13 UNL     1      22.696  -0.295  53.171  1.00  0.00     0.042 A 
HETATM    9  C14 UNL     1      22.330   0.268  51.975  1.00  0.00     0.057 A 
HETATM   10  C15 UNL     1      21.012   0.378  51.589  1.00  0.00     0.103 A 
ENDROOT
BRANCH   7  11
HETATM   11  N3  UNL     1      25.051  -0.001  52.813  1.00  0.00    -0.340 N 
HETATM   12  H6  UNL     1      24.946   0.523  51.924  1.00  0.00     0.167 HD
BRANCH  11  13
HETATM   13  C7  UNL     1      26.444  -0.175  53.047  1.00  0.00     0.035 A 
HETATM   14  C8  UNL     1      27.169  -1.335  52.813  1.00  0.00     0.032 A 
HETATM   15  C9  UNL     1      28.514  -1.422  53.092  1.00  0.00     0.046 A 
HETATM   16  C10 UNL     1      29.225  -0.365  53.622  1.00  0.00     0.138 A 
HETATM   17  F1  UNL     1      30.537  -0.633  53.831  1.00  0.00    -0.204 F 
HETATM   18  C11 UNL     1      28.513   0.782  53.855  1.00  0.00     0.074 A 
HETATM   19 CL1  UNL     1      29.480   2.100  54.541  1.00  0.00    -0.081 Cl
HETATM   20  C12 UNL     1      27.186   0.859  53.576  1.00  0.00     0.056 A 
ENDBRANCH  11  13
ENDBRANCH   7  11
BRANCH  10  21
HETATM   21  O2  UNL     1      20.639   0.945  50.382  1.00  0.00    -0.348 OA
BRANCH  21  22
HETATM   22  C16 UNL     1      21.694   1.262  49.496  1.00  0.00     0.176 C 
BRANCH  22  23
HETATM   23  C17 UNL     1      21.778   2.795  49.490  1.00  0.00     0.029 C 
BRANCH  23  24
HETATM   24  C18 UNL     1      23.193   3.107  49.068  1.00  0.00     0.040 C 
BRANCH  24  25
HETATM   25  C19 UNL     1      24.006   3.814  50.112  1.00  0.00     0.248 C 
HETATM   26  C20 UNL     1      24.881   2.740  50.772  1.00  0.00     0.205 C 
HETATM   27  O3  UNL     1      24.957   3.079  52.104  1.00  0.00    -0.360 OA
HETATM   28  C21 UNL     1      23.685   3.557  52.412  1.00  0.00     0.440 C 
HETATM   29  N4  UNL     1      23.189   4.223  51.246  1.00  0.00     0.113 N 
HETATM   30  C22 UNL     1      23.162   5.663  51.397  1.00  0.00     0.313 C 
ENDBRANCH  24  25
ENDBRANCH  23  24
ENDBRANCH  22  23
ENDBRANCH  21  22
ENDBRANCH  10  21
BRANCH   1  31
HETATM   31  O1  UNL     1      18.694   0.036  52.017  1.00  0.00    -0.353 OA
HETATM   32  C1  UNL     1      17.758  -0.904  52.520  1.00  0.00     0.210 C 
ENDBRANCH   1  31
TORSDOF 8
ENDMDL
MODEL 2
REMARK VINA RESULT:      -7.8      3.694      6.409
REMARK  8 active torsions:
REMARK  status: ('A' for Active; 'I' for Inactive)
REMARK    1  A    between atoms: O1_2  and  C2_3 
REMARK    2  A    between atoms: C6_9  and  N3_10 
REMARK    3  A    between atoms: N3_10  and  C7_11 
REMARK    4  A    between atoms: C15_21  and  O2_22 
REMARK    5  A    between atoms: O2_22  and  C16_23 
REMARK    6  A    between atoms: C16_23  and  C17_24 
REMARK    7  A    between atoms: C17_24  and  C18_25 
REMARK    8  A    between atoms: C18_25  and  C19_26 
ROOT
HETATM    1  C2  UNL     1      27.101   0.605  53.510  1.00  0.00     0.103 A 
HETATM    2  C3  UNL     1      26.521  -0.063  54.566  1.00  0.00     0.072 A 
HETATM    3  C4  UNL     1      25.202  -0.464  54.489  1.00  0.00     0.075 A 
HETATM    4  N1  UNL     1      24.705  -1.104  55.558  1.00  0.00    -0.241 NA
HETATM    5  C5  UNL     1      23.428  -1.526  55.577  1.00  0.00     0.236 A 
HETATM    6  N2  UNL     1      22.695  -1.275  54.484  1.00  0.00    -0.224 NA
HETATM    7  C6  UNL     1      23.138  -0.644  53.393  1.00  0.00     0.142 A 
HETATM    8  C13 UNL     1      24.441  -0.203  53.353  1.00  0.00     0.042 A 
HETATM    9  C14 UNL     1      25.040   0.463  52.315  1.00  0.00     0.057 A 
HETATM   10  C15 UNL     1      26.354   0.874  52.368  1.00  0.00     0.103 A 
ENDROOT
BRANCH   7  11
HETATM   11  N3  UNL     1      22.312  -0.396  52.260  1.00  0.00    -0.340 N 
HETATM   12  H6  UNL     1      22.329  -0.936  51.375  1.00  0.00     0.167 HD
BRANCH  11  13
HETATM   13  C7  UNL     1      21.325   0.620  52.125  1.00  0.00     0.035 A 
HETATM   14  C8  UNL     1      21.321   1.841  52.786  1.00  0.00     0.032 A 
HETATM   15  C9  UNL     1      20.310   2.758  52.613  1.00  0.00     0.046 A 
HETATM   16  C10 UNL     1      19.239   2.524  51.776  1.00  0.00     0.138 A 
HETATM   17  F1  UNL     1      18.340   3.537  51.731  1.00  0.00    -0.204 F 
HETATM   18  C11 UNL     1      19.239   1.319  51.121  1.00  0.00     0.074 A 
HETATM   19 CL1  UNL     1      17.836   1.075  50.066  1.00  0.00    -0.081 Cl
HETATM   20  C12 UNL     1      20.241   0.420  51.298  1.00  0.00     0.056 A 
ENDBRANCH  11  13
ENDBRANCH   7  11
BRANCH  10  21
HETATM   21  O2  UNL     1      26.962   1.548  51.322  1.00  0.00    -0.348 OA
BRANCH  21  22
HETATM   22  C16 UNL     1      26.585   2.901  51.157  1.00  0.00     0.176 C 
BRANCH  22  23
HETATM   23  C17 UNL     1      26.359   3.082  49.650  1.00  0.00     0.029 C 
BRANCH  23  24
HETATM   24  C18 UNL     1      25.267   4.118  49.540  1.00  0.00     0.040 C 
BRANCH  24  25
HETATM   25  C19 UNL     1      24.008   3.767  50.277  1.00  0.00     0.248 C 
HETATM   26  C20 UNL     1      23.248   2.782  49.380  1.00  0.00     0.205 C 
HETATM   27  O3  UNL     1      21.913   3.078  49.536  1.00  0.00    -0.360 OA
HETATM   28  C21 UNL     1      21.876   4.468  49.627  1.00  0.00     0.440 C 
HETATM   29  N4  UNL     1      23.069   4.880  50.302  1.00  0.00     0.113 N 
HETATM   30  C22 UNL     1      22.815   5.339  51.652  1.00  0.00     0.313 C 
ENDBRANCH  24  25
ENDBRANCH  23  24
ENDBRANCH  22  23
ENDBRANCH  21  22
ENDBRANCH  10  21
BRANCH   1  31
HETATM   31  O1  UNL     1      28.427   1.036  53.529  1.00  0.00    -0.353 OA
HETATM   32  C1  UNL     1      29.430   0.040  53.648  1.00  0.00     0.210 C 
ENDBRANCH   1  31
TORSDOF 8
ENDMDL
MODEL 3
REMARK VINA RESULT:      -7.6      3.512      5.360
REMARK  8 active torsions:
REMARK  status: ('A' for Active; 'I' for Inactive)
REMARK    1  A    between atoms: O1_2  and  C2_3 
REMARK    2  A    between atoms: C6_9  and  N3_10 
REMARK    3  A    between atoms: N3_10  and  C7_11 
REMARK    4  A    between atoms: C15_21  and  O2_22 
REMARK    5  A    between atoms: O2_22  and  C16_23 
REMARK    6  A    between atoms: C16_23  and  C17_24 
REMARK    7  A    between atoms: C17_24  and  C18_25 
REMARK    8  A    between atoms: C18_25  and  C19_26 
ROOT
HETATM    1  C2  UNL     1      23.219   0.601  53.183  1.00  0.00     0.103 A 
HETATM    2  C3  UNL     1      24.415   0.817  53.831  1.00  0.00     0.072 A 
HETATM    3  C4  UNL     1      25.471   1.398  53.160  1.00  0.00     0.075 A 
HETATM    4  N1  UNL     1      26.605   1.571  53.856  1.00  0.00    -0.241 NA
HETATM    5  C5  UNL     1      27.689   2.123  53.283  1.00  0.00     0.236 A 
HETATM    6  N2  UNL     1      27.572   2.486  51.998  1.00  0.00    -0.224 NA
HETATM    7  C6  UNL     1      26.469   2.340  51.258  1.00  0.00     0.142 A 
HETATM    8  C13 UNL     1      25.349   1.776  51.826  1.00  0.00     0.042 A 
HETATM    9  C14 UNL     1      24.149   1.553  51.200  1.00  0.00     0.057 A 
HETATM   10  C15 UNL     1      23.081   0.972  51.849  1.00  0.00     0.103 A 
ENDROOT
BRANCH   7  11
HETATM   11  N3  UNL     1      26.401   2.737  49.894  1.00  0.00    -0.340 N 
HETATM   12  H6  UNL     1      26.376   2.093  49.080  1.00  0.00     0.167 HD
BRANCH  11  13
HETATM   13  C7  UNL     1      26.355   4.067  49.390  1.00  0.00     0.035 A 
HETATM   14  C8  UNL     1      25.231   4.879  49.342  1.00  0.00     0.032 A 
HETATM   15  C9  UNL     1      25.272   6.149  48.814  1.00  0.00     0.046 A 
HETATM   16  C10 UNL     1      26.430   6.695  48.299  1.00  0.00     0.138 A 
HETATM   17  F1  UNL     1      26.283   7.954  47.822  1.00  0.00    -0.204 F 
HETATM   18  C11 UNL     1      27.543   5.896  48.344  1.00  0.00     0.074 A 
HETATM   19 CL1  UNL     1      28.996   6.649  47.663  1.00  0.00    -0.081 Cl
HETATM   20  C12 UNL     1      27.493   4.643  48.868  1.00  0.00     0.056 A 
ENDBRANCH  11  13
ENDBRANCH   7  11
BRANCH  10  21
HETATM   21  O2  UNL     1      21.868   0.744  51.220  1.00  0.00    -0.348 OA
BRANCH  21  22
HETATM   22  C16 UNL     1      21.221   1.885  50.694  1.00  0.00     0.176 C 
BRANCH  22  23
HETATM   23  C17 UNL     1      20.211   2.315  51.767  1.00  0.00     0.029 C 
BRANCH  23  24
HETATM   24  C18 UNL     1      20.443   3.795  51.951  1.00  0.00     0.040 C 
BRANCH  24  25
HETATM   25  C19 UNL     1      21.615   4.336  51.185  1.00  0.00     0.248 C 
HETATM   26  C20 UNL     1      22.574   4.921  52.230  1.00  0.00     0.205 C 
HETATM   27  O3  UNL     1      23.124   6.043  51.653  1.00  0.00    -0.360 OA
HETATM   28  C21 UNL     1      22.073   6.613  50.937  1.00  0.00     0.440 C 
HETATM   29  N4  UNL     1      21.266   5.539  50.444  1.00  0.00     0.113 N 
HETATM   30  C22 UNL     1      21.405   5.349  49.015  1.00  0.00     0.313 C 
ENDBRANCH  24  25
ENDBRANCH  23  24
ENDBRANCH  22  23
ENDBRANCH  21  22
ENDBRANCH  10  21
BRANCH   1  31
HETATM   31  O1  UNL     1      22.118   0.018  53.807  1.00  0.00    -0.353 OA
HETATM   32  C1  UNL     1      22.345  -1.174  54.542  1.00  0.00     0.210 C 
ENDBRANCH   1  31
TORSDOF 8
ENDMDL
MODEL 4
REMARK VINA RESULT:      -7.6      3.794      7.682
REMARK  8 active torsions:
REMARK  status: ('A' for Active; 'I' for Inactive)
REMARK    1  A    between atoms: O1_2  and  C2_3 
REMARK    2  A    between atoms: C6_9  and  N3_10 
REMARK    3  A    between atoms: N3_10  and  C7_11 
REMARK    4  A    between atoms: C15_21  and  O2_22 
REMARK    5  A    between atoms: O2_22  and  C16_23 
REMARK    6  A    between atoms: C16_23  and  C17_24 
REMARK    7  A    between atoms: C17_24  and  C18_25 
REMARK    8  A    between atoms: C18_25  and  C19_26 
ROOT
HETATM    1  C2  UNL     1      24.856   5.143  49.517  1.00  0.00     0.103 A 
HETATM    2  C3  UNL     1      23.907   5.481  48.578  1.00  0.00     0.072 A 
HETATM    3  C4  UNL     1      22.931   4.572  48.223  1.00  0.00     0.075 A 
HETATM    4  N1  UNL     1      22.045   4.971  47.299  1.00  0.00    -0.241 NA
HETATM    5  C5  UNL     1      21.063   4.150  46.885  1.00  0.00     0.236 A 
HETATM    6  N2  UNL     1      21.022   2.932  47.442  1.00  0.00    -0.224 NA
HETATM    7  C6  UNL     1      21.876   2.483  48.366  1.00  0.00     0.142 A 
HETATM    8  C13 UNL     1      22.888   3.307  48.802  1.00  0.00     0.042 A 
HETATM    9  C14 UNL     1      23.843   2.992  49.735  1.00  0.00     0.057 A 
HETATM   10  C15 UNL     1      24.828   3.882  50.105  1.00  0.00     0.103 A 
ENDROOT
BRANCH   7  11
HETATM   11  N3  UNL     1      21.791   1.175  48.920  1.00  0.00    -0.340 N 
HETATM   12  H6  UNL     1      22.243   0.326  48.530  1.00  0.00     0.167 HD
BRANCH  11  13
HETATM   13  C7  UNL     1      21.084   0.785  50.091  1.00  0.00     0.035 A 
HETATM   14  C8  UNL     1      19.704   0.762  50.238  1.00  0.00     0.032 A 
HETATM   15  C9  UNL     1      19.102   0.393  51.419  1.00  0.00     0.046 A 
HETATM   16  C10 UNL     1      19.831   0.024  52.531  1.00  0.00     0.138 A 
HETATM   17  F1  UNL     1      19.072  -0.307  53.604  1.00  0.00    -0.204 F 
HETATM   18  C11 UNL     1      21.195   0.045  52.391  1.00  0.00     0.074 A 
HETATM   19 CL1  UNL     1      22.074  -0.434  53.854  1.00  0.00    -0.081 Cl
HETATM   20  C12 UNL     1      21.779   0.411  51.221  1.00  0.00     0.056 A 
ENDBRANCH  11  13
ENDBRANCH   7  11
BRANCH  10  21
HETATM   21  O2  UNL     1      25.795   3.568  51.045  1.00  0.00    -0.348 OA
BRANCH  21  22
HETATM   22  C16 UNL     1      26.482   2.349  50.842  1.00  0.00     0.176 C 
BRANCH  22  23
HETATM   23  C17 UNL     1      26.345   1.576  52.161  1.00  0.00     0.029 C 
BRANCH  23  24
HETATM   24  C18 UNL     1      26.701   0.150  51.816  1.00  0.00     0.040 C 
BRANCH  24  25
HETATM   25  C19 UNL     1      27.096  -0.689  52.996  1.00  0.00     0.248 C 
HETATM   26  C20 UNL     1      26.235  -0.208  54.170  1.00  0.00     0.205 C 
HETATM   27  O3  UNL     1      27.039  -0.278  55.285  1.00  0.00    -0.360 OA
HETATM   28  C21 UNL     1      28.294   0.122  54.831  1.00  0.00     0.440 C 
HETATM   29  N4  UNL     1      28.424  -0.342  53.483  1.00  0.00     0.113 N 
HETATM   30  C22 UNL     1      29.347  -1.451  53.363  1.00  0.00     0.313 C 
ENDBRANCH  24  25
ENDBRANCH  23  24
ENDBRANCH  22  23
ENDBRANCH  21  22
ENDBRANCH  10  21
BRANCH   1  31
HETATM   31  O1  UNL     1      25.865   6.018  49.916  1.00  0.00    -0.353 OA
HETATM   32  C1  UNL     1      25.585   7.406  49.848  1.00  0.00     0.210 C 
ENDBRANCH   1  31
TORSDOF 8
ENDMDL
MODEL 5
REMARK VINA RESULT:      -7.6      3.865      6.349
REMARK  8 active torsions:
REMARK  status: ('A' for Active; 'I' for Inactive)
REMARK    1  A    between atoms: O1_2  and  C2_3 
REMARK    2  A    between atoms: C6_9  and  N3_10 
REMARK    3  A    between atoms: N3_10  and  C7_11 
REMARK    4  A    between atoms: C15_21  and  O2_22 
REMARK    5  A    between atoms: O2_22  and  C16_23 
REMARK    6  A    between atoms: C16_23  and  C17_24 
REMARK    7  A    between atoms: C17_24  and  C18_25 
REMARK    8  A    between atoms: C18_25  and  C19_26 
ROOT
HETATM    1  C2  UNL     1      27.281   0.692  53.354  1.00  0.00     0.103 A 
HETATM    2  C3  UNL     1      26.752   0.004  54.424  1.00  0.00     0.072 A 
HETATM    3  C4  UNL     1      25.428  -0.383  54.411  1.00  0.00     0.075 A 
HETATM    4  N1  UNL     1      24.983  -1.044  55.490  1.00  0.00    -0.241 NA
HETATM    5  C5  UNL     1      23.705  -1.455  55.570  1.00  0.00     0.236 A 
HETATM    6  N2  UNL     1      22.916  -1.171  54.524  1.00  0.00    -0.224 NA
HETATM    7  C6  UNL     1      23.304  -0.518  53.425  1.00  0.00     0.142 A 
HETATM    8  C13 UNL     1      24.608  -0.089  53.325  1.00  0.00     0.042 A 
HETATM    9  C14 UNL     1      25.156   0.596  52.271  1.00  0.00     0.057 A 
HETATM   10  C15 UNL     1      26.475   0.995  52.262  1.00  0.00     0.103 A 
ENDROOT
BRANCH   7  11
HETATM   11  N3  UNL     1      22.421  -0.237  52.346  1.00  0.00    -0.340 N 
HETATM   12  H6  UNL     1      22.320  -0.809  51.487  1.00  0.00     0.167 HD
BRANCH  11  13
HETATM   13  C7  UNL     1      21.524   0.862  52.238  1.00  0.00     0.035 A 
HETATM   14  C8  UNL     1      20.143   0.776  52.128  1.00  0.00     0.032 A 
HETATM   15  C9  UNL     1      19.351   1.894  52.003  1.00  0.00     0.046 A 
HETATM   16  C10 UNL     1      19.877   3.169  51.979  1.00  0.00     0.138 A 
HETATM   17  F1  UNL     1      18.949   4.148  51.850  1.00  0.00    -0.204 F 
HETATM   18  C11 UNL     1      21.241   3.260  52.088  1.00  0.00     0.074 A 
HETATM   19 CL1  UNL     1      21.856   4.921  52.046  1.00  0.00    -0.081 Cl
HETATM   20  C12 UNL     1      22.014   2.150  52.211  1.00  0.00     0.056 A 
ENDBRANCH  11  13
ENDBRANCH   7  11
BRANCH  10  21
HETATM   21  O2  UNL     1      27.032   1.688  51.200  1.00  0.00    -0.348 OA
BRANCH  21  22
HETATM   22  C16 UNL     1      26.578   3.015  51.022  1.00  0.00     0.176 C 
BRANCH  22  23
HETATM   23  C17 UNL     1      26.418   3.195  49.507  1.00  0.00     0.029 C 
BRANCH  23  24
HETATM   24  C18 UNL     1      25.442   4.337  49.350  1.00  0.00     0.040 C 
BRANCH  24  25
HETATM   25  C19 UNL     1      26.024   5.689  49.642  1.00  0.00     0.248 C 
HETATM   26  C20 UNL     1      24.940   6.463  50.404  1.00  0.00     0.205 C 
HETATM   27  O3  UNL     1      25.033   7.767  49.974  1.00  0.00    -0.360 OA
HETATM   28  C21 UNL     1      25.316   7.664  48.614  1.00  0.00     0.440 C 
HETATM   29  N4  UNL     1      26.132   6.501  48.439  1.00  0.00     0.113 N 
HETATM   30  C22 UNL     1      27.510   6.829  48.134  1.00  0.00     0.313 C 
ENDBRANCH  24  25
ENDBRANCH  23  24
ENDBRANCH  22  23
ENDBRANCH  21  22
ENDBRANCH  10  21
BRANCH   1  31
HETATM   31  O1  UNL     1      28.610   1.110  53.310  1.00  0.00    -0.353 OA
HETATM   32  C1  UNL     1      28.909   2.381  53.866  1.00  0.00     0.210 C 
ENDBRANCH   1  31
TORSDOF 8
ENDMDL
MODEL 6
REMARK VINA RESULT:      -7.6      3.954      6.428
REMARK  8 active torsions:
REMARK  status: ('A' for Active; 'I' for Inactive)
REMARK    1  A    between atoms: O1_2  and  C2_3 
REMARK    2  A    between atoms: C6_9  and  N3_10 
REMARK    3  A    between atoms: N3_10  and  C7_11 
REMARK    4  A    between atoms: C15_21  and  O2_22 
REMARK    5  A    between atoms: O2_22  and  C16_23 
REMARK    6  A    between atoms: C16_23  and  C17_24 
REMARK    7  A    between atoms: C17_24  and  C18_25 
REMARK    8  A    between atoms: C18_25  and  C19_26 
ROOT
HETATM    1  C2  UNL     1      26.800   1.342  52.423  1.00  0.00     0.103 A 
HETATM    2  C3  UNL     1      26.063   0.452  53.172  1.00  0.00     0.072 A 
HETATM    3  C4  UNL     1      24.685   0.484  53.126  1.00  0.00     0.075 A 
HETATM    4  N1  UNL     1      24.036  -0.410  53.887  1.00  0.00    -0.241 NA
HETATM    5  C5  UNL     1      22.692  -0.449  53.912  1.00  0.00     0.236 A 
HETATM    6  N2  UNL     1      22.050   0.442  53.143  1.00  0.00    -0.224 NA
HETATM    7  C6  UNL     1      22.643   1.352  52.366  1.00  0.00     0.142 A 
HETATM    8  C13 UNL     1      24.018   1.409  52.327  1.00  0.00     0.042 A 
HETATM    9  C14 UNL     1      24.772   2.285  51.590  1.00  0.00     0.057 A 
HETATM   10  C15 UNL     1      26.149   2.274  51.620  1.00  0.00     0.103 A 
ENDROOT
BRANCH   7  11
HETATM   11  N3  UNL     1      21.912   2.281  51.575  1.00  0.00    -0.340 N 
HETATM   12  H6  UNL     1      21.230   2.974  51.937  1.00  0.00     0.167 HD
BRANCH  11  13
HETATM   13  C7  UNL     1      21.971   2.435  50.162  1.00  0.00     0.035 A 
HETATM   14  C8  UNL     1      21.882   1.412  49.228  1.00  0.00     0.032 A 
HETATM   15  C9  UNL     1      21.973   1.650  47.875  1.00  0.00     0.046 A 
HETATM   16  C10 UNL     1      22.161   2.917  47.363  1.00  0.00     0.138 A 
HETATM   17  F1  UNL     1      22.228   2.961  46.010  1.00  0.00    -0.204 F 
HETATM   18  C11 UNL     1      22.250   3.931  48.281  1.00  0.00     0.074 A 
HETATM   19 CL1  UNL     1      22.496   5.532  47.562  1.00  0.00    -0.081 Cl
HETATM   20  C12 UNL     1      22.158   3.687  49.614  1.00  0.00     0.056 A 
ENDBRANCH  11  13
ENDBRANCH   7  11
BRANCH  10  21
HETATM   21  O2  UNL     1      26.914   3.158  50.878  1.00  0.00    -0.348 OA
BRANCH  21  22
HETATM   22  C16 UNL     1      26.546   3.304  49.521  1.00  0.00     0.176 C 
BRANCH  22  23
HETATM   23  C17 UNL     1      27.070   4.684  49.100  1.00  0.00     0.029 C 
BRANCH  23  24
HETATM   24  C18 UNL     1      25.838   5.546  48.970  1.00  0.00     0.040 C 
BRANCH  24  25
HETATM   25  C19 UNL     1      25.687   6.574  50.053  1.00  0.00     0.248 C 
HETATM   26  C20 UNL     1      24.413   6.200  50.822  1.00  0.00     0.205 C 
HETATM   27  O3  UNL     1      23.817   7.391  51.171  1.00  0.00    -0.360 OA
HETATM   28  C21 UNL     1      24.026   8.218  50.070  1.00  0.00     0.440 C 
HETATM   29  N4  UNL     1      25.299   7.871  49.515  1.00  0.00     0.113 N 
HETATM   30  C22 UNL     1      26.309   8.879  49.765  1.00  0.00     0.313 C 
ENDBRANCH  24  25
ENDBRANCH  23  24
ENDBRANCH  22  23
ENDBRANCH  21  22
ENDBRANCH  10  21
BRANCH   1  31
HETATM   31  O1  UNL     1      28.194   1.359  52.429  1.00  0.00    -0.353 OA
HETATM   32  C1  UNL     1      28.835   1.563  53.677  1.00  0.00     0.210 C 
ENDBRANCH   1  31
TORSDOF 8
ENDMDL
MODEL 7
REMARK VINA RESULT:      -7.5      5.391      8.396
REMARK  8 active torsions:
REMARK  status: ('A' for Active; 'I' for Inactive)
REMARK    1  A    between atoms: O1_2  and  C2_3 
REMARK    2  A    between atoms: C6_9  and  N3_10 
REMARK    3  A    between atoms: N3_10  and  C7_11 
REMARK    4  A    between atoms: C15_21  and  O2_22 
REMARK    5  A    between atoms: O2_22  and  C16_23 
REMARK    6  A    between atoms: C16_23  and  C17_24 
REMARK    7  A    between atoms: C17_24  and  C18_25 
REMARK    8  A    between atoms: C18_25  and  C19_26 
ROOT
HETATM    1  C2  UNL     1      24.187   4.512  49.264  1.00  0.00     0.103 A 
HETATM    2  C3  UNL     1      24.292   5.720  48.611  1.00  0.00     0.072 A 
HETATM    3  C4  UNL     1      25.534   6.271  48.371  1.00  0.00     0.075 A 
HETATM    4  N1  UNL     1      25.556   7.451  47.735  1.00  0.00    -0.241 NA
HETATM    5  C5  UNL     1      26.720   8.067  47.464  1.00  0.00     0.236 A 
HETATM    6  N2  UNL     1      27.838   7.442  47.858  1.00  0.00    -0.224 NA
HETATM    7  C6  UNL     1      27.876   6.267  48.493  1.00  0.00     0.142 A 
HETATM    8  C13 UNL     1      26.695   5.621  48.780  1.00  0.00     0.042 A 
HETATM    9  C14 UNL     1      26.567   4.419  49.428  1.00  0.00     0.057 A 
HETATM   10  C15 UNL     1      25.337   3.850  49.681  1.00  0.00     0.103 A 
ENDROOT
BRANCH   7  11
HETATM   11  N3  UNL     1      29.093   5.650  48.897  1.00  0.00    -0.340 N 
HETATM   12  H6  UNL     1      29.179   4.900  49.608  1.00  0.00     0.167 HD
BRANCH  11  13
HETATM   13  C7  UNL     1      30.400   5.938  48.415  1.00  0.00     0.035 A 
HETATM   14  C8  UNL     1      31.187   7.018  48.795  1.00  0.00     0.032 A 
HETATM   15  C9  UNL     1      32.435   7.233  48.257  1.00  0.00     0.046 A 
HETATM   16  C10 UNL     1      32.983   6.394  47.310  1.00  0.00     0.138 A 
HETATM   17  F1  UNL     1      34.219   6.762  46.894  1.00  0.00    -0.204 F 
HETATM   18  C11 UNL     1      32.210   5.327  46.932  1.00  0.00     0.074 A 
HETATM   19 CL1  UNL     1      32.965   4.290  45.709  1.00  0.00    -0.081 Cl
HETATM   20  C12 UNL     1      30.979   5.122  47.468  1.00  0.00     0.056 A 
ENDBRANCH  11  13
ENDBRANCH   7  11
BRANCH  10  21
HETATM   21  O2  UNL     1      25.204   2.637  50.336  1.00  0.00    -0.348 OA
BRANCH  21  22
HETATM   22  C16 UNL     1      25.725   2.583  51.649  1.00  0.00     0.176 C 
BRANCH  22  23
HETATM   23  C17 UNL     1      25.440   1.159  52.145  1.00  0.00     0.029 C 
BRANCH  23  24
HETATM   24  C18 UNL     1      26.720   0.398  51.903  1.00  0.00     0.040 C 
BRANCH  24  25
HETATM   25  C19 UNL     1      27.110  -0.525  53.020  1.00  0.00     0.248 C 
HETATM   26  C20 UNL     1      26.290  -0.087  54.241  1.00  0.00     0.205 C 
HETATM   27  O3  UNL     1      27.115  -0.252  55.331  1.00  0.00    -0.360 OA
HETATM   28  C21 UNL     1      28.374   0.131  54.873  1.00  0.00     0.440 C 
HETATM   29  N4  UNL     1      28.459  -0.254  53.497  1.00  0.00     0.113 N 
HETATM   30  C22 UNL     1      29.340  -1.384  53.289  1.00  0.00     0.313 C 
ENDBRANCH  24  25
ENDBRANCH  23  24
ENDBRANCH  22  23
ENDBRANCH  21  22
ENDBRANCH  10  21
BRANCH   1  31
HETATM   31  O1  UNL     1      22.961   3.906  49.535  1.00  0.00    -0.353 OA
HETATM   32  C1  UNL     1      22.064   4.608  50.380  1.00  0.00     0.210 C 
ENDBRANCH   1  31
TORSDOF 8
ENDMDL
MODEL 8
REMARK VINA RESULT:      -7.5      2.249      2.999
REMARK  8 active torsions:
REMARK  status: ('A' for Active; 'I' for Inactive)
REMARK    1  A    between atoms: O1_2  and  C2_3 
REMARK    2  A    between atoms: C6_9  and  N3_10 
REMARK    3  A    between atoms: N3_10  and  C7_11 
REMARK    4  A    between atoms: C15_21  and  O2_22 
REMARK    5  A    between atoms: O2_22  and  C16_23 
REMARK    6  A    between atoms: C16_23  and  C17_24 
REMARK    7  A    between atoms: C17_24  and  C18_25 
REMARK    8  A    between atoms: C18_25  and  C19_26 
ROOT
HETATM    1  C2  UNL     1      20.904   2.199  51.389  1.00  0.00     0.103 A 
HETATM    2  C3  UNL     1      20.584   1.526  52.548  1.00  0.00     0.072 A 
HETATM    3  C4  UNL     1      21.521   0.719  53.161  1.00  0.00     0.075 A 
HETATM    4  N1  UNL     1      21.135   0.093  54.281  1.00  0.00    -0.241 NA
HETATM    5  C5  UNL     1      21.977  -0.720  54.944  1.00  0.00     0.236 A 
HETATM    6  N2  UNL     1      23.206  -0.862  54.427  1.00  0.00    -0.224 NA
HETATM    7  C6  UNL     1      23.645  -0.263  53.317  1.00  0.00     0.142 A 
HETATM    8  C13 UNL     1      22.797   0.572  52.624  1.00  0.00     0.042 A 
HETATM    9  C14 UNL     1      23.094   1.252  51.471  1.00  0.00     0.057 A 
HETATM   10  C15 UNL     1      22.175   2.062  50.840  1.00  0.00     0.103 A 
ENDROOT
BRANCH   7  11
HETATM   11  N3  UNL     1      24.959  -0.455  52.808  1.00  0.00    -0.340 N 
HETATM   12  H6  UNL     1      25.224  -1.131  52.066  1.00  0.00     0.167 HD
BRANCH  11  13
HETATM   13  C7  UNL     1      26.142   0.227  53.208  1.00  0.00     0.035 A 
HETATM   14  C8  UNL     1      26.227   1.569  53.555  1.00  0.00     0.032 A 
HETATM   15  C9  UNL     1      27.421   2.155  53.909  1.00  0.00     0.046 A 
HETATM   16  C10 UNL     1      28.606   1.448  53.940  1.00  0.00     0.138 A 
HETATM   17  F1  UNL     1      29.680   2.188  54.310  1.00  0.00    -0.204 F 
HETATM   18  C11 UNL     1      28.526   0.123  53.598  1.00  0.00     0.074 A 
HETATM   19 CL1  UNL     1      30.081  -0.727  53.652  1.00  0.00    -0.081 Cl
HETATM   20  C12 UNL     1      27.343  -0.446  53.251  1.00  0.00     0.056 A 
ENDBRANCH  11  13
ENDBRANCH   7  11
BRANCH  10  21
HETATM   21  O2  UNL     1      22.471   2.749  49.674  1.00  0.00    -0.348 OA
BRANCH  21  22
HETATM   22  C16 UNL     1      23.830   3.088  49.485  1.00  0.00     0.176 C 
BRANCH  22  23
HETATM   23  C17 UNL     1      23.843   4.601  49.229  1.00  0.00     0.029 C 
BRANCH  23  24
HETATM   24  C18 UNL     1      25.282   5.016  49.414  1.00  0.00     0.040 C 
BRANCH  24  25
HETATM   25  C19 UNL     1      25.461   6.308  50.157  1.00  0.00     0.248 C 
HETATM   26  C20 UNL     1      24.177   6.513  50.972  1.00  0.00     0.205 C 
HETATM   27  O3  UNL     1      23.929   7.866  50.956  1.00  0.00    -0.360 OA
HETATM   28  C21 UNL     1      24.284   8.267  49.669  1.00  0.00     0.440 C 
HETATM   29  N4  UNL     1      25.393   7.457  49.265  1.00  0.00     0.113 N 
HETATM   30  C22 UNL     1      26.640   8.192  49.240  1.00  0.00     0.313 C 
ENDBRANCH  24  25
ENDBRANCH  23  24
ENDBRANCH  22  23
ENDBRANCH  21  22
ENDBRANCH  10  21
BRANCH   1  31
HETATM   31  O1  UNL     1      20.001   3.027  50.725  1.00  0.00    -0.353 OA
HETATM   32  C1  UNL     1      19.928   4.379  51.149  1.00  0.00     0.210 C 
ENDBRANCH   1  31
TORSDOF 8
ENDMDL
MODEL 9
REMARK VINA RESULT:      -7.5      4.160      6.648
REMARK  8 active torsions:
REMARK  status: ('A' for Active; 'I' for Inactive)
REMARK    1  A    between atoms: O1_2  and  C2_3 
REMARK    2  A    between atoms: C6_9  and  N3_10 
REMARK    3  A    between atoms: N3_10  and  C7_11 
REMARK    4  A    between atoms: C15_21  and  O2_22 
REMARK    5  A    between atoms: O2_22  and  C16_23 
REMARK    6  A    between atoms: C16_23  and  C17_24 
REMARK    7  A    between atoms: C17_24  and  C18_25 
REMARK    8  A    between atoms: C18_25  and  C19_26 
ROOT
HETATM    1  C2  UNL     1      27.090   0.474  53.250  1.00  0.00     0.103 A 
HETATM    2  C3  UNL     1      26.572  -0.232  54.313  1.00  0.00     0.072 A 
HETATM    3  C4  UNL     1      25.217  -0.486  54.381  1.00  0.00     0.075 A 
HETATM    4  N1  UNL     1      24.787  -1.175  55.449  1.00  0.00    -0.241 NA
HETATM    5  C5  UNL     1      23.483  -1.464  55.604  1.00  0.00     0.236 A 
HETATM    6  N2  UNL     1      22.653  -1.032  54.645  1.00  0.00    -0.224 NA
HETATM    7  C6  UNL     1      23.025  -0.344  53.561  1.00  0.00     0.142 A 
HETATM    8  C13 UNL     1      24.355  -0.038  53.384  1.00  0.00     0.042 A 
HETATM    9  C14 UNL     1      24.892   0.663  52.335  1.00  0.00     0.057 A 
HETATM   10  C15 UNL     1      26.241   0.930  52.245  1.00  0.00     0.103 A 
ENDROOT
BRANCH   7  11
HETATM   11  N3  UNL     1      22.099   0.098  52.576  1.00  0.00    -0.340 N 
HETATM   12  H6  UNL     1      22.333   0.675  51.746  1.00  0.00     0.167 HD
BRANCH  11  13
HETATM   13  C7  UNL     1      20.701  -0.162  52.537  1.00  0.00     0.035 A 
HETATM   14  C8  UNL     1      19.978  -0.863  53.492  1.00  0.00     0.032 A 
HETATM   15  C9  UNL     1      18.626  -1.088  53.363  1.00  0.00     0.046 A 
HETATM   16  C10 UNL     1      17.906  -0.633  52.278  1.00  0.00     0.138 A 
HETATM   17  F1  UNL     1      16.588  -0.948  52.318  1.00  0.00    -0.204 F 
HETATM   18  C11 UNL     1      18.615   0.061  51.332  1.00  0.00     0.074 A 
HETATM   19 CL1  UNL     1      17.636   0.614  49.962  1.00  0.00    -0.081 Cl
HETATM   20  C12 UNL     1      19.949   0.278  51.469  1.00  0.00     0.056 A 
ENDBRANCH  11  13
ENDBRANCH   7  11
BRANCH  10  21
HETATM   21  O2  UNL     1      26.787   1.638  51.188  1.00  0.00    -0.348 OA
BRANCH  21  22
HETATM   22  C16 UNL     1      26.457   3.012  51.129  1.00  0.00     0.176 C 
BRANCH  22  23
HETATM   23  C17 UNL     1      26.028   3.268  49.678  1.00  0.00     0.029 C 
BRANCH  23  24
HETATM   24  C18 UNL     1      24.526   3.404  49.734  1.00  0.00     0.040 C 
BRANCH  24  25
HETATM   25  C19 UNL     1      24.024   4.799  49.500  1.00  0.00     0.248 C 
HETATM   26  C20 UNL     1      25.207   5.589  48.926  1.00  0.00     0.205 C 
HETATM   27  O3  UNL     1      25.110   6.855  49.455  1.00  0.00    -0.360 OA
HETATM   28  C21 UNL     1      24.679   6.651  50.764  1.00  0.00     0.440 C 
HETATM   29  N4  UNL     1      23.812   5.512  50.751  1.00  0.00     0.113 N 
HETATM   30  C22 UNL     1      22.421   5.871  50.937  1.00  0.00     0.313 C 
ENDBRANCH  24  25
ENDBRANCH  23  24
ENDBRANCH  22  23
ENDBRANCH  21  22
ENDBRANCH  10  21
BRANCH   1  31
HETATM   31  O1  UNL     1      28.448   0.762  53.126  1.00  0.00    -0.353 OA
HETATM   32  C1  UNL     1      29.236   0.688  54.303  1.00  0.00     0.210 C 
ENDBRANCH   1  31
TORSDOF 8
ENDMDL
