MODEL 1
REMARK VINA RESULT:      -9.7      0.000      0.000
REMARK  6 active torsions:
REMARK  status: ('A' for Active; 'I' for Inactive)
REMARK    1  A    between atoms: C7_9  and  C8_10 
REMARK    2  A    between atoms: C11_14  and  N4_15 
REMARK    3  A    between atoms: N4_15  and  C12_16 
REMARK    4  A    between atoms: C16_20  and  O1_21 
REMARK    5  A    between atoms: O1_21  and  C17_22 
REMARK    6  A    between atoms: C17_22  and  C18_25 
ROOT
HETATM    1  C8  UNL     1      25.269   4.549  49.709  1.00  0.00     0.088 A 
HETATM    2  C9  UNL     1      24.191   4.419  48.846  1.00  0.00     0.053 A 
HETATM    3  C10 UNL     1      22.985   3.872  49.146  1.00  0.00     0.139 A 
HETATM    4  N3  UNL     1      22.868   3.421  50.421  1.00  0.00    -0.075 NA
HETATM    5  C11 UNL     1      23.847   3.506  51.308  1.00  0.00     0.727 A 
HETATM    6  N5  UNL     1      24.962   4.057  50.891  1.00  0.00    -0.062 NA
ENDROOT
BRANCH   1   7
HETATM    7  C7  UNL     1      26.437   5.190  49.151  1.00  0.00     0.006 A 
HETATM    8  C6  UNL     1      26.635   6.542  48.987  1.00  0.00     0.004 A 
HETATM    9  C5  UNL     1      25.355   7.143  49.426  1.00  0.00     0.031 C 
HETATM   10  C23 UNL     1      27.759   7.165  48.469  1.00  0.00     0.041 A 
HETATM   11  C4  UNL     1      25.076   8.298  50.059  1.00  0.00     0.084 C 
HETATM   12  N2  UNL     1      25.905   9.376  50.544  1.00  0.00    -0.397 N 
HETATM   13  C3  UNL     1      27.319   9.657  50.247  1.00  0.00     0.139 C 
HETATM   14  H8  UNL     1      25.275   9.941  51.175  1.00  0.00     0.158 HD
HETATM   15  C2  UNL     1      27.586   9.741  48.786  1.00  0.00     0.142 C 
HETATM   16  N1  UNL     1      28.183   8.517  48.221  1.00  0.00    -0.383 N 
HETATM   17  C1  UNL     1      29.288   8.627  47.334  1.00  0.00     0.150 C 
HETATM   18  C22 UNL     1      28.790   6.376  48.071  1.00  0.00     0.030 A 
HETATM   19  C21 UNL     1      28.658   5.031  48.202  1.00  0.00     0.003 A 
HETATM   20  C20 UNL     1      27.526   4.454  48.722  1.00  0.00     0.015 A 
ENDBRANCH   1   7
BRANCH   5  21
HETATM   21  N4  UNL     1      23.822   3.069  52.655  1.00  0.00    -0.188 N 
HETATM   22  H13 UNL     1      23.377   3.678  53.405  1.00  0.00     0.184 HD
BRANCH  21  23
HETATM   23  C12 UNL     1      24.344   1.856  53.165  1.00  0.00     0.052 A 
HETATM   24  C13 UNL     1      23.737   0.622  53.102  1.00  0.00     0.030 A 
HETATM   25  C14 UNL     1      24.234  -0.564  53.594  1.00  0.00     0.005 A 
HETATM   26  C15 UNL     1      25.463  -0.529  54.216  1.00  0.00     0.037 A 
HETATM   27  C16 UNL     1      26.138   0.668  54.322  1.00  0.00     0.077 A 
HETATM   28  C19 UNL     1      25.567   1.805  53.802  1.00  0.00     0.067 A 
BRANCH  27  29
HETATM   29  O1  UNL     1      27.360   0.699  54.942  1.00  0.00    -0.282 OA
BRANCH  29  30
HETATM   30  C17 UNL     1      28.598   0.641  54.265  1.00  0.00     0.385 C 
HETATM   31  F1  UNL     1      28.365   0.471  52.916  1.00  0.00    -0.172 F 
HETATM   32  F2  UNL     1      29.338  -0.410  54.733  1.00  0.00    -0.172 F 
BRANCH  30  33
HETATM   33  C18 UNL     1      29.385   1.921  54.416  1.00  0.00     0.334 C 
HETATM   34  F3  UNL     1      28.850   2.897  53.617  1.00  0.00    -0.246 F 
ENDBRANCH  30  33
ENDBRANCH  29  30
ENDBRANCH  27  29
ENDBRANCH  21  23
ENDBRANCH   5  21
TORSDOF 6
ENDMDL
MODEL 2
REMARK VINA RESULT:      -9.2      1.994      2.878
REMARK  6 active torsions:
REMARK  status: ('A' for Active; 'I' for Inactive)
REMARK    1  A    between atoms: C7_9  and  C8_10 
REMARK    2  A    between atoms: C11_14  and  N4_15 
REMARK    3  A    between atoms: N4_15  and  C12_16 
REMARK    4  A    between atoms: C16_20  and  O1_21 
REMARK    5  A    between atoms: O1_21  and  C17_22 
REMARK    6  A    between atoms: C17_22  and  C18_25 
ROOT
HETATM    1  C8  UNL     1      23.377   2.608  49.879  1.00  0.00     0.088 A 
HETATM    2  C9  UNL     1      22.690   2.157  48.762  1.00  0.00     0.053 A 
HETATM    3  C10 UNL     1      21.641   1.295  48.759  1.00  0.00     0.139 A 
HETATM    4  N3  UNL     1      21.263   0.858  49.988  1.00  0.00    -0.075 NA
HETATM    5  C11 UNL     1      21.864   1.239  51.104  1.00  0.00     0.727 A 
HETATM    6  N5  UNL     1      22.865   2.076  50.969  1.00  0.00    -0.062 NA
ENDROOT
BRANCH   1   7
HETATM    7  C7  UNL     1      24.446   3.544  49.615  1.00  0.00     0.006 A 
HETATM    8  C6  UNL     1      24.334   4.911  49.498  1.00  0.00     0.004 A 
HETATM    9  C5  UNL     1      22.878   5.157  49.615  1.00  0.00     0.031 C 
HETATM   10  C23 UNL     1      25.356   5.815  49.263  1.00  0.00     0.041 A 
HETATM   11  C4  UNL     1      22.181   6.173  50.158  1.00  0.00     0.084 C 
HETATM   12  N2  UNL     1      22.579   7.391  50.823  1.00  0.00    -0.397 N 
HETATM   13  C3  UNL     1      23.907   8.023  50.873  1.00  0.00     0.139 C 
HETATM   14  H8  UNL     1      21.699   7.751  51.283  1.00  0.00     0.158 HD
HETATM   15  C2  UNL     1      24.478   8.251  49.519  1.00  0.00     0.142 C 
HETATM   16  N1  UNL     1      25.476   7.242  49.118  1.00  0.00    -0.383 N 
HETATM   17  C1  UNL     1      26.694   7.666  48.521  1.00  0.00     0.150 C 
HETATM   18  C22 UNL     1      26.614   5.324  49.126  1.00  0.00     0.030 A 
HETATM   19  C21 UNL     1      26.795   3.982  49.227  1.00  0.00     0.003 A 
HETATM   20  C20 UNL     1      25.753   3.119  49.463  1.00  0.00     0.015 A 
ENDBRANCH   1   7
BRANCH   5  21
HETATM   21  N4  UNL     1      21.545   0.842  52.426  1.00  0.00    -0.188 N 
HETATM   22  H13 UNL     1      20.593   1.079  52.838  1.00  0.00     0.184 HD
BRANCH  21  23
HETATM   23  C12 UNL     1      22.376   0.132  53.324  1.00  0.00     0.052 A 
HETATM   24  C13 UNL     1      21.964  -0.538  54.454  1.00  0.00     0.030 A 
HETATM   25  C14 UNL     1      22.762  -1.233  55.335  1.00  0.00     0.005 A 
HETATM   26  C15 UNL     1      24.115  -1.270  55.074  1.00  0.00     0.037 A 
HETATM   27  C16 UNL     1      24.610  -0.624  53.962  1.00  0.00     0.077 A 
HETATM   28  C19 UNL     1      23.741   0.046  53.135  1.00  0.00     0.067 A 
BRANCH  27  29
HETATM   29  O1  UNL     1      25.956  -0.663  53.706  1.00  0.00    -0.282 OA
BRANCH  29  30
HETATM   30  C17 UNL     1      26.853   0.388  53.999  1.00  0.00     0.385 C 
HETATM   31  F1  UNL     1      27.928  -0.119  54.697  1.00  0.00    -0.172 F 
HETATM   32  F2  UNL     1      26.227   1.338  54.760  1.00  0.00    -0.172 F 
BRANCH  30  33
HETATM   33  C18 UNL     1      27.405   1.027  52.747  1.00  0.00     0.334 C 
HETATM   34  F3  UNL     1      26.799   0.490  51.641  1.00  0.00    -0.246 F 
ENDBRANCH  30  33
ENDBRANCH  29  30
ENDBRANCH  27  29
ENDBRANCH  21  23
ENDBRANCH   5  21
TORSDOF 6
ENDMDL
MODEL 3
REMARK VINA RESULT:      -9.1      3.734      8.097
REMARK  6 active torsions:
REMARK  status: ('A' for Active; 'I' for Inactive)
REMARK    1  A    between atoms: C7_9  and  C8_10 
REMARK    2  A    between atoms: C11_14  and  N4_15 
REMARK    3  A    between atoms: N4_15  and  C12_16 
REMARK    4  A    between atoms: C16_20  and  O1_21 
REMARK    5  A    between atoms: O1_21  and  C17_22 
REMARK    6  A    between atoms: C17_22  and  C18_25 
ROOT
HETATM    1  C8  UNL     1      24.696   2.872  52.040  1.00  0.00     0.088 A 
HETATM    2  C9  UNL     1      23.976   3.569  52.998  1.00  0.00     0.053 A 
HETATM    3  C10 UNL     1      23.514   4.841  52.888  1.00  0.00     0.139 A 
HETATM    4  N3  UNL     1      23.810   5.451  51.711  1.00  0.00    -0.075 NA
HETATM    5  C11 UNL     1      24.492   4.858  50.745  1.00  0.00     0.727 A 
HETATM    6  N5  UNL     1      24.881   3.627  50.977  1.00  0.00    -0.062 NA
ENDROOT
BRANCH   1   7
HETATM    7  C7  UNL     1      25.053   1.518  52.394  1.00  0.00     0.006 A 
HETATM    8  C6  UNL     1      26.323   1.026  52.595  1.00  0.00     0.004 A 
HETATM    9  C5  UNL     1      27.201   2.175  52.277  1.00  0.00     0.031 C 
HETATM   10  C23 UNL     1      26.671  -0.266  52.951  1.00  0.00     0.041 A 
HETATM   11  C4  UNL     1      28.379   2.574  52.793  1.00  0.00     0.084 C 
HETATM   12  N2  UNL     1      29.222   2.043  53.837  1.00  0.00    -0.397 N 
HETATM   13  C3  UNL     1      29.167   0.723  54.486  1.00  0.00     0.139 C 
HETATM   14  H8  UNL     1      29.910   2.816  54.051  1.00  0.00     0.158 HD
HETATM   15  C2  UNL     1      29.210  -0.393  53.504  1.00  0.00     0.142 C 
HETATM   16  N1  UNL     1      27.889  -0.984  53.220  1.00  0.00    -0.383 N 
HETATM   17  C1  UNL     1      27.750  -2.398  53.192  1.00  0.00     0.150 C 
HETATM   18  C22 UNL     1      25.668  -1.165  53.123  1.00  0.00     0.030 A 
HETATM   19  C21 UNL     1      24.391  -0.746  52.937  1.00  0.00     0.003 A 
HETATM   20  C20 UNL     1      24.088   0.546  52.586  1.00  0.00     0.015 A 
ENDBRANCH   1   7
BRANCH   5  21
HETATM   21  N4  UNL     1      24.849   5.407  49.488  1.00  0.00    -0.188 N 
HETATM   22  H13 UNL     1      24.099   5.594  48.757  1.00  0.00     0.184 HD
BRANCH  21  23
HETATM   23  C12 UNL     1      26.147   5.759  49.051  1.00  0.00     0.052 A 
HETATM   24  C13 UNL     1      27.187   4.888  48.811  1.00  0.00     0.030 A 
HETATM   25  C14 UNL     1      28.454   5.218  48.386  1.00  0.00     0.005 A 
HETATM   26  C15 UNL     1      28.727   6.553  48.176  1.00  0.00     0.037 A 
HETATM   27  C16 UNL     1      27.741   7.491  48.394  1.00  0.00     0.077 A 
HETATM   28  C19 UNL     1      26.502   7.072  48.818  1.00  0.00     0.067 A 
BRANCH  27  29
HETATM   29  O1  UNL     1      28.016   8.817  48.184  1.00  0.00    -0.282 OA
BRANCH  29  30
HETATM   30  C17 UNL     1      28.342   9.733  49.208  1.00  0.00     0.385 C 
HETATM   31  F1  UNL     1      28.005   9.183  50.428  1.00  0.00    -0.172 F 
HETATM   32  F2  UNL     1      27.648  10.899  49.031  1.00  0.00    -0.172 F 
BRANCH  30  33
HETATM   33  C18 UNL     1      29.822  10.028  49.254  1.00  0.00     0.334 C 
HETATM   34  F3  UNL     1      30.514   8.898  49.607  1.00  0.00    -0.246 F 
ENDBRANCH  30  33
ENDBRANCH  29  30
ENDBRANCH  27  29
ENDBRANCH  21  23
ENDBRANCH   5  21
TORSDOF 6
ENDMDL
MODEL 4
REMARK VINA RESULT:      -9.1      4.398      7.002
REMARK  6 active torsions:
REMARK  status: ('A' for Active; 'I' for Inactive)
REMARK    1  A    between atoms: C7_9  and  C8_10 
REMARK    2  A    between atoms: C11_14  and  N4_15 
REMARK    3  A    between atoms: N4_15  and  C12_16 
REMARK    4  A    between atoms: C16_20  and  O1_21 
REMARK    5  A    between atoms: O1_21  and  C17_22 
REMARK    6  A    between atoms: C17_22  and  C18_25 
ROOT
HETATM    1  C8  UNL     1      23.304   0.181  53.416  1.00  0.00     0.088 A 
HETATM    2  C9  UNL     1      23.787  -0.619  54.440  1.00  0.00     0.053 A 
HETATM    3  C10 UNL     1      23.043  -1.378  55.285  1.00  0.00     0.139 A 
HETATM    4  N3  UNL     1      21.703  -1.316  55.072  1.00  0.00    -0.075 NA
HETATM    5  C11 UNL     1      21.160  -0.578  54.117  1.00  0.00     0.727 A 
HETATM    6  N5  UNL     1      21.990   0.109  53.368  1.00  0.00    -0.062 NA
ENDROOT
BRANCH   1   7
HETATM    7  C7  UNL     1      24.308   0.874  52.642  1.00  0.00     0.006 A 
HETATM    8  C6  UNL     1      24.162   2.079  51.994  1.00  0.00     0.004 A 
HETATM    9  C5  UNL     1      22.738   2.425  52.208  1.00  0.00     0.031 C 
HETATM   10  C23 UNL     1      25.124   2.758  51.265  1.00  0.00     0.041 A 
HETATM   11  C4  UNL     1      22.118   3.608  52.383  1.00  0.00     0.084 C 
HETATM   12  N2  UNL     1      22.597   4.969  52.427  1.00  0.00    -0.397 N 
HETATM   13  C3  UNL     1      23.909   5.499  52.022  1.00  0.00     0.139 C 
HETATM   14  H8  UNL     1      21.793   5.528  52.821  1.00  0.00     0.158 HD
HETATM   15  C2  UNL     1      24.264   5.128  50.627  1.00  0.00     0.142 C 
HETATM   16  N1  UNL     1      25.203   3.995  50.534  1.00  0.00    -0.383 N 
HETATM   17  C1  UNL     1      26.311   4.078  49.647  1.00  0.00     0.150 C 
HETATM   18  C22 UNL     1      26.354   2.190  51.161  1.00  0.00     0.030 A 
HETATM   19  C21 UNL     1      26.564   0.998  51.775  1.00  0.00     0.003 A 
HETATM   20  C20 UNL     1      25.582   0.359  52.490  1.00  0.00     0.015 A 
ENDBRANCH   1   7
BRANCH   5  21
HETATM   21  N4  UNL     1      19.781  -0.448  53.816  1.00  0.00    -0.188 N 
HETATM   22  H13 UNL     1      19.052  -0.643  54.565  1.00  0.00     0.184 HD
BRANCH  21  23
HETATM   23  C12 UNL     1      19.214  -0.071  52.576  1.00  0.00     0.052 A 
HETATM   24  C13 UNL     1      18.075  -0.599  52.010  1.00  0.00     0.030 A 
HETATM   25  C14 UNL     1      17.514  -0.240  50.805  1.00  0.00     0.005 A 
HETATM   26  C15 UNL     1      18.145   0.746  50.078  1.00  0.00     0.037 A 
HETATM   27  C16 UNL     1      19.292   1.327  50.574  1.00  0.00     0.077 A 
HETATM   28  C19 UNL     1      19.783   0.908  51.787  1.00  0.00     0.067 A 
BRANCH  27  29
HETATM   29  O1  UNL     1      19.917   2.308  49.847  1.00  0.00    -0.282 OA
BRANCH  29  30
HETATM   30  C17 UNL     1      20.733   2.065  48.720  1.00  0.00     0.385 C 
HETATM   31  F1  UNL     1      19.996   2.289  47.576  1.00  0.00    -0.172 F 
HETATM   32  F2  UNL     1      21.170   0.768  48.730  1.00  0.00    -0.172 F 
BRANCH  30  33
HETATM   33  C18 UNL     1      21.918   2.998  48.668  1.00  0.00     0.334 C 
HETATM   34  F3  UNL     1      23.084   2.277  48.699  1.00  0.00    -0.246 F 
ENDBRANCH  30  33
ENDBRANCH  29  30
ENDBRANCH  27  29
ENDBRANCH  21  23
ENDBRANCH   5  21
TORSDOF 6
ENDMDL
MODEL 5
REMARK VINA RESULT:      -9.0      2.139      3.531
REMARK  6 active torsions:
REMARK  status: ('A' for Active; 'I' for Inactive)
REMARK    1  A    between atoms: C7_9  and  C8_10 
REMARK    2  A    between atoms: C11_14  and  N4_15 
REMARK    3  A    between atoms: N4_15  and  C12_16 
REMARK    4  A    between atoms: C16_20  and  O1_21 
REMARK    5  A    between atoms: O1_21  and  C17_22 
REMARK    6  A    between atoms: C17_22  and  C18_25 
ROOT
HETATM    1  C8  UNL     1      22.483   3.613  48.913  1.00  0.00     0.088 A 
HETATM    2  C9  UNL     1      22.329   2.576  48.006  1.00  0.00     0.053 A 
HETATM    3  C10 UNL     1      21.856   1.334  48.280  1.00  0.00     0.139 A 
HETATM    4  N3  UNL     1      21.514   1.131  49.579  1.00  0.00    -0.075 NA
HETATM    5  C11 UNL     1      21.629   2.067  50.508  1.00  0.00     0.727 A 
HETATM    6  N5  UNL     1      22.100   3.225  50.111  1.00  0.00    -0.062 NA
ENDROOT
BRANCH   1   7
HETATM    7  C7  UNL     1      22.988   4.850  48.362  1.00  0.00     0.006 A 
HETATM    8  C6  UNL     1      24.190   5.453  48.658  1.00  0.00     0.004 A 
HETATM    9  C5  UNL     1      24.768   4.589  49.713  1.00  0.00     0.031 C 
HETATM   10  C23 UNL     1      24.688   6.628  48.122  1.00  0.00     0.041 A 
HETATM   11  C4  UNL     1      26.039   4.245  49.994  1.00  0.00     0.084 C 
HETATM   12  N2  UNL     1      27.304   4.581  49.384  1.00  0.00    -0.397 N 
HETATM   13  C3  UNL     1      27.605   5.638  48.405  1.00  0.00     0.139 C 
HETATM   14  H8  UNL     1      27.994   3.894  49.793  1.00  0.00     0.158 HD
HETATM   15  C2  UNL     1      27.156   6.980  48.865  1.00  0.00     0.142 C 
HETATM   16  N1  UNL     1      25.883   7.418  48.264  1.00  0.00    -0.383 N 
HETATM   17  C1  UNL     1      25.768   8.743  47.764  1.00  0.00     0.150 C 
HETATM   18  C22 UNL     1      23.925   7.278  47.205  1.00  0.00     0.030 A 
HETATM   19  C21 UNL     1      22.725   6.738  46.871  1.00  0.00     0.003 A 
HETATM   20  C20 UNL     1      22.268   5.568  47.425  1.00  0.00     0.015 A 
ENDBRANCH   1   7
BRANCH   5  21
HETATM   21  N4  UNL     1      21.301   1.954  51.881  1.00  0.00    -0.188 N 
HETATM   22  H13 UNL     1      20.604   2.629  52.319  1.00  0.00     0.184 HD
BRANCH  21  23
HETATM   23  C12 UNL     1      21.808   1.008  52.802  1.00  0.00     0.052 A 
HETATM   24  C13 UNL     1      21.094   0.383  53.800  1.00  0.00     0.030 A 
HETATM   25  C14 UNL     1      21.576  -0.540  54.702  1.00  0.00     0.005 A 
HETATM   26  C15 UNL     1      22.909  -0.881  54.610  1.00  0.00     0.037 A 
HETATM   27  C16 UNL     1      23.695  -0.300  53.639  1.00  0.00     0.077 A 
HETATM   28  C19 UNL     1      23.130   0.611  52.779  1.00  0.00     0.067 A 
BRANCH  27  29
HETATM   29  O1  UNL     1      25.019  -0.642  53.552  1.00  0.00    -0.282 OA
BRANCH  29  30
HETATM   30  C17 UNL     1      26.059   0.022  54.239  1.00  0.00     0.385 C 
HETATM   31  F1  UNL     1      26.084  -0.415  55.547  1.00  0.00    -0.172 F 
HETATM   32  F2  UNL     1      25.846   1.373  54.217  1.00  0.00    -0.172 F 
BRANCH  30  33
HETATM   33  C18 UNL     1      27.414  -0.286  53.649  1.00  0.00     0.334 C 
HETATM   34  F3  UNL     1      27.267  -0.892  52.428  1.00  0.00    -0.246 F 
ENDBRANCH  30  33
ENDBRANCH  29  30
ENDBRANCH  27  29
ENDBRANCH  21  23
ENDBRANCH   5  21
TORSDOF 6
ENDMDL
MODEL 6
REMARK VINA RESULT:      -9.0      3.629      8.481
REMARK  6 active torsions:
REMARK  status: ('A' for Active; 'I' for Inactive)
REMARK    1  A    between atoms: C7_9  and  C8_10 
REMARK    2  A    between atoms: C11_14  and  N4_15 
REMARK    3  A    between atoms: N4_15  and  C12_16 
REMARK    4  A    between atoms: C16_20  and  O1_21 
REMARK    5  A    between atoms: O1_21  and  C17_22 
REMARK    6  A    between atoms: C17_22  and  C18_25 
ROOT
HETATM    1  C8  UNL     1      25.075   1.207  52.501  1.00  0.00     0.088 A 
HETATM    2  C9  UNL     1      26.022   1.363  53.501  1.00  0.00     0.053 A 
HETATM    3  C10 UNL     1      27.227   1.977  53.377  1.00  0.00     0.139 A 
HETATM    4  N3  UNL     1      27.487   2.468  52.138  1.00  0.00    -0.075 NA
HETATM    5  C11 UNL     1      26.639   2.362  51.129  1.00  0.00     0.727 A 
HETATM    6  N5  UNL     1      25.508   1.746  51.381  1.00  0.00    -0.062 NA
ENDROOT
BRANCH   1   7
HETATM    7  C7  UNL     1      23.859   0.533  52.896  1.00  0.00     0.006 A 
HETATM    8  C6  UNL     1      22.585   0.808  52.454  1.00  0.00     0.004 A 
HETATM    9  C5  UNL     1      22.762   1.986  51.574  1.00  0.00     0.031 C 
HETATM   10  C23 UNL     1      21.417   0.156  52.814  1.00  0.00     0.041 A 
HETATM   11  C4  UNL     1      22.135   2.364  50.444  1.00  0.00     0.084 C 
HETATM   12  N2  UNL     1      21.067   1.776  49.671  1.00  0.00    -0.397 N 
HETATM   13  C3  UNL     1      20.146   0.690  50.046  1.00  0.00     0.139 C 
HETATM   14  H8  UNL     1      21.076   2.296  48.752  1.00  0.00     0.158 HD
HETATM   15  C2  UNL     1      19.441   0.962  51.327  1.00  0.00     0.142 C 
HETATM   16  N1  UNL     1      20.020   0.256  52.485  1.00  0.00    -0.383 N 
HETATM   17  C1  UNL     1      19.157  -0.407  53.399  1.00  0.00     0.150 C 
HETATM   18  C22 UNL     1      21.514  -0.867  53.703  1.00  0.00     0.030 A 
HETATM   19  C21 UNL     1      22.743  -1.187  54.182  1.00  0.00     0.003 A 
HETATM   20  C20 UNL     1      23.877  -0.516  53.796  1.00  0.00     0.015 A 
ENDBRANCH   1   7
BRANCH   5  21
HETATM   21  N4  UNL     1      26.817   2.840  49.807  1.00  0.00    -0.188 N 
HETATM   22  H13 UNL     1      27.134   2.175  49.039  1.00  0.00     0.184 HD
BRANCH  21  23
HETATM   23  C12 UNL     1      26.618   4.163  49.347  1.00  0.00     0.052 A 
HETATM   24  C13 UNL     1      27.558   4.958  48.731  1.00  0.00     0.030 A 
HETATM   25  C14 UNL     1      27.377   6.246  48.279  1.00  0.00     0.005 A 
HETATM   26  C15 UNL     1      26.133   6.812  48.455  1.00  0.00     0.037 A 
HETATM   27  C16 UNL     1      25.134   6.083  49.064  1.00  0.00     0.077 A 
HETATM   28  C19 UNL     1      25.403   4.803  49.485  1.00  0.00     0.067 A 
BRANCH  27  29
HETATM   29  O1  UNL     1      23.899   6.650  49.239  1.00  0.00    -0.282 OA
BRANCH  29  30
HETATM   30  C17 UNL     1      23.380   7.060  50.487  1.00  0.00     0.385 C 
HETATM   31  F1  UNL     1      22.614   8.192  50.305  1.00  0.00    -0.172 F 
HETATM   32  F2  UNL     1      24.404   7.340  51.350  1.00  0.00    -0.172 F 
BRANCH  30  33
HETATM   33  C18 UNL     1      22.477   6.013  51.095  1.00  0.00     0.334 C 
HETATM   34  F3  UNL     1      23.166   5.287  52.031  1.00  0.00    -0.246 F 
ENDBRANCH  30  33
ENDBRANCH  29  30
ENDBRANCH  27  29
ENDBRANCH  21  23
ENDBRANCH   5  21
TORSDOF 6
ENDMDL
MODEL 7
REMARK VINA RESULT:      -8.6      2.776      4.610
REMARK  6 active torsions:
REMARK  status: ('A' for Active; 'I' for Inactive)
REMARK    1  A    between atoms: C7_9  and  C8_10 
REMARK    2  A    between atoms: C11_14  and  N4_15 
REMARK    3  A    between atoms: N4_15  and  C12_16 
REMARK    4  A    between atoms: C16_20  and  O1_21 
REMARK    5  A    between atoms: O1_21  and  C17_22 
REMARK    6  A    between atoms: C17_22  and  C18_25 
ROOT
HETATM    1  C8  UNL     1      28.378   6.721  47.957  1.00  0.00     0.088 A 
HETATM    2  C9  UNL     1      27.570   7.672  48.561  1.00  0.00     0.053 A 
HETATM    3  C10 UNL     1      26.497   7.426  49.355  1.00  0.00     0.139 A 
HETATM    4  N3  UNL     1      26.224   6.109  49.548  1.00  0.00    -0.075 NA
HETATM    5  C11 UNL     1      26.944   5.139  49.009  1.00  0.00     0.727 A 
HETATM    6  N5  UNL     1      27.956   5.511  48.262  1.00  0.00    -0.062 NA
ENDROOT
BRANCH   1   7
HETATM    7  C7  UNL     1      29.475   7.243  47.176  1.00  0.00     0.006 A 
HETATM    8  C6  UNL     1      30.808   7.233  47.519  1.00  0.00     0.004 A 
HETATM    9  C5  UNL     1      30.818   6.657  48.883  1.00  0.00     0.031 C 
HETATM   10  C23 UNL     1      31.867   7.716  46.768  1.00  0.00     0.041 A 
HETATM   11  C4  UNL     1      31.703   5.862  49.514  1.00  0.00     0.084 C 
HETATM   12  N2  UNL     1      32.959   5.277  49.110  1.00  0.00    -0.397 N 
HETATM   13  C3  UNL     1      33.794   5.601  47.942  1.00  0.00     0.139 C 
HETATM   14  H8  UNL     1      33.168   4.546  49.843  1.00  0.00     0.158 HD
HETATM   15  C2  UNL     1      34.128   7.048  47.868  1.00  0.00     0.142 C 
HETATM   16  N1  UNL     1      33.296   7.801  46.910  1.00  0.00    -0.383 N 
HETATM   17  C1  UNL     1      33.917   8.717  46.019  1.00  0.00     0.150 C 
HETATM   18  C22 UNL     1      31.584   8.266  45.559  1.00  0.00     0.030 A 
HETATM   19  C21 UNL     1      30.287   8.310  45.161  1.00  0.00     0.003 A 
HETATM   20  C20 UNL     1      29.266   7.818  45.936  1.00  0.00     0.015 A 
ENDBRANCH   1   7
BRANCH   5  21
HETATM   21  N4  UNL     1      26.742   3.743  49.150  1.00  0.00    -0.188 N 
HETATM   22  H13 UNL     1      27.145   3.072  48.430  1.00  0.00     0.184 HD
BRANCH  21  23
HETATM   23  C12 UNL     1      26.030   3.087  50.182  1.00  0.00     0.052 A 
HETATM   24  C13 UNL     1      24.662   2.965  50.274  1.00  0.00     0.030 A 
HETATM   25  C14 UNL     1      23.959   2.330  51.273  1.00  0.00     0.005 A 
HETATM   26  C15 UNL     1      24.685   1.752  52.292  1.00  0.00     0.037 A 
HETATM   27  C16 UNL     1      26.060   1.829  52.276  1.00  0.00     0.077 A 
HETATM   28  C19 UNL     1      26.681   2.484  51.239  1.00  0.00     0.067 A 
BRANCH  27  29
HETATM   29  O1  UNL     1      26.778   1.254  53.292  1.00  0.00    -0.282 OA
BRANCH  29  30
HETATM   30  C17 UNL     1      27.093  -0.120  53.365  1.00  0.00     0.385 C 
HETATM   31  F1  UNL     1      27.028  -0.665  52.099  1.00  0.00    -0.172 F 
HETATM   32  F2  UNL     1      26.201  -0.762  54.180  1.00  0.00    -0.172 F 
BRANCH  30  33
HETATM   33  C18 UNL     1      28.497  -0.353  53.870  1.00  0.00     0.334 C 
HETATM   34  F3  UNL     1      28.535  -0.212  55.233  1.00  0.00    -0.246 F 
ENDBRANCH  30  33
ENDBRANCH  29  30
ENDBRANCH  27  29
ENDBRANCH  21  23
ENDBRANCH   5  21
TORSDOF 6
ENDMDL
MODEL 8
REMARK VINA RESULT:      -8.6      2.754      4.947
REMARK  6 active torsions:
REMARK  status: ('A' for Active; 'I' for Inactive)
REMARK    1  A    between atoms: C7_9  and  C8_10 
REMARK    2  A    between atoms: C11_14  and  N4_15 
REMARK    3  A    between atoms: N4_15  and  C12_16 
REMARK    4  A    between atoms: C16_20  and  O1_21 
REMARK    5  A    between atoms: O1_21  and  C17_22 
REMARK    6  A    between atoms: C17_22  and  C18_25 
ROOT
HETATM    1  C8  UNL     1      21.937   1.410  52.597  1.00  0.00     0.088 A 
HETATM    2  C9  UNL     1      20.656   1.056  52.990  1.00  0.00     0.053 A 
HETATM    3  C10 UNL     1      20.331   0.117  53.915  1.00  0.00     0.139 A 
HETATM    4  N3  UNL     1      21.393  -0.510  54.484  1.00  0.00    -0.075 NA
HETATM    5  C11 UNL     1      22.647  -0.233  54.166  1.00  0.00     0.727 A 
HETATM    6  N5  UNL     1      22.825   0.696  53.257  1.00  0.00    -0.062 NA
ENDROOT
BRANCH   1   7
HETATM    7  C7  UNL     1      22.016   2.459  51.607  1.00  0.00     0.006 A 
HETATM    8  C6  UNL     1      23.144   3.151  51.228  1.00  0.00     0.004 A 
HETATM    9  C5  UNL     1      24.198   2.628  52.127  1.00  0.00     0.031 C 
HETATM   10  C23 UNL     1      23.231   4.145  50.267  1.00  0.00     0.041 A 
HETATM   11  C4  UNL     1      25.513   2.408  51.936  1.00  0.00     0.084 C 
HETATM   12  N2  UNL     1      26.383   2.594  50.800  1.00  0.00    -0.397 N 
HETATM   13  C3  UNL     1      26.134   3.347  49.560  1.00  0.00     0.139 C 
HETATM   14  H8  UNL     1      27.265   2.066  51.043  1.00  0.00     0.158 HD
HETATM   15  C2  UNL     1      25.721   4.751  49.823  1.00  0.00     0.142 C 
HETATM   16  N1  UNL     1      24.268   4.973  49.711  1.00  0.00    -0.383 N 
HETATM   17  C1  UNL     1      23.789   6.105  48.998  1.00  0.00     0.150 C 
HETATM   18  C22 UNL     1      22.091   4.495  49.617  1.00  0.00     0.030 A 
HETATM   19  C21 UNL     1      20.941   3.854  49.946  1.00  0.00     0.003 A 
HETATM   20  C20 UNL     1      20.899   2.871  50.904  1.00  0.00     0.015 A 
ENDBRANCH   1   7
BRANCH   5  21
HETATM   21  N4  UNL     1      23.817  -0.828  54.700  1.00  0.00    -0.188 N 
HETATM   22  H13 UNL     1      23.762  -1.397  55.597  1.00  0.00     0.184 HD
BRANCH  21  23
HETATM   23  C12 UNL     1      25.125  -0.760  54.166  1.00  0.00     0.052 A 
HETATM   24  C13 UNL     1      25.548  -1.320  52.982  1.00  0.00     0.030 A 
HETATM   25  C14 UNL     1      26.818  -1.261  52.452  1.00  0.00     0.005 A 
HETATM   26  C15 UNL     1      27.775  -0.575  53.169  1.00  0.00     0.037 A 
HETATM   27  C16 UNL     1      27.433   0.016  54.366  1.00  0.00     0.077 A 
HETATM   28  C19 UNL     1      26.141  -0.093  54.821  1.00  0.00     0.067 A 
BRANCH  27  29
HETATM   29  O1  UNL     1      28.388   0.696  55.077  1.00  0.00    -0.282 OA
BRANCH  29  30
HETATM   30  C17 UNL     1      29.369   1.529  54.496  1.00  0.00     0.385 C 
HETATM   31  F1  UNL     1      30.262   0.749  53.791  1.00  0.00    -0.172 F 
HETATM   32  F2  UNL     1      30.039   2.213  55.473  1.00  0.00    -0.172 F 
BRANCH  30  33
HETATM   33  C18 UNL     1      28.771   2.507  53.513  1.00  0.00     0.334 C 
HETATM   34  F3  UNL     1      27.651   3.086  54.050  1.00  0.00    -0.246 F 
ENDBRANCH  30  33
ENDBRANCH  29  30
ENDBRANCH  27  29
ENDBRANCH  21  23
ENDBRANCH   5  21
TORSDOF 6
ENDMDL
MODEL 9
REMARK VINA RESULT:      -8.5      1.761      2.809
REMARK  6 active torsions:
REMARK  status: ('A' for Active; 'I' for Inactive)
REMARK    1  A    between atoms: C7_9  and  C8_10 
REMARK    2  A    between atoms: C11_14  and  N4_15 
REMARK    3  A    between atoms: N4_15  and  C12_16 
REMARK    4  A    between atoms: C16_20  and  O1_21 
REMARK    5  A    between atoms: O1_21  and  C17_22 
REMARK    6  A    between atoms: C17_22  and  C18_25 
ROOT
HETATM    1  C8  UNL     1      25.479   6.183  48.996  1.00  0.00     0.088 A 
HETATM    2  C9  UNL     1      26.632   5.550  48.558  1.00  0.00     0.053 A 
HETATM    3  C10 UNL     1      27.164   4.409  49.067  1.00  0.00     0.139 A 
HETATM    4  N3  UNL     1      26.468   3.872  50.103  1.00  0.00    -0.075 NA
HETATM    5  C11 UNL     1      25.359   4.412  50.582  1.00  0.00     0.727 A 
HETATM    6  N5  UNL     1      24.951   5.515  50.000  1.00  0.00    -0.062 NA
ENDROOT
BRANCH   1   7
HETATM    7  C7  UNL     1      25.112   7.377  48.269  1.00  0.00     0.006 A 
HETATM    8  C6  UNL     1      25.557   8.657  48.510  1.00  0.00     0.004 A 
HETATM    9  C5  UNL     1      26.404   8.516  49.716  1.00  0.00     0.031 C 
HETATM   10  C23 UNL     1      25.223   9.802  47.807  1.00  0.00     0.041 A 
HETATM   11  C4  UNL     1      27.529   9.149  50.101  1.00  0.00     0.084 C 
HETATM   12  N2  UNL     1      28.325  10.190  49.496  1.00  0.00    -0.397 N 
HETATM   13  C3  UNL     1      27.986  11.073  48.368  1.00  0.00     0.139 C 
HETATM   14  H8  UNL     1      29.230  10.192  50.041  1.00  0.00     0.158 HD
HETATM   15  C2  UNL     1      26.704  11.796  48.581  1.00  0.00     0.142 C 
HETATM   16  N1  UNL     1      25.561  11.200  47.865  1.00  0.00    -0.383 N 
HETATM   17  C1  UNL     1      24.671  12.045  47.148  1.00  0.00     0.150 C 
HETATM   18  C22 UNL     1      24.361   9.675  46.765  1.00  0.00     0.030 A 
HETATM   19  C21 UNL     1      23.881   8.439  46.476  1.00  0.00     0.003 A 
HETATM   20  C20 UNL     1      24.239   7.327  47.198  1.00  0.00     0.015 A 
ENDBRANCH   1   7
BRANCH   5  21
HETATM   21  N4  UNL     1      24.566   3.931  51.652  1.00  0.00    -0.188 N 
HETATM   22  H13 UNL     1      23.770   4.524  52.033  1.00  0.00     0.184 HD
BRANCH  21  23
HETATM   23  C12 UNL     1      24.702   2.691  52.321  1.00  0.00     0.052 A 
HETATM   24  C13 UNL     1      23.858   1.610  52.205  1.00  0.00     0.030 A 
HETATM   25  C14 UNL     1      23.979   0.399  52.850  1.00  0.00     0.005 A 
HETATM   26  C15 UNL     1      25.050   0.238  53.703  1.00  0.00     0.037 A 
HETATM   27  C16 UNL     1      25.943   1.273  53.876  1.00  0.00     0.077 A 
HETATM   28  C19 UNL     1      25.745   2.449  53.191  1.00  0.00     0.067 A 
BRANCH  27  29
HETATM   29  O1  UNL     1      27.006   1.110  54.726  1.00  0.00    -0.282 OA
BRANCH  29  30
HETATM   30  C17 UNL     1      28.297   0.708  54.317  1.00  0.00     0.385 C 
HETATM   31  F1  UNL     1      28.256   0.350  52.986  1.00  0.00    -0.172 F 
HETATM   32  F2  UNL     1      28.710  -0.364  55.061  1.00  0.00    -0.172 F 
BRANCH  30  33
HETATM   33  C18 UNL     1      29.303   1.826  54.440  1.00  0.00     0.334 C 
HETATM   34  F3  UNL     1      28.935   2.877  53.641  1.00  0.00    -0.246 F 
ENDBRANCH  30  33
ENDBRANCH  29  30
ENDBRANCH  27  29
ENDBRANCH  21  23
ENDBRANCH   5  21
TORSDOF 6
ENDMDL
