MODEL 1
REMARK VINA RESULT:      -7.2      0.000      0.000
REMARK  7 active torsions:
REMARK  status: ('A' for Active; 'I' for Inactive)
REMARK    1  A    between atoms: O1_2  and  C2_3 
REMARK    2  A    between atoms: C6_9  and  N3_10 
REMARK    3  A    between atoms: N3_10  and  C7_11 
REMARK    4  A    between atoms: C9_13  and  O2_14 
REMARK    5  A    between atoms: C11_16  and  O3_17 
REMARK    6  A    between atoms: C13_19  and  O4_20 
REMARK    7  A    between atoms: C18_25  and  O5_26 
ROOT
HETATM    1  C2  UNL     1      27.605   0.259  53.838  1.00  0.00     0.103 A 
HETATM    2  C3  UNL     1      27.830   1.062  52.740  1.00  0.00     0.072 A 
HETATM    3  C4  UNL     1      26.808   1.838  52.238  1.00  0.00     0.075 A 
HETATM    4  N1  UNL     1      27.119   2.588  51.168  1.00  0.00    -0.241 NA
HETATM    5  C5  UNL     1      26.182   3.374  50.616  1.00  0.00     0.236 A 
HETATM    6  N2  UNL     1      24.958   3.389  51.149  1.00  0.00    -0.224 NA
HETATM    7  C6  UNL     1      24.562   2.680  52.205  1.00  0.00     0.142 A 
HETATM    8  C16 UNL     1      25.533   1.880  52.759  1.00  0.00     0.042 A 
HETATM    9  C17 UNL     1      25.363   1.065  53.847  1.00  0.00     0.057 A 
HETATM   10  C18 UNL     1      26.344   0.269  54.393  1.00  0.00     0.100 A 
ENDROOT
BRANCH   7  11
HETATM   11  N3  UNL     1      23.273   2.690  52.774  1.00  0.00    -0.340 N 
HETATM   12  H6  UNL     1      23.030   3.336  53.549  1.00  0.00     0.167 HD
BRANCH  11  13
HETATM   13  C7  UNL     1      22.146   1.921  52.467  1.00  0.00     0.039 A 
HETATM   14  C8  UNL     1      21.683   0.824  53.173  1.00  0.00     0.069 A 
HETATM   15  C9  UNL     1      20.577   0.095  52.845  1.00  0.00     0.106 A 
HETATM   16  C11 UNL     1      19.819   0.422  51.742  1.00  0.00     0.135 A 
HETATM   17  C13 UNL     1      20.235   1.509  51.000  1.00  0.00     0.106 A 
HETATM   18  C15 UNL     1      21.356   2.208  51.373  1.00  0.00     0.069 A 
BRANCH  15  19
HETATM   19  O2  UNL     1      20.204  -0.986  53.624  1.00  0.00    -0.353 OA
HETATM   20  C10 UNL     1      21.194  -1.621  54.407  1.00  0.00     0.210 C 
ENDBRANCH  15  19
BRANCH  16  21
HETATM   21  O3  UNL     1      18.719  -0.342  51.458  1.00  0.00    -0.351 OA
HETATM   22  C12 UNL     1      17.419  -0.074  51.945  1.00  0.00     0.210 C 
ENDBRANCH  16  21
BRANCH  17  23
HETATM   23  O4  UNL     1      19.440   1.797  49.901  1.00  0.00    -0.353 OA
HETATM   24  C14 UNL     1      18.600   2.934  49.981  1.00  0.00     0.210 C 
ENDBRANCH  17  23
ENDBRANCH  11  13
ENDBRANCH   7  11
BRANCH  10  25
HETATM   25  O5  UNL     1      26.083  -0.538  55.511  1.00  0.00    -0.358 OA
HETATM   26  H19 UNL     1      26.895  -0.860  56.045  1.00  0.00     0.217 HD
ENDBRANCH  10  25
BRANCH   1  27
HETATM   27  O1  UNL     1      28.558  -0.554  54.416  1.00  0.00    -0.353 OA
HETATM   28  C1  UNL     1      29.759  -0.968  53.810  1.00  0.00     0.210 C 
ENDBRANCH   1  27
TORSDOF 7
ENDMDL
MODEL 2
REMARK VINA RESULT:      -7.2      0.540      2.480
REMARK  7 active torsions:
REMARK  status: ('A' for Active; 'I' for Inactive)
REMARK    1  A    between atoms: O1_2  and  C2_3 
REMARK    2  A    between atoms: C6_9  and  N3_10 
REMARK    3  A    between atoms: N3_10  and  C7_11 
REMARK    4  A    between atoms: C9_13  and  O2_14 
REMARK    5  A    between atoms: C11_16  and  O3_17 
REMARK    6  A    between atoms: C13_19  and  O4_20 
REMARK    7  A    between atoms: C18_25  and  O5_26 
ROOT
HETATM    1  C2  UNL     1      27.520   0.157  53.725  1.00  0.00     0.103 A 
HETATM    2  C3  UNL     1      27.781   1.006  52.670  1.00  0.00     0.072 A 
HETATM    3  C4  UNL     1      26.782   1.818  52.181  1.00  0.00     0.075 A 
HETATM    4  N1  UNL     1      27.127   2.611  51.154  1.00  0.00    -0.241 NA
HETATM    5  C5  UNL     1      26.214   3.434  50.617  1.00  0.00     0.236 A 
HETATM    6  N2  UNL     1      24.977   3.442  51.122  1.00  0.00    -0.224 NA
HETATM    7  C6  UNL     1      24.547   2.692  52.135  1.00  0.00     0.142 A 
HETATM    8  C16 UNL     1      25.495   1.854  52.674  1.00  0.00     0.042 A 
HETATM    9  C17 UNL     1      25.289   0.993  53.719  1.00  0.00     0.057 A 
HETATM   10  C18 UNL     1      26.247   0.159  54.250  1.00  0.00     0.100 A 
ENDROOT
BRANCH   7  11
HETATM   11  N3  UNL     1      23.246   2.694  52.675  1.00  0.00    -0.340 N 
HETATM   12  H6  UNL     1      22.997   3.296  53.482  1.00  0.00     0.167 HD
BRANCH  11  13
HETATM   13  C7  UNL     1      22.112   1.969  52.295  1.00  0.00     0.039 A 
HETATM   14  C8  UNL     1      21.407   2.108  51.111  1.00  0.00     0.069 A 
HETATM   15  C9  UNL     1      20.303   1.383  50.770  1.00  0.00     0.106 A 
HETATM   16  C11 UNL     1      19.799   0.425  51.622  1.00  0.00     0.135 A 
HETATM   17  C13 UNL     1      20.462   0.244  52.818  1.00  0.00     0.106 A 
HETATM   18  C15 UNL     1      21.569   1.000  53.112  1.00  0.00     0.069 A 
BRANCH  15  19
HETATM   19  O2  UNL     1      19.675   1.606  49.556  1.00  0.00    -0.353 OA
HETATM   20  C10 UNL     1      20.445   2.116  48.489  1.00  0.00     0.210 C 
ENDBRANCH  15  19
BRANCH  16  21
HETATM   21  O3  UNL     1      18.688  -0.274  51.231  1.00  0.00    -0.351 OA
HETATM   22  C12 UNL     1      17.366   0.071  51.594  1.00  0.00     0.210 C 
ENDBRANCH  16  21
BRANCH  17  23
HETATM   23  O4  UNL     1      19.916  -0.731  53.640  1.00  0.00    -0.353 OA
HETATM   24  C14 UNL     1      20.810  -1.615  54.290  1.00  0.00     0.210 C 
ENDBRANCH  17  23
ENDBRANCH  11  13
ENDBRANCH   7  11
BRANCH  10  25
HETATM   25  O5  UNL     1      25.949  -0.695  55.325  1.00  0.00    -0.358 OA
HETATM   26  H19 UNL     1      25.330  -1.486  55.124  1.00  0.00     0.217 HD
ENDBRANCH  10  25
BRANCH   1  27
HETATM   27  O1  UNL     1      28.449  -0.695  54.287  1.00  0.00    -0.353 OA
HETATM   28  C1  UNL     1      29.748  -0.927  53.799  1.00  0.00     0.210 C 
ENDBRANCH   1  27
TORSDOF 7
ENDMDL
MODEL 3
REMARK VINA RESULT:      -7.1      3.538      6.655
REMARK  7 active torsions:
REMARK  status: ('A' for Active; 'I' for Inactive)
REMARK    1  A    between atoms: O1_2  and  C2_3 
REMARK    2  A    between atoms: C6_9  and  N3_10 
REMARK    3  A    between atoms: N3_10  and  C7_11 
REMARK    4  A    between atoms: C9_13  and  O2_14 
REMARK    5  A    between atoms: C11_16  and  O3_17 
REMARK    6  A    between atoms: C13_19  and  O4_20 
REMARK    7  A    between atoms: C18_25  and  O5_26 
ROOT
HETATM    1  C2  UNL     1      27.315   6.440  48.343  1.00  0.00     0.103 A 
HETATM    2  C3  UNL     1      26.060   6.686  48.860  1.00  0.00     0.072 A 
HETATM    3  C4  UNL     1      25.409   5.705  49.575  1.00  0.00     0.075 A 
HETATM    4  N1  UNL     1      24.193   6.034  50.040  1.00  0.00    -0.241 NA
HETATM    5  C5  UNL     1      23.489   5.137  50.748  1.00  0.00     0.236 A 
HETATM    6  N2  UNL     1      24.022   3.934  50.972  1.00  0.00    -0.224 NA
HETATM    7  C6  UNL     1      25.217   3.522  50.551  1.00  0.00     0.142 A 
HETATM    8  C16 UNL     1      25.925   4.452  49.827  1.00  0.00     0.042 A 
HETATM    9  C17 UNL     1      27.171   4.260  49.293  1.00  0.00     0.057 A 
HETATM   10  C18 UNL     1      27.870   5.200  48.571  1.00  0.00     0.100 A 
ENDROOT
BRANCH   7  11
HETATM   11  N3  UNL     1      25.787   2.254  50.784  1.00  0.00    -0.340 N 
HETATM   12  H6  UNL     1      26.450   1.828  50.108  1.00  0.00     0.167 HD
BRANCH  11  13
HETATM   13  C7  UNL     1      25.617   1.372  51.855  1.00  0.00     0.039 A 
HETATM   14  C8  UNL     1      24.411   0.981  52.412  1.00  0.00     0.069 A 
HETATM   15  C9  UNL     1      24.279   0.116  53.459  1.00  0.00     0.106 A 
HETATM   16  C11 UNL     1      25.388  -0.448  54.051  1.00  0.00     0.135 A 
HETATM   17  C13 UNL     1      26.618  -0.093  53.534  1.00  0.00     0.106 A 
HETATM   18  C15 UNL     1      26.695   0.782  52.481  1.00  0.00     0.069 A 
BRANCH  15  19
HETATM   19  O2  UNL     1      23.021  -0.206  53.938  1.00  0.00    -0.353 OA
HETATM   20  C10 UNL     1      22.253  -1.149  53.221  1.00  0.00     0.210 C 
ENDBRANCH  15  19
BRANCH  16  21
HETATM   21  O3  UNL     1      25.201  -1.310  55.098  1.00  0.00    -0.351 OA
HETATM   22  C12 UNL     1      25.115  -0.908  56.451  1.00  0.00     0.210 C 
ENDBRANCH  16  21
BRANCH  17  23
HETATM   23  O4  UNL     1      27.702  -0.686  54.164  1.00  0.00    -0.353 OA
HETATM   24  C14 UNL     1      28.618   0.165  54.830  1.00  0.00     0.210 C 
ENDBRANCH  17  23
ENDBRANCH  11  13
ENDBRANCH   7  11
BRANCH  10  25
HETATM   25  O5  UNL     1      29.146   4.918  48.058  1.00  0.00    -0.358 OA
HETATM   26  H19 UNL     1      29.550   5.613  47.423  1.00  0.00     0.217 HD
ENDBRANCH  10  25
BRANCH   1  27
HETATM   27  O1  UNL     1      28.049   7.353  47.614  1.00  0.00    -0.353 OA
HETATM   28  C1  UNL     1      28.718   8.473  48.140  1.00  0.00     0.210 C 
ENDBRANCH   1  27
TORSDOF 7
ENDMDL
MODEL 4
REMARK VINA RESULT:      -7.1      3.481      5.847
REMARK  7 active torsions:
REMARK  status: ('A' for Active; 'I' for Inactive)
REMARK    1  A    between atoms: O1_2  and  C2_3 
REMARK    2  A    between atoms: C6_9  and  N3_10 
REMARK    3  A    between atoms: N3_10  and  C7_11 
REMARK    4  A    between atoms: C9_13  and  O2_14 
REMARK    5  A    between atoms: C11_16  and  O3_17 
REMARK    6  A    between atoms: C13_19  and  O4_20 
REMARK    7  A    between atoms: C18_25  and  O5_26 
ROOT
HETATM    1  C2  UNL     1      23.865  -0.629  54.240  1.00  0.00     0.103 A 
HETATM    2  C3  UNL     1      23.491   0.032  53.089  1.00  0.00     0.072 A 
HETATM    3  C4  UNL     1      22.165   0.071  52.721  1.00  0.00     0.075 A 
HETATM    4  N1  UNL     1      21.894   0.738  51.588  1.00  0.00    -0.241 NA
HETATM    5  C5  UNL     1      20.627   0.825  51.156  1.00  0.00     0.236 A 
HETATM    6  N2  UNL     1      19.662   0.242  51.871  1.00  0.00    -0.224 NA
HETATM    7  C6  UNL     1      19.836  -0.438  53.004  1.00  0.00     0.142 A 
HETATM    8  C16 UNL     1      21.141  -0.518  53.432  1.00  0.00     0.042 A 
HETATM    9  C17 UNL     1      21.565  -1.161  54.564  1.00  0.00     0.057 A 
HETATM   10  C18 UNL     1      22.874  -1.234  54.983  1.00  0.00     0.100 A 
ENDROOT
BRANCH   7  11
HETATM   11  N3  UNL     1      18.825  -1.056  53.765  1.00  0.00    -0.340 N 
HETATM   12  H6  UNL     1      18.845  -1.042  54.803  1.00  0.00     0.167 HD
BRANCH  11  13
HETATM   13  C7  UNL     1      17.685  -1.752  53.353  1.00  0.00     0.039 A 
HETATM   14  C8  UNL     1      16.610  -1.228  52.654  1.00  0.00     0.069 A 
HETATM   15  C9  UNL     1      15.511  -1.937  52.265  1.00  0.00     0.106 A 
HETATM   16  C11 UNL     1      15.399  -3.279  52.557  1.00  0.00     0.135 A 
HETATM   17  C13 UNL     1      16.443  -3.854  53.254  1.00  0.00     0.106 A 
HETATM   18  C15 UNL     1      17.525  -3.095  53.621  1.00  0.00     0.069 A 
BRANCH  15  19
HETATM   19  O2  UNL     1      14.493  -1.310  51.569  1.00  0.00    -0.353 OA
HETATM   20  C10 UNL     1      14.828  -0.235  50.717  1.00  0.00     0.210 C 
ENDBRANCH  15  19
BRANCH  16  21
HETATM   21  O3  UNL     1      14.275  -3.944  52.145  1.00  0.00    -0.351 OA
HETATM   22  C12 UNL     1      14.150  -4.587  50.892  1.00  0.00     0.210 C 
ENDBRANCH  16  21
BRANCH  17  23
HETATM   23  O4  UNL     1      16.281  -5.205  53.524  1.00  0.00    -0.353 OA
HETATM   24  C14 UNL     1      15.680  -5.558  54.757  1.00  0.00     0.210 C 
ENDBRANCH  17  23
ENDBRANCH  11  13
ENDBRANCH   7  11
BRANCH  10  25
HETATM   25  O5  UNL     1      23.222  -1.916  56.160  1.00  0.00    -0.358 OA
HETATM   26  H19 UNL     1      22.543  -2.598  56.512  1.00  0.00     0.217 HD
ENDBRANCH  10  25
BRANCH   1  27
HETATM   27  O1  UNL     1      25.163  -0.727  54.695  1.00  0.00    -0.353 OA
HETATM   28  C1  UNL     1      26.223   0.129  54.340  1.00  0.00     0.210 C 
ENDBRANCH   1  27
TORSDOF 7
ENDMDL
MODEL 5
REMARK VINA RESULT:      -7.1      3.193      4.918
REMARK  7 active torsions:
REMARK  status: ('A' for Active; 'I' for Inactive)
REMARK    1  A    between atoms: O1_2  and  C2_3 
REMARK    2  A    between atoms: C6_9  and  N3_10 
REMARK    3  A    between atoms: N3_10  and  C7_11 
REMARK    4  A    between atoms: C9_13  and  O2_14 
REMARK    5  A    between atoms: C11_16  and  O3_17 
REMARK    6  A    between atoms: C13_19  and  O4_20 
REMARK    7  A    between atoms: C18_25  and  O5_26 
ROOT
HETATM    1  C2  UNL     1      28.295   0.638  53.594  1.00  0.00     0.103 A 
HETATM    2  C3  UNL     1      27.245  -0.235  53.790  1.00  0.00     0.072 A 
HETATM    3  C4  UNL     1      25.951   0.201  53.617  1.00  0.00     0.075 A 
HETATM    4  N1  UNL     1      24.994  -0.717  53.828  1.00  0.00    -0.241 NA
HETATM    5  C5  UNL     1      23.704  -0.376  53.682  1.00  0.00     0.236 A 
HETATM    6  N2  UNL     1      23.406   0.876  53.327  1.00  0.00    -0.224 NA
HETATM    7  C6  UNL     1      24.286   1.849  53.097  1.00  0.00     0.142 A 
HETATM    8  C16 UNL     1      25.603   1.484  53.252  1.00  0.00     0.042 A 
HETATM    9  C17 UNL     1      26.680   2.310  53.070  1.00  0.00     0.057 A 
HETATM   10  C18 UNL     1      27.994   1.931  53.228  1.00  0.00     0.100 A 
ENDROOT
BRANCH   7  11
HETATM   11  N3  UNL     1      23.980   3.173  52.722  1.00  0.00    -0.340 N 
HETATM   12  H6  UNL     1      23.890   3.927  53.429  1.00  0.00     0.167 HD
BRANCH  11  13
HETATM   13  C7  UNL     1      23.752   3.721  51.456  1.00  0.00     0.039 A 
HETATM   14  C8  UNL     1      23.840   5.059  51.113  1.00  0.00     0.069 A 
HETATM   15  C9  UNL     1      23.612   5.562  49.865  1.00  0.00     0.106 A 
HETATM   16  C11 UNL     1      23.265   4.730  48.823  1.00  0.00     0.135 A 
HETATM   17  C13 UNL     1      23.162   3.383  49.108  1.00  0.00     0.106 A 
HETATM   18  C15 UNL     1      23.402   2.930  50.381  1.00  0.00     0.069 A 
BRANCH  15  19
HETATM   19  O2  UNL     1      23.729   6.921  49.633  1.00  0.00    -0.353 OA
HETATM   20  C10 UNL     1      23.718   7.793  50.744  1.00  0.00     0.210 C 
ENDBRANCH  15  19
BRANCH  16  21
HETATM   21  O3  UNL     1      23.046   5.285  47.591  1.00  0.00    -0.351 OA
HETATM   22  C12 UNL     1      21.776   5.680  47.112  1.00  0.00     0.210 C 
ENDBRANCH  16  21
BRANCH  17  23
HETATM   23  O4  UNL     1      22.810   2.589  48.028  1.00  0.00    -0.353 OA
HETATM   24  C14 UNL     1      21.714   1.707  48.194  1.00  0.00     0.210 C 
ENDBRANCH  17  23
ENDBRANCH  11  13
ENDBRANCH   7  11
BRANCH  10  25
HETATM   25  O5  UNL     1      29.040   2.845  53.021  1.00  0.00    -0.358 OA
HETATM   26  H19 UNL     1      29.429   2.890  52.075  1.00  0.00     0.217 HD
ENDBRANCH  10  25
BRANCH   1  27
HETATM   27  O1  UNL     1      29.625   0.301  53.741  1.00  0.00    -0.353 OA
HETATM   28  C1  UNL     1      30.143  -1.007  53.747  1.00  0.00     0.210 C 
ENDBRANCH   1  27
TORSDOF 7
ENDMDL
MODEL 6
REMARK VINA RESULT:      -7.1      3.210      4.799
REMARK  7 active torsions:
REMARK  status: ('A' for Active; 'I' for Inactive)
REMARK    1  A    between atoms: O1_2  and  C2_3 
REMARK    2  A    between atoms: C6_9  and  N3_10 
REMARK    3  A    between atoms: N3_10  and  C7_11 
REMARK    4  A    between atoms: C9_13  and  O2_14 
REMARK    5  A    between atoms: C11_16  and  O3_17 
REMARK    6  A    between atoms: C13_19  and  O4_20 
REMARK    7  A    between atoms: C18_25  and  O5_26 
ROOT
HETATM    1  C2  UNL     1      28.266   0.641  53.568  1.00  0.00     0.103 A 
HETATM    2  C3  UNL     1      27.212  -0.228  53.762  1.00  0.00     0.072 A 
HETATM    3  C4  UNL     1      25.921   0.209  53.567  1.00  0.00     0.075 A 
HETATM    4  N1  UNL     1      24.960  -0.706  53.778  1.00  0.00    -0.241 NA
HETATM    5  C5  UNL     1      23.673  -0.365  53.612  1.00  0.00     0.236 A 
HETATM    6  N2  UNL     1      23.381   0.883  53.238  1.00  0.00    -0.224 NA
HETATM    7  C6  UNL     1      24.265   1.853  53.007  1.00  0.00     0.142 A 
HETATM    8  C16 UNL     1      25.579   1.487  53.183  1.00  0.00     0.042 A 
HETATM    9  C17 UNL     1      26.660   2.309  53.004  1.00  0.00     0.057 A 
HETATM   10  C18 UNL     1      27.972   1.930  53.183  1.00  0.00     0.100 A 
ENDROOT
BRANCH   7  11
HETATM   11  N3  UNL     1      23.966   3.172  52.613  1.00  0.00    -0.340 N 
HETATM   12  H6  UNL     1      23.901   3.941  53.306  1.00  0.00     0.167 HD
BRANCH  11  13
HETATM   13  C7  UNL     1      23.715   3.697  51.341  1.00  0.00     0.039 A 
HETATM   14  C8  UNL     1      23.326   2.983  50.220  1.00  0.00     0.069 A 
HETATM   15  C9  UNL     1      23.088   3.528  48.992  1.00  0.00     0.106 A 
HETATM   16  C11 UNL     1      23.226   4.883  48.784  1.00  0.00     0.135 A 
HETATM   17  C13 UNL     1      23.612   5.644  49.868  1.00  0.00     0.106 A 
HETATM   18  C15 UNL     1      23.840   5.046  51.082  1.00  0.00     0.069 A 
BRANCH  15  19
HETATM   19  O2  UNL     1      22.703   2.719  47.938  1.00  0.00    -0.353 OA
HETATM   20  C10 UNL     1      21.868   1.614  48.213  1.00  0.00     0.210 C 
ENDBRANCH  15  19
BRANCH  16  21
HETATM   21  O3  UNL     1      22.975   5.379  47.532  1.00  0.00    -0.351 OA
HETATM   22  C12 UNL     1      21.718   5.869  47.110  1.00  0.00     0.210 C 
ENDBRANCH  16  21
BRANCH  17  23
HETATM   23  O4  UNL     1      23.737   7.001  49.607  1.00  0.00    -0.353 OA
HETATM   24  C14 UNL     1      23.804   7.877  50.717  1.00  0.00     0.210 C 
ENDBRANCH  17  23
ENDBRANCH  11  13
ENDBRANCH   7  11
BRANCH  10  25
HETATM   25  O5  UNL     1      29.022   2.840  52.978  1.00  0.00    -0.358 OA
HETATM   26  H19 UNL     1      29.357   2.945  52.016  1.00  0.00     0.217 HD
ENDBRANCH  10  25
BRANCH   1  27
HETATM   27  O1  UNL     1      29.594   0.304  53.735  1.00  0.00    -0.353 OA
HETATM   28  C1  UNL     1      30.113  -1.004  53.736  1.00  0.00     0.210 C 
ENDBRANCH   1  27
TORSDOF 7
ENDMDL
MODEL 7
REMARK VINA RESULT:      -7.0      3.420      5.333
REMARK  7 active torsions:
REMARK  status: ('A' for Active; 'I' for Inactive)
REMARK    1  A    between atoms: O1_2  and  C2_3 
REMARK    2  A    between atoms: C6_9  and  N3_10 
REMARK    3  A    between atoms: N3_10  and  C7_11 
REMARK    4  A    between atoms: C9_13  and  O2_14 
REMARK    5  A    between atoms: C11_16  and  O3_17 
REMARK    6  A    between atoms: C13_19  and  O4_20 
REMARK    7  A    between atoms: C18_25  and  O5_26 
ROOT
HETATM    1  C2  UNL     1      27.355   0.086  54.072  1.00  0.00     0.103 A 
HETATM    2  C3  UNL     1      26.144  -0.516  53.803  1.00  0.00     0.072 A 
HETATM    3  C4  UNL     1      25.060   0.256  53.446  1.00  0.00     0.075 A 
HETATM    4  N1  UNL     1      23.923  -0.416  53.202  1.00  0.00    -0.241 NA
HETATM    5  C5  UNL     1      22.818   0.258  52.848  1.00  0.00     0.236 A 
HETATM    6  N2  UNL     1      22.880   1.588  52.748  1.00  0.00    -0.224 NA
HETATM    7  C6  UNL     1      23.960   2.335  52.971  1.00  0.00     0.142 A 
HETATM    8  C16 UNL     1      25.084   1.629  53.332  1.00  0.00     0.042 A 
HETATM    9  C17 UNL     1      26.308   2.177  53.610  1.00  0.00     0.057 A 
HETATM   10  C18 UNL     1      27.426   1.458  53.971  1.00  0.00     0.100 A 
ENDROOT
BRANCH   7  11
HETATM   11  N3  UNL     1      24.035   3.738  52.867  1.00  0.00    -0.340 N 
HETATM   12  H6  UNL     1      24.135   4.337  53.709  1.00  0.00     0.167 HD
BRANCH  11  13
HETATM   13  C7  UNL     1      23.996   4.562  51.738  1.00  0.00     0.039 A 
HETATM   14  C8  UNL     1      24.944   4.618  50.730  1.00  0.00     0.069 A 
HETATM   15  C9  UNL     1      24.876   5.435  49.639  1.00  0.00     0.106 A 
HETATM   16  C11 UNL     1      23.811   6.291  49.465  1.00  0.00     0.135 A 
HETATM   17  C13 UNL     1      22.835   6.277  50.441  1.00  0.00     0.106 A 
HETATM   18  C15 UNL     1      22.953   5.436  51.519  1.00  0.00     0.069 A 
BRANCH  15  19
HETATM   19  O2  UNL     1      25.883   5.408  48.690  1.00  0.00    -0.353 OA
HETATM   20  C10 UNL     1      27.039   4.645  48.961  1.00  0.00     0.210 C 
ENDBRANCH  15  19
BRANCH  16  21
HETATM   21  O3  UNL     1      23.791   7.089  48.353  1.00  0.00    -0.351 OA
HETATM   22  C12 UNL     1      23.143   6.748  47.144  1.00  0.00     0.210 C 
ENDBRANCH  16  21
BRANCH  17  23
HETATM   23  O4  UNL     1      21.785   7.157  50.221  1.00  0.00    -0.353 OA
HETATM   24  C14 UNL     1      20.528   6.602  49.877  1.00  0.00     0.210 C 
ENDBRANCH  17  23
ENDBRANCH  11  13
ENDBRANCH   7  11
BRANCH  10  25
HETATM   25  O5  UNL     1      28.645   2.102  54.239  1.00  0.00    -0.358 OA
HETATM   26  H19 UNL     1      29.234   2.322  53.431  1.00  0.00     0.217 HD
ENDBRANCH  10  25
BRANCH   1  27
HETATM   27  O1  UNL     1      28.499  -0.594  54.436  1.00  0.00    -0.353 OA
HETATM   28  C1  UNL     1      29.377  -1.252  53.555  1.00  0.00     0.210 C 
ENDBRANCH   1  27
TORSDOF 7
ENDMDL
MODEL 8
REMARK VINA RESULT:      -7.0      4.158      7.008
REMARK  7 active torsions:
REMARK  status: ('A' for Active; 'I' for Inactive)
REMARK    1  A    between atoms: O1_2  and  C2_3 
REMARK    2  A    between atoms: C6_9  and  N3_10 
REMARK    3  A    between atoms: N3_10  and  C7_11 
REMARK    4  A    between atoms: C9_13  and  O2_14 
REMARK    5  A    between atoms: C11_16  and  O3_17 
REMARK    6  A    between atoms: C13_19  and  O4_20 
REMARK    7  A    between atoms: C18_25  and  O5_26 
ROOT
HETATM    1  C2  UNL     1      29.044   6.992  48.017  1.00  0.00     0.103 A 
HETATM    2  C3  UNL     1      27.862   7.680  48.201  1.00  0.00     0.072 A 
HETATM    3  C4  UNL     1      26.724   7.000  48.575  1.00  0.00     0.075 A 
HETATM    4  N1  UNL     1      25.623   7.751  48.731  1.00  0.00    -0.241 NA
HETATM    5  C5  UNL     1      24.469   7.168  49.094  1.00  0.00     0.236 A 
HETATM    6  N2  UNL     1      24.449   5.848  49.291  1.00  0.00    -0.224 NA
HETATM    7  C6  UNL     1      25.490   5.026  49.159  1.00  0.00     0.142 A 
HETATM    8  C16 UNL     1      26.664   5.639  48.786  1.00  0.00     0.042 A 
HETATM    9  C17 UNL     1      27.861   5.004  48.590  1.00  0.00     0.057 A 
HETATM   10  C18 UNL     1      29.030   5.629  48.218  1.00  0.00     0.100 A 
ENDROOT
BRANCH   7  11
HETATM   11  N3  UNL     1      25.478   3.633  49.364  1.00  0.00    -0.340 N 
HETATM   12  H6  UNL     1      25.474   2.969  48.566  1.00  0.00     0.167 HD
BRANCH  11  13
HETATM   13  C7  UNL     1      25.471   2.897  50.553  1.00  0.00     0.039 A 
HETATM   14  C8  UNL     1      24.351   2.467  51.245  1.00  0.00     0.069 A 
HETATM   15  C9  UNL     1      24.379   1.748  52.405  1.00  0.00     0.106 A 
HETATM   16  C11 UNL     1      25.577   1.391  52.984  1.00  0.00     0.135 A 
HETATM   17  C13 UNL     1      26.727   1.794  52.335  1.00  0.00     0.106 A 
HETATM   18  C15 UNL     1      26.643   2.516  51.171  1.00  0.00     0.069 A 
BRANCH  15  19
HETATM   19  O2  UNL     1      23.196   1.369  53.014  1.00  0.00    -0.353 OA
HETATM   20  C10 UNL     1      22.044   1.229  52.209  1.00  0.00     0.210 C 
ENDBRANCH  15  19
BRANCH  16  21
HETATM   21  O3  UNL     1      25.549   0.670  54.148  1.00  0.00    -0.351 OA
HETATM   22  C12 UNL     1      25.515  -0.742  54.205  1.00  0.00     0.210 C 
ENDBRANCH  16  21
BRANCH  17  23
HETATM   23  O4  UNL     1      27.906   1.411  52.958  1.00  0.00    -0.353 OA
HETATM   24  C14 UNL     1      28.668   2.420  53.595  1.00  0.00     0.210 C 
ENDBRANCH  17  23
ENDBRANCH  11  13
ENDBRANCH   7  11
BRANCH  10  25
HETATM   25  O5  UNL     1      30.216   4.899  48.038  1.00  0.00    -0.358 OA
HETATM   26  H19 UNL     1      30.263   3.982  48.490  1.00  0.00     0.217 HD
ENDBRANCH  10  25
BRANCH   1  27
HETATM   27  O1  UNL     1      30.236   7.578  47.644  1.00  0.00    -0.353 OA
HETATM   28  C1  UNL     1      31.054   8.368  48.473  1.00  0.00     0.210 C 
ENDBRANCH   1  27
TORSDOF 7
ENDMDL
MODEL 9
REMARK VINA RESULT:      -6.9      3.704      6.594
REMARK  7 active torsions:
REMARK  status: ('A' for Active; 'I' for Inactive)
REMARK    1  A    between atoms: O1_2  and  C2_3 
REMARK    2  A    between atoms: C6_9  and  N3_10 
REMARK    3  A    between atoms: N3_10  and  C7_11 
REMARK    4  A    between atoms: C9_13  and  O2_14 
REMARK    5  A    between atoms: C11_16  and  O3_17 
REMARK    6  A    between atoms: C13_19  and  O4_20 
REMARK    7  A    between atoms: C18_25  and  O5_26 
ROOT
HETATM    1  C2  UNL     1      27.853   6.824  48.596  1.00  0.00     0.103 A 
HETATM    2  C3  UNL     1      26.706   7.307  49.191  1.00  0.00     0.072 A 
HETATM    3  C4  UNL     1      25.781   6.428  49.710  1.00  0.00     0.075 A 
HETATM    4  N1  UNL     1      24.697   6.988  50.271  1.00  0.00    -0.241 NA
HETATM    5  C5  UNL     1      23.745   6.205  50.800  1.00  0.00     0.236 A 
HETATM    6  N2  UNL     1      23.904   4.880  50.755  1.00  0.00    -0.224 NA
HETATM    7  C6  UNL     1      24.942   4.239  50.221  1.00  0.00     0.142 A 
HETATM    8  C16 UNL     1      25.908   5.056  49.682  1.00  0.00     0.042 A 
HETATM    9  C17 UNL     1      27.062   4.628  49.080  1.00  0.00     0.057 A 
HETATM   10  C18 UNL     1      28.022   5.457  48.545  1.00  0.00     0.100 A 
ENDROOT
BRANCH   7  11
HETATM   11  N3  UNL     1      25.117   2.842  50.169  1.00  0.00    -0.340 N 
HETATM   12  H6  UNL     1      25.138   2.333  49.264  1.00  0.00     0.167 HD
BRANCH  11  13
HETATM   13  C7  UNL     1      25.287   1.915  51.202  1.00  0.00     0.039 A 
HETATM   14  C8  UNL     1      26.486   1.367  51.625  1.00  0.00     0.069 A 
HETATM   15  C9  UNL     1      26.617   0.464  52.639  1.00  0.00     0.106 A 
HETATM   16  C11 UNL     1      25.514   0.024  53.337  1.00  0.00     0.135 A 
HETATM   17  C13 UNL     1      24.291   0.538  52.958  1.00  0.00     0.106 A 
HETATM   18  C15 UNL     1      24.215   1.443  51.929  1.00  0.00     0.069 A 
BRANCH  15  19
HETATM   19  O2  UNL     1      27.869  -0.019  52.979  1.00  0.00    -0.353 OA
HETATM   20  C10 UNL     1      28.788   0.867  53.581  1.00  0.00     0.210 C 
ENDBRANCH  15  19
BRANCH  16  21
HETATM   21  O3  UNL     1      25.701  -0.883  54.346  1.00  0.00    -0.351 OA
HETATM   22  C12 UNL     1      25.790  -0.539  55.715  1.00  0.00     0.210 C 
ENDBRANCH  16  21
BRANCH  17  23
HETATM   23  O4  UNL     1      23.213   0.063  53.689  1.00  0.00    -0.353 OA
HETATM   24  C14 UNL     1      22.415  -0.947  53.099  1.00  0.00     0.210 C 
ENDBRANCH  17  23
ENDBRANCH  11  13
ENDBRANCH   7  11
BRANCH  10  25
HETATM   25  O5  UNL     1      29.178   4.933  47.945  1.00  0.00    -0.358 OA
HETATM   26  H19 UNL     1      29.330   3.926  48.044  1.00  0.00     0.217 HD
ENDBRANCH  10  25
BRANCH   1  27
HETATM   27  O1  UNL     1      28.839   7.617  48.047  1.00  0.00    -0.353 OA
HETATM   28  C1  UNL     1      29.663   8.509  48.759  1.00  0.00     0.210 C 
ENDBRANCH   1  27
TORSDOF 7
ENDMDL
