MODEL 1
REMARK VINA RESULT:      -8.9      0.000      0.000
REMARK  4 active torsions:
REMARK  status: ('A' for Active; 'I' for Inactive)
REMARK    1  A    between atoms: S1_2  and  N1_5 
REMARK    2  A    between atoms: N1_5  and  C2_6 
REMARK    3  A    between atoms: C10_15  and  N3_16 
REMARK    4  A    between atoms: N3_16  and  C11_17 
ROOT
HETATM    1  C2  UNL     1      24.994   1.530  53.292  1.00  0.00     0.043 A 
HETATM    2  C3  UNL     1      24.500   2.284  52.230  1.00  0.00     0.032 A 
HETATM    3  C4  UNL     1      23.387   1.819  51.581  1.00  0.00     0.034 A 
HETATM    4  C5  UNL     1      22.676   0.676  51.850  1.00  0.00     0.065 A 
HETATM    5  C6  UNL     1      23.177  -0.080  52.919  1.00  0.00    -0.010 A 
HETATM    6  C7  UNL     1      24.317   0.370  53.604  1.00  0.00     0.041 A 
HETATM    7  C8  UNL     1      22.704  -1.361  53.528  1.00  0.00     0.160 C 
HETATM    8  N2  UNL     1      22.178  -1.102  54.864  1.00  0.00    -0.392 N 
HETATM    9  C9  UNL     1      21.433  -0.030  54.322  1.00  0.00     0.125 C 
HETATM   10  C10 UNL     1      20.437   0.610  53.762  1.00  0.00     0.093 C 
HETATM   11  N5  UNL     1      20.401   1.992  53.405  1.00  0.00    -0.269 NA
HETATM   12  C16 UNL     1      20.553   2.285  52.114  1.00  0.00     0.221 C 
HETATM   13  C17 UNL     1      20.748   2.179  50.674  1.00  0.00     0.047 C 
HETATM   14  C18 UNL     1      20.947   0.934  50.343  1.00  0.00     0.087 C 
HETATM   15  N6  UNL     1      21.546   0.176  51.166  1.00  0.00    -0.246 NA
HETATM   16  H10 UNL     1      22.035  -1.221  55.888  1.00  0.00     0.159 HD
ENDROOT
BRANCH  10  17
HETATM   17  N3  UNL     1      19.733  -0.607  53.726  1.00  0.00    -0.328 N 
HETATM   18  H12 UNL     1      19.991  -1.532  54.184  1.00  0.00     0.168 HD
BRANCH  17  19
HETATM   19  C11 UNL     1      18.493  -0.756  53.003  1.00  0.00     0.167 A 
HETATM   20  N4  UNL     1      18.018   0.069  52.040  1.00  0.00    -0.240 NA
HETATM   21  C12 UNL     1      16.832  -0.228  51.470  1.00  0.00     0.119 A 
HETATM   22  C13 UNL     1      16.025  -1.301  51.760  1.00  0.00     0.022 A 
HETATM   23  C14 UNL     1      16.493  -2.154  52.740  1.00  0.00     0.047 A 
HETATM   24  C15 UNL     1      17.708  -1.861  53.332  1.00  0.00     0.162 A 
HETATM   25  F1  UNL     1      18.074  -2.764  54.283  1.00  0.00    -0.202 F 
ENDBRANCH  17  19
ENDBRANCH  10  17
BRANCH   1  26
HETATM   26  N1  UNL     1      26.137   1.995  53.974  1.00  0.00    -0.285 N 
HETATM   27  H4  UNL     1      25.900   2.484  54.888  1.00  0.00     0.178 HD
BRANCH  26  28
HETATM   28  S1  UNL     1      27.755   1.835  53.460  1.00  0.00     0.227 S 
HETATM   29  C1  UNL     1      28.291   0.151  53.318  1.00  0.00     0.186 C 
HETATM   30  O1  UNL     1      27.895   2.444  52.095  1.00  0.00    -0.206 OA
HETATM   31  O2  UNL     1      28.624   2.575  54.459  1.00  0.00    -0.206 OA
ENDBRANCH  26  28
ENDBRANCH   1  26
TORSDOF 4
ENDMDL
MODEL 2
REMARK VINA RESULT:      -8.6      3.199      4.528
REMARK  4 active torsions:
REMARK  status: ('A' for Active; 'I' for Inactive)
REMARK    1  A    between atoms: S1_2  and  N1_5 
REMARK    2  A    between atoms: N1_5  and  C2_6 
REMARK    3  A    between atoms: C10_15  and  N3_16 
REMARK    4  A    between atoms: N3_16  and  C11_17 
ROOT
HETATM    1  C2  UNL     1      26.045   1.015  52.853  1.00  0.00     0.043 A 
HETATM    2  C3  UNL     1      25.173  -0.069  52.787  1.00  0.00     0.032 A 
HETATM    3  C4  UNL     1      23.830   0.187  52.865  1.00  0.00     0.034 A 
HETATM    4  C5  UNL     1      23.217   1.408  53.004  1.00  0.00     0.065 A 
HETATM    5  C6  UNL     1      24.098   2.495  53.071  1.00  0.00    -0.010 A 
HETATM    6  C7  UNL     1      25.481   2.265  52.994  1.00  0.00     0.041 A 
HETATM    7  C8  UNL     1      23.846   3.963  53.213  1.00  0.00     0.160 C 
HETATM    8  N2  UNL     1      24.202   4.641  51.972  1.00  0.00    -0.392 N 
HETATM    9  C9  UNL     1      23.465   3.661  51.268  1.00  0.00     0.125 C 
HETATM   10  C10 UNL     1      22.444   3.070  50.699  1.00  0.00     0.093 C 
HETATM   11  N5  UNL     1      22.438   1.785  50.076  1.00  0.00    -0.269 NA
HETATM   12  C16 UNL     1      21.891   0.784  50.764  1.00  0.00     0.221 C 
HETATM   13  C17 UNL     1      21.232   0.003  51.803  1.00  0.00     0.047 C 
HETATM   14  C18 UNL     1      21.010   0.750  52.847  1.00  0.00     0.087 C 
HETATM   15  N6  UNL     1      21.834   1.676  53.116  1.00  0.00    -0.246 NA
HETATM   16  H10 UNL     1      24.636   5.351  51.346  1.00  0.00     0.159 HD
ENDROOT
BRANCH  10  17
HETATM   17  N3  UNL     1      21.655   4.173  51.070  1.00  0.00    -0.328 N 
HETATM   18  H12 UNL     1      21.971   5.099  51.488  1.00  0.00     0.168 HD
BRANCH  17  19
HETATM   19  C11 UNL     1      20.219   4.174  50.926  1.00  0.00     0.167 A 
HETATM   20  N4  UNL     1      19.321   3.687  51.815  1.00  0.00    -0.240 NA
HETATM   21  C12 UNL     1      18.009   3.772  51.511  1.00  0.00     0.119 A 
HETATM   22  C13 UNL     1      17.461   4.311  50.373  1.00  0.00     0.022 A 
HETATM   23  C14 UNL     1      18.362   4.813  49.455  1.00  0.00     0.047 A 
HETATM   24  C15 UNL     1      19.710   4.732  49.754  1.00  0.00     0.162 A 
HETATM   25  F1  UNL     1      20.508   5.255  48.783  1.00  0.00    -0.202 F 
ENDBRANCH  17  19
ENDBRANCH  10  17
BRANCH   1  26
HETATM   26  N1  UNL     1      27.432   0.769  52.770  1.00  0.00    -0.285 N 
HETATM   27  H4  UNL     1      27.801   0.833  51.775  1.00  0.00     0.178 HD
BRANCH  26  28
HETATM   28  S1  UNL     1      28.472   0.403  54.070  1.00  0.00     0.227 S 
HETATM   29  C1  UNL     1      29.871  -0.582  53.605  1.00  0.00     0.186 C 
HETATM   30  O1  UNL     1      29.020   1.684  54.631  1.00  0.00    -0.206 OA
HETATM   31  O2  UNL     1      27.651  -0.322  55.119  1.00  0.00    -0.206 OA
ENDBRANCH  26  28
ENDBRANCH   1  26
TORSDOF 4
ENDMDL
MODEL 3
REMARK VINA RESULT:      -8.3      3.546      5.578
REMARK  4 active torsions:
REMARK  status: ('A' for Active; 'I' for Inactive)
REMARK    1  A    between atoms: S1_2  and  N1_5 
REMARK    2  A    between atoms: N1_5  and  C2_6 
REMARK    3  A    between atoms: C10_15  and  N3_16 
REMARK    4  A    between atoms: N3_16  and  C11_17 
ROOT
HETATM    1  C2  UNL     1      26.005   1.173  52.850  1.00  0.00     0.043 A 
HETATM    2  C3  UNL     1      25.128   0.101  52.708  1.00  0.00     0.032 A 
HETATM    3  C4  UNL     1      23.785   0.373  52.694  1.00  0.00     0.034 A 
HETATM    4  C5  UNL     1      23.178   1.599  52.804  1.00  0.00     0.065 A 
HETATM    5  C6  UNL     1      24.064   2.675  52.947  1.00  0.00    -0.010 A 
HETATM    6  C7  UNL     1      25.446   2.428  52.966  1.00  0.00     0.041 A 
HETATM    7  C8  UNL     1      23.819   4.143  53.089  1.00  0.00     0.160 C 
HETATM    8  N2  UNL     1      24.271   4.831  51.885  1.00  0.00    -0.392 N 
HETATM    9  C9  UNL     1      23.575   3.869  51.118  1.00  0.00     0.125 C 
HETATM   10  C10 UNL     1      22.591   3.297  50.470  1.00  0.00     0.093 C 
HETATM   11  N5  UNL     1      22.615   2.020  49.832  1.00  0.00    -0.269 NA
HETATM   12  C16 UNL     1      22.009   1.017  50.467  1.00  0.00     0.221 C 
HETATM   13  C17 UNL     1      21.268   0.232  51.446  1.00  0.00     0.047 C 
HETATM   14  C18 UNL     1      20.980   0.969  52.481  1.00  0.00     0.087 C 
HETATM   15  N6  UNL     1      21.794   1.883  52.820  1.00  0.00    -0.246 NA
HETATM   16  H10 UNL     1      24.757   5.544  51.301  1.00  0.00     0.159 HD
ENDROOT
BRANCH  10  17
HETATM   17  N3  UNL     1      21.789   4.405  50.798  1.00  0.00    -0.328 N 
HETATM   18  H12 UNL     1      21.473   4.728  51.761  1.00  0.00     0.168 HD
BRANCH  17  19
HETATM   19  C11 UNL     1      21.256   5.292  49.793  1.00  0.00     0.167 A 
HETATM   20  N4  UNL     1      20.837   4.945  48.553  1.00  0.00    -0.240 NA
HETATM   21  C12 UNL     1      20.367   5.914  47.741  1.00  0.00     0.119 A 
HETATM   22  C13 UNL     1      20.258   7.251  48.033  1.00  0.00     0.022 A 
HETATM   23  C14 UNL     1      20.680   7.624  49.294  1.00  0.00     0.047 A 
HETATM   24  C15 UNL     1      21.165   6.641  50.135  1.00  0.00     0.162 A 
HETATM   25  F1  UNL     1      21.553   7.117  51.351  1.00  0.00    -0.202 F 
ENDBRANCH  17  19
ENDBRANCH  10  17
BRANCH   1  26
HETATM   26  N1  UNL     1      27.391   0.911  52.864  1.00  0.00    -0.285 N 
HETATM   27  H4  UNL     1      27.847   1.064  51.915  1.00  0.00     0.178 HD
BRANCH  26  28
HETATM   28  S1  UNL     1      28.310   0.403  54.206  1.00  0.00     0.227 S 
HETATM   29  C1  UNL     1      29.648  -0.681  53.783  1.00  0.00     0.186 C 
HETATM   30  O1  UNL     1      28.927   1.607  54.859  1.00  0.00    -0.206 OA
HETATM   31  O2  UNL     1      27.364  -0.290  55.168  1.00  0.00    -0.206 OA
ENDBRANCH  26  28
ENDBRANCH   1  26
TORSDOF 4
ENDMDL
MODEL 4
REMARK VINA RESULT:      -8.2      4.245      5.745
REMARK  4 active torsions:
REMARK  status: ('A' for Active; 'I' for Inactive)
REMARK    1  A    between atoms: S1_2  and  N1_5 
REMARK    2  A    between atoms: N1_5  and  C2_6 
REMARK    3  A    between atoms: C10_15  and  N3_16 
REMARK    4  A    between atoms: N3_16  and  C11_17 
ROOT
HETATM    1  C2  UNL     1      26.209   5.968  49.290  1.00  0.00     0.043 A 
HETATM    2  C3  UNL     1      24.934   6.189  48.776  1.00  0.00     0.032 A 
HETATM    3  C4  UNL     1      24.060   5.134  48.761  1.00  0.00     0.034 A 
HETATM    4  C5  UNL     1      24.287   3.853  49.199  1.00  0.00     0.065 A 
HETATM    5  C6  UNL     1      25.572   3.634  49.714  1.00  0.00    -0.010 A 
HETATM    6  C7  UNL     1      26.490   4.696  49.743  1.00  0.00     0.041 A 
HETATM    7  C8  UNL     1      26.210   2.409  50.287  1.00  0.00     0.160 C 
HETATM    8  N2  UNL     1      26.421   2.595  51.719  1.00  0.00    -0.392 N 
HETATM    9  C9  UNL     1      25.087   3.050  51.819  1.00  0.00     0.125 C 
HETATM   10  C10 UNL     1      23.787   3.010  51.976  1.00  0.00     0.093 C 
HETATM   11  N5  UNL     1      22.882   4.111  51.897  1.00  0.00    -0.269 NA
HETATM   12  C16 UNL     1      22.160   4.220  50.782  1.00  0.00     0.221 C 
HETATM   13  C17 UNL     1      21.591   3.984  49.462  1.00  0.00     0.047 C 
HETATM   14  C18 UNL     1      22.177   2.965  48.900  1.00  0.00     0.087 C 
HETATM   15  N6  UNL     1      23.402   2.753  49.158  1.00  0.00    -0.246 NA
HETATM   16  H10 UNL     1      26.922   2.594  52.632  1.00  0.00     0.159 HD
ENDROOT
BRANCH  10  17
HETATM   17  N3  UNL     1      23.894   1.617  52.144  1.00  0.00    -0.328 N 
HETATM   18  H12 UNL     1      24.597   0.952  51.701  1.00  0.00     0.168 HD
BRANCH  17  19
HETATM   19  C11 UNL     1      22.994   0.874  52.991  1.00  0.00     0.167 A 
HETATM   20  N4  UNL     1      21.678   1.130  53.187  1.00  0.00    -0.240 NA
HETATM   21  C12 UNL     1      20.987   0.325  54.021  1.00  0.00     0.119 A 
HETATM   22  C13 UNL     1      21.475  -0.756  54.714  1.00  0.00     0.022 A 
HETATM   23  C14 UNL     1      22.814  -1.033  54.525  1.00  0.00     0.047 A 
HETATM   24  C15 UNL     1      23.534  -0.215  53.674  1.00  0.00     0.162 A 
HETATM   25  F1  UNL     1      24.842  -0.576  53.561  1.00  0.00    -0.202 F 
ENDBRANCH  17  19
ENDBRANCH  10  17
BRANCH   1  26
HETATM   26  N1  UNL     1      27.120   7.045  49.317  1.00  0.00    -0.285 N 
HETATM   27  H4  UNL     1      26.970   7.689  50.149  1.00  0.00     0.178 HD
BRANCH  26  28
HETATM   28  S1  UNL     1      28.353   7.353  48.181  1.00  0.00     0.227 S 
HETATM   29  C1  UNL     1      29.545   8.544  48.732  1.00  0.00     0.186 C 
HETATM   30  O1  UNL     1      29.108   6.081  47.923  1.00  0.00    -0.206 OA
HETATM   31  O2  UNL     1      27.686   7.836  46.907  1.00  0.00    -0.206 OA
ENDBRANCH  26  28
ENDBRANCH   1  26
TORSDOF 4
ENDMDL
MODEL 5
REMARK VINA RESULT:      -8.2      2.383      2.931
REMARK  4 active torsions:
REMARK  status: ('A' for Active; 'I' for Inactive)
REMARK    1  A    between atoms: S1_2  and  N1_5 
REMARK    2  A    between atoms: N1_5  and  C2_6 
REMARK    3  A    between atoms: C10_15  and  N3_16 
REMARK    4  A    between atoms: N3_16  and  C11_17 
ROOT
HETATM    1  C2  UNL     1      25.234   1.683  53.081  1.00  0.00     0.043 A 
HETATM    2  C3  UNL     1      25.439   2.505  51.975  1.00  0.00     0.032 A 
HETATM    3  C4  UNL     1      24.482   2.504  50.995  1.00  0.00     0.034 A 
HETATM    4  C5  UNL     1      23.318   1.777  50.960  1.00  0.00     0.065 A 
HETATM    5  C6  UNL     1      23.117   0.951  52.075  1.00  0.00    -0.010 A 
HETATM    6  C7  UNL     1      24.079   0.930  53.097  1.00  0.00     0.041 A 
HETATM    7  C8  UNL     1      21.999   0.022  52.425  1.00  0.00     0.160 C 
HETATM    8  N2  UNL     1      21.255   0.560  53.559  1.00  0.00    -0.392 N 
HETATM    9  C9  UNL     1      21.219   1.807  52.896  1.00  0.00     0.125 C 
HETATM   10  C10 UNL     1      20.794   2.766  52.111  1.00  0.00     0.093 C 
HETATM   11  N5  UNL     1      21.441   4.013  51.856  1.00  0.00    -0.269 NA
HETATM   12  C16 UNL     1      22.078   4.134  50.692  1.00  0.00     0.221 C 
HETATM   13  C17 UNL     1      22.632   3.866  49.372  1.00  0.00     0.047 C 
HETATM   14  C18 UNL     1      22.387   2.633  49.029  1.00  0.00     0.087 C 
HETATM   15  N6  UNL     1      22.343   1.748  49.939  1.00  0.00    -0.246 NA
HETATM   16  H10 UNL     1      20.777   0.575  54.484  1.00  0.00     0.159 HD
ENDROOT
BRANCH  10  17
HETATM   17  N3  UNL     1      19.696   1.951  51.783  1.00  0.00    -0.328 N 
HETATM   18  H12 UNL     1      19.670   0.893  51.673  1.00  0.00     0.168 HD
BRANCH  17  19
HETATM   19  C11 UNL     1      18.383   2.494  51.530  1.00  0.00     0.167 A 
HETATM   20  N4  UNL     1      17.921   3.701  51.933  1.00  0.00    -0.240 NA
HETATM   21  C12 UNL     1      16.658   4.044  51.605  1.00  0.00     0.119 A 
HETATM   22  C13 UNL     1      15.760   3.292  50.888  1.00  0.00     0.022 A 
HETATM   23  C14 UNL     1      16.215   2.058  50.468  1.00  0.00     0.047 A 
HETATM   24  C15 UNL     1      17.507   1.693  50.799  1.00  0.00     0.162 A 
HETATM   25  F1  UNL     1      17.852   0.459  50.337  1.00  0.00    -0.202 F 
ENDBRANCH  17  19
ENDBRANCH  10  17
BRANCH   1  26
HETATM   26  N1  UNL     1      26.207   1.675  54.103  1.00  0.00    -0.285 N 
HETATM   27  H4  UNL     1      26.243   2.590  54.642  1.00  0.00     0.178 HD
BRANCH  26  28
HETATM   28  S1  UNL     1      27.250   0.385  54.494  1.00  0.00     0.227 S 
HETATM   29  C1  UNL     1      27.804  -0.535  53.083  1.00  0.00     0.186 C 
HETATM   30  O1  UNL     1      28.481   0.936  55.154  1.00  0.00    -0.206 OA
HETATM   31  O2  UNL     1      26.505  -0.528  55.449  1.00  0.00    -0.206 OA
ENDBRANCH  26  28
ENDBRANCH   1  26
TORSDOF 4
ENDMDL
MODEL 6
REMARK VINA RESULT:      -7.8      4.800      6.463
REMARK  4 active torsions:
REMARK  status: ('A' for Active; 'I' for Inactive)
REMARK    1  A    between atoms: S1_2  and  N1_5 
REMARK    2  A    between atoms: N1_5  and  C2_6 
REMARK    3  A    between atoms: C10_15  and  N3_16 
REMARK    4  A    between atoms: N3_16  and  C11_17 
ROOT
HETATM    1  C2  UNL     1      25.325   7.668  50.158  1.00  0.00     0.043 A 
HETATM    2  C3  UNL     1      23.952   7.899  50.211  1.00  0.00     0.032 A 
HETATM    3  C4  UNL     1      23.118   6.829  50.023  1.00  0.00     0.034 A 
HETATM    4  C5  UNL     1      23.470   5.524  49.784  1.00  0.00     0.065 A 
HETATM    5  C6  UNL     1      24.852   5.296  49.732  1.00  0.00    -0.010 A 
HETATM    6  C7  UNL     1      25.733   6.373  49.920  1.00  0.00     0.041 A 
HETATM    7  C8  UNL     1      25.637   4.044  49.504  1.00  0.00     0.160 C 
HETATM    8  N2  UNL     1      26.323   3.669  50.736  1.00  0.00    -0.392 N 
HETATM    9  C9  UNL     1      25.106   3.858  51.428  1.00  0.00     0.125 C 
HETATM   10  C10 UNL     1      23.936   3.582  51.949  1.00  0.00     0.093 C 
HETATM   11  N5  UNL     1      23.066   4.487  52.628  1.00  0.00    -0.269 NA
HETATM   12  C16 UNL     1      22.010   4.933  51.948  1.00  0.00     0.221 C 
HETATM   13  C17 UNL     1      21.024   5.168  50.902  1.00  0.00     0.047 C 
HETATM   14  C18 UNL     1      21.377   4.550  49.811  1.00  0.00     0.087 C 
HETATM   15  N6  UNL     1      22.615   4.422  49.560  1.00  0.00    -0.246 NA
HETATM   16  H10 UNL     1      27.104   3.372  51.358  1.00  0.00     0.159 HD
ENDROOT
BRANCH  10  17
HETATM   17  N3  UNL     1      24.084   2.267  51.471  1.00  0.00    -0.328 N 
HETATM   18  H12 UNL     1      24.545   1.942  50.569  1.00  0.00     0.168 HD
BRANCH  17  19
HETATM   19  C11 UNL     1      23.583   1.125  52.195  1.00  0.00     0.167 A 
HETATM   20  N4  UNL     1      24.286   0.339  53.045  1.00  0.00    -0.240 NA
HETATM   21  C12 UNL     1      23.649  -0.693  53.637  1.00  0.00     0.119 A 
HETATM   22  C13 UNL     1      22.334  -1.052  53.474  1.00  0.00     0.022 A 
HETATM   23  C14 UNL     1      21.601  -0.261  52.611  1.00  0.00     0.047 A 
HETATM   24  C15 UNL     1      22.241   0.800  51.998  1.00  0.00     0.162 A 
HETATM   25  F1  UNL     1      21.428   1.511  51.169  1.00  0.00    -0.202 F 
ENDBRANCH  17  19
ENDBRANCH  10  17
BRANCH   1  26
HETATM   26  N1  UNL     1      26.198   8.758  50.353  1.00  0.00    -0.285 N 
HETATM   27  H4  UNL     1      26.167   9.137  51.346  1.00  0.00     0.178 HD
BRANCH  26  28
HETATM   28  S1  UNL     1      27.223   9.453  49.181  1.00  0.00     0.227 S 
HETATM   29  C1  UNL     1      26.534   9.457  47.548  1.00  0.00     0.186 C 
HETATM   30  O1  UNL     1      27.473  10.889  49.543  1.00  0.00    -0.206 OA
HETATM   31  O2  UNL     1      28.523   8.673  49.195  1.00  0.00    -0.206 OA
ENDBRANCH  26  28
ENDBRANCH   1  26
TORSDOF 4
ENDMDL
MODEL 7
REMARK VINA RESULT:      -7.7      4.948      7.873
REMARK  4 active torsions:
REMARK  status: ('A' for Active; 'I' for Inactive)
REMARK    1  A    between atoms: S1_2  and  N1_5 
REMARK    2  A    between atoms: N1_5  and  C2_6 
REMARK    3  A    between atoms: C10_15  and  N3_16 
REMARK    4  A    between atoms: N3_16  and  C11_17 
ROOT
HETATM    1  C2  UNL     1      22.213   5.571  51.059  1.00  0.00     0.043 A 
HETATM    2  C3  UNL     1      21.313   4.635  51.563  1.00  0.00     0.032 A 
HETATM    3  C4  UNL     1      21.644   3.310  51.457  1.00  0.00     0.034 A 
HETATM    4  C5  UNL     1      22.779   2.772  50.903  1.00  0.00     0.065 A 
HETATM    5  C6  UNL     1      23.682   3.717  50.397  1.00  0.00    -0.010 A 
HETATM    6  C7  UNL     1      23.370   5.083  50.491  1.00  0.00     0.041 A 
HETATM    7  C8  UNL     1      25.012   3.554  49.732  1.00  0.00     0.160 C 
HETATM    8  N2  UNL     1      26.062   4.049  50.615  1.00  0.00    -0.392 N 
HETATM    9  C9  UNL     1      25.480   3.304  51.665  1.00  0.00     0.125 C 
HETATM   10  C10 UNL     1      25.233   2.292  52.459  1.00  0.00     0.093 C 
HETATM   11  N5  UNL     1      24.273   2.246  53.514  1.00  0.00    -0.269 NA
HETATM   12  C16 UNL     1      23.143   1.582  53.273  1.00  0.00     0.221 C 
HETATM   13  C17 UNL     1      22.099   0.794  52.630  1.00  0.00     0.047 C 
HETATM   14  C18 UNL     1      22.429   0.544  51.395  1.00  0.00     0.087 C 
HETATM   15  N6  UNL     1      23.113   1.406  50.763  1.00  0.00    -0.246 NA
HETATM   16  H10 UNL     1      26.909   4.577  50.911  1.00  0.00     0.159 HD
ENDROOT
BRANCH  10  17
HETATM   17  N3  UNL     1      26.191   1.553  51.742  1.00  0.00    -0.328 N 
HETATM   18  H12 UNL     1      26.331   1.502  50.688  1.00  0.00     0.168 HD
BRANCH  17  19
HETATM   19  C11 UNL     1      27.159   0.707  52.397  1.00  0.00     0.167 A 
HETATM   20  N4  UNL     1      27.145  -0.646  52.444  1.00  0.00    -0.240 NA
HETATM   21  C12 UNL     1      28.138  -1.274  53.109  1.00  0.00     0.119 A 
HETATM   22  C13 UNL     1      29.192  -0.684  53.762  1.00  0.00     0.022 A 
HETATM   23  C14 UNL     1      29.222   0.696  53.725  1.00  0.00     0.047 A 
HETATM   24  C15 UNL     1      28.211   1.351  53.048  1.00  0.00     0.162 A 
HETATM   25  F1  UNL     1      28.338   2.707  53.073  1.00  0.00    -0.202 F 
ENDBRANCH  17  19
ENDBRANCH  10  17
BRANCH   1  26
HETATM   26  N1  UNL     1      21.889   6.940  51.164  1.00  0.00    -0.285 N 
HETATM   27  H4  UNL     1      21.997   7.312  52.154  1.00  0.00     0.178 HD
BRANCH  26  28
HETATM   28  S1  UNL     1      21.375   7.955  49.896  1.00  0.00     0.227 S 
HETATM   29  C1  UNL     1      20.798   7.075  48.469  1.00  0.00     0.186 C 
HETATM   30  O1  UNL     1      20.223   8.790  50.377  1.00  0.00    -0.206 OA
HETATM   31  O2  UNL     1      22.547   8.842  49.520  1.00  0.00    -0.206 OA
ENDBRANCH  26  28
ENDBRANCH   1  26
TORSDOF 4
ENDMDL
MODEL 8
REMARK VINA RESULT:      -7.7      4.930      7.836
REMARK  4 active torsions:
REMARK  status: ('A' for Active; 'I' for Inactive)
REMARK    1  A    between atoms: S1_2  and  N1_5 
REMARK    2  A    between atoms: N1_5  and  C2_6 
REMARK    3  A    between atoms: C10_15  and  N3_16 
REMARK    4  A    between atoms: N3_16  and  C11_17 
ROOT
HETATM    1  C2  UNL     1      20.477   0.219  53.196  1.00  0.00     0.043 A 
HETATM    2  C3  UNL     1      21.585   0.214  54.040  1.00  0.00     0.032 A 
HETATM    3  C4  UNL     1      22.809   0.481  53.487  1.00  0.00     0.034 A 
HETATM    4  C5  UNL     1      23.092   0.760  52.173  1.00  0.00     0.065 A 
HETATM    5  C6  UNL     1      21.975   0.763  51.327  1.00  0.00    -0.010 A 
HETATM    6  C7  UNL     1      20.706   0.493  51.864  1.00  0.00     0.041 A 
HETATM    7  C8  UNL     1      21.849   1.021  49.859  1.00  0.00     0.160 C 
HETATM    8  N2  UNL     1      21.149   2.282  49.644  1.00  0.00    -0.392 N 
HETATM    9  C9  UNL     1      22.006   2.878  50.596  1.00  0.00     0.125 C 
HETATM   10  C10 UNL     1      23.052   3.497  51.085  1.00  0.00     0.093 C 
HETATM   11  N5  UNL     1      23.306   3.793  52.459  1.00  0.00    -0.269 NA
HETATM   12  C16 UNL     1      24.192   3.022  53.088  1.00  0.00     0.221 C 
HETATM   13  C17 UNL     1      25.179   1.993  53.390  1.00  0.00     0.047 C 
HETATM   14  C18 UNL     1      25.347   1.221  52.355  1.00  0.00     0.087 C 
HETATM   15  N6  UNL     1      24.355   1.006  51.591  1.00  0.00    -0.246 NA
HETATM   16  H10 UNL     1      20.455   2.949  49.246  1.00  0.00     0.159 HD
ENDROOT
BRANCH  10  17
HETATM   17  N3  UNL     1      23.568   3.565  49.779  1.00  0.00    -0.328 N 
HETATM   18  H12 UNL     1      23.309   2.970  48.936  1.00  0.00     0.168 HD
BRANCH  17  19
HETATM   19  C11 UNL     1      24.590   4.512  49.405  1.00  0.00     0.167 A 
HETATM   20  N4  UNL     1      24.407   5.823  49.117  1.00  0.00    -0.240 NA
HETATM   21  C12 UNL     1      25.485   6.562  48.782  1.00  0.00     0.119 A 
HETATM   22  C13 UNL     1      26.785   6.129  48.698  1.00  0.00     0.022 A 
HETATM   23  C14 UNL     1      26.992   4.795  48.989  1.00  0.00     0.047 A 
HETATM   24  C15 UNL     1      25.895   4.026  49.332  1.00  0.00     0.162 A 
HETATM   25  F1  UNL     1      26.211   2.729  49.598  1.00  0.00    -0.202 F 
ENDBRANCH  17  19
ENDBRANCH  10  17
BRANCH   1  26
HETATM   26  N1  UNL     1      19.208  -0.051  53.749  1.00  0.00    -0.285 N 
HETATM   27  H4  UNL     1      19.077   0.388  54.709  1.00  0.00     0.178 HD
BRANCH  26  28
HETATM   28  S1  UNL     1      17.965  -0.967  53.028  1.00  0.00     0.227 S 
HETATM   29  C1  UNL     1      17.952  -2.667  53.530  1.00  0.00     0.186 C 
HETATM   30  O1  UNL     1      16.638  -0.392  53.432  1.00  0.00    -0.206 OA
HETATM   31  O2  UNL     1      18.144  -0.871  51.525  1.00  0.00    -0.206 OA
ENDBRANCH  26  28
ENDBRANCH   1  26
TORSDOF 4
ENDMDL
MODEL 9
REMARK VINA RESULT:      -7.5      4.312      5.376
REMARK  4 active torsions:
REMARK  status: ('A' for Active; 'I' for Inactive)
REMARK    1  A    between atoms: S1_2  and  N1_5 
REMARK    2  A    between atoms: N1_5  and  C2_6 
REMARK    3  A    between atoms: C10_15  and  N3_16 
REMARK    4  A    between atoms: N3_16  and  C11_17 
ROOT
HETATM    1  C2  UNL     1      25.915   6.226  49.345  1.00  0.00     0.043 A 
HETATM    2  C3  UNL     1      24.852   6.617  48.535  1.00  0.00     0.032 A 
HETATM    3  C4  UNL     1      23.753   5.801  48.486  1.00  0.00     0.034 A 
HETATM    4  C5  UNL     1      23.561   4.614  49.150  1.00  0.00     0.065 A 
HETATM    5  C6  UNL     1      24.633   4.224  49.962  1.00  0.00    -0.010 A 
HETATM    6  C7  UNL     1      25.774   5.040  50.034  1.00  0.00     0.041 A 
HETATM    7  C8  UNL     1      24.822   3.027  50.840  1.00  0.00     0.160 C 
HETATM    8  N2  UNL     1      24.816   3.442  52.238  1.00  0.00    -0.392 N 
HETATM    9  C9  UNL     1      23.649   4.192  51.972  1.00  0.00     0.125 C 
HETATM   10  C10 UNL     1      22.376   4.474  51.842  1.00  0.00     0.093 C 
HETATM   11  N5  UNL     1      21.813   5.710  51.402  1.00  0.00    -0.269 NA
HETATM   12  C16 UNL     1      21.354   5.752  50.151  1.00  0.00     0.221 C 
HETATM   13  C17 UNL     1      20.987   5.390  48.788  1.00  0.00     0.047 C 
HETATM   14  C18 UNL     1      21.381   4.176  48.529  1.00  0.00     0.087 C 
HETATM   15  N6  UNL     1      22.444   3.753  49.079  1.00  0.00    -0.246 NA
HETATM   16  H10 UNL     1      25.129   3.513  53.229  1.00  0.00     0.159 HD
ENDROOT
BRANCH  10  17
HETATM   17  N3  UNL     1      22.089   3.154  52.237  1.00  0.00    -0.328 N 
HETATM   18  H12 UNL     1      22.709   2.479  52.778  1.00  0.00     0.168 HD
BRANCH  17  19
HETATM   19  C11 UNL     1      20.836   2.513  51.923  1.00  0.00     0.167 A 
HETATM   20  N4  UNL     1      19.598   3.028  52.117  1.00  0.00    -0.240 NA
HETATM   21  C12 UNL     1      18.532   2.281  51.763  1.00  0.00     0.119 A 
HETATM   22  C13 UNL     1      18.554   1.023  51.213  1.00  0.00     0.022 A 
HETATM   23  C14 UNL     1      19.808   0.482  51.008  1.00  0.00     0.047 A 
HETATM   24  C15 UNL     1      20.909   1.237  51.366  1.00  0.00     0.162 A 
HETATM   25  F1  UNL     1      22.093   0.610  51.122  1.00  0.00    -0.202 F 
ENDBRANCH  17  19
ENDBRANCH  10  17
BRANCH   1  26
HETATM   26  N1  UNL     1      27.053   7.057  49.411  1.00  0.00    -0.285 N 
HETATM   27  H4  UNL     1      27.025   7.726  50.236  1.00  0.00     0.178 HD
BRANCH  26  28
HETATM   28  S1  UNL     1      28.370   7.054  48.328  1.00  0.00     0.227 S 
HETATM   29  C1  UNL     1      29.129   5.464  48.137  1.00  0.00     0.186 C 
HETATM   30  O1  UNL     1      27.883   7.461  46.967  1.00  0.00    -0.206 OA
HETATM   31  O2  UNL     1      29.385   8.056  48.845  1.00  0.00    -0.206 OA
ENDBRANCH  26  28
ENDBRANCH   1  26
TORSDOF 4
ENDMDL
