MODEL 1
REMARK VINA RESULT:      -7.2      0.000      0.000
REMARK  11 active torsions:
REMARK  status: ('A' for Active; 'I' for Inactive)
REMARK    1  A    between atoms: O1_2  and  C2_3 
REMARK    2  A    between atoms: C2_3  and  C3_4 
REMARK    3  A    between atoms: C3_4  and  O2_5 
REMARK    4  A    between atoms: O2_5  and  C4_6 
REMARK    5  A    between atoms: C6_8  and  N1_9 
REMARK    6  A    between atoms: N1_9  and  C7_10 
REMARK    7  A    between atoms: C7_10  and  C8_11 
REMARK    8  A    between atoms: C8_11  and  C9_12 
REMARK    9  A    between atoms: C9_12  and  C11_14 
REMARK   10  A    between atoms: C11_14  and  C12_15 
REMARK   11  A    between atoms: C12_15  and  C13_16 
ROOT
HETATM    1  C4  UNL     1      25.359  -0.012  53.987  1.00  0.00     0.180 C 
HETATM    2  C5  UNL     1      24.334   0.353  53.252  1.00  0.00     0.092 A 
HETATM    3  C6  UNL     1      24.701   1.110  52.163  1.00  0.00     0.145 A 
HETATM    4  N2  UNL     1      23.784   1.560  51.331  1.00  0.00    -0.223 NA
HETATM    5  C14 UNL     1      22.484   1.305  51.506  1.00  0.00     0.236 A 
HETATM    6  N3  UNL     1      22.143   0.571  52.563  1.00  0.00    -0.240 NA
HETATM    7  C15 UNL     1      23.002   0.077  53.452  1.00  0.00     0.087 A 
HETATM    8  C16 UNL     1      22.359  -0.600  54.375  1.00  0.00     0.008 C 
HETATM    9  C17 UNL     1      22.960  -1.393  55.213  1.00  0.00     0.034 C 
HETATM   10  C18 UNL     1      24.342  -1.408  55.740  1.00  0.00     0.120 C 
HETATM   11  N4  UNL     1      25.371  -0.802  55.193  1.00  0.00    -0.236 NA
ENDROOT
BRANCH   3  12
HETATM   12  N1  UNL     1      26.082   1.384  51.932  1.00  0.00    -0.350 N 
HETATM   13  H8  UNL     1      27.106   1.415  51.834  1.00  0.00     0.166 HD
BRANCH  12  14
HETATM   14  C7  UNL     1      26.326   2.683  51.302  1.00  0.00     0.090 C 
BRANCH  14  15
HETATM   15  C8  UNL     1      26.573   2.977  50.010  1.00  0.00     0.023 C 
BRANCH  15  16
HETATM   16  C9  UNL     1      26.384   4.229  49.316  1.00  0.00    -0.064 C 
HETATM   17  C10 UNL     1      24.956   4.628  49.258  1.00  0.00     0.048 C 
BRANCH  16  18
HETATM   18  C11 UNL     1      27.422   4.817  48.858  1.00  0.00    -0.012 C 
BRANCH  18  19
HETATM   19  C12 UNL     1      28.625   5.367  48.325  1.00  0.00     0.119 C 
BRANCH  19  20
HETATM   20  C13 UNL     1      27.973   6.540  48.103  1.00  0.00     0.365 C 
HETATM   21  F1  UNL     1      26.975   7.428  47.879  1.00  0.00    -0.461 F 
ENDBRANCH  19  20
ENDBRANCH  18  19
ENDBRANCH  16  18
ENDBRANCH  15  16
ENDBRANCH  14  15
ENDBRANCH  12  14
ENDBRANCH   3  12
BRANCH   1  22
HETATM   22  O2  UNL     1      26.640   0.346  53.668  1.00  0.00    -0.332 OA
BRANCH  22  23
HETATM   23  C3  UNL     1      27.696   0.175  54.621  1.00  0.00     0.203 C 
BRANCH  23  24
HETATM   24  C2  UNL     1      28.927   0.951  54.217  1.00  0.00     0.193 C 
BRANCH  24  25
HETATM   25  O1  UNL     1      29.778   0.231  53.414  1.00  0.00    -0.394 OA
HETATM   26  C1  UNL     1      29.819  -1.122  53.637  1.00  0.00     0.201 C 
ENDBRANCH  24  25
ENDBRANCH  23  24
ENDBRANCH  22  23
ENDBRANCH   1  22
TORSDOF 11
ENDMDL
MODEL 2
REMARK VINA RESULT:      -7.0      3.218      5.716
REMARK  11 active torsions:
REMARK  status: ('A' for Active; 'I' for Inactive)
REMARK    1  A    between atoms: O1_2  and  C2_3 
REMARK    2  A    between atoms: C2_3  and  C3_4 
REMARK    3  A    between atoms: C3_4  and  O2_5 
REMARK    4  A    between atoms: O2_5  and  C4_6 
REMARK    5  A    between atoms: C6_8  and  N1_9 
REMARK    6  A    between atoms: N1_9  and  C7_10 
REMARK    7  A    between atoms: C7_10  and  C8_11 
REMARK    8  A    between atoms: C8_11  and  C9_12 
REMARK    9  A    between atoms: C9_12  and  C11_14 
REMARK   10  A    between atoms: C11_14  and  C12_15 
REMARK   11  A    between atoms: C12_15  and  C13_16 
ROOT
HETATM    1  C4  UNL     1      22.139   0.496  52.145  1.00  0.00     0.180 C 
HETATM    2  C5  UNL     1      22.321  -0.210  53.236  1.00  0.00     0.092 A 
HETATM    3  C6  UNL     1      23.627  -0.197  53.670  1.00  0.00     0.145 A 
HETATM    4  N2  UNL     1      23.972  -0.867  54.750  1.00  0.00    -0.223 NA
HETATM    5  C14 UNL     1      23.086  -1.573  55.458  1.00  0.00     0.236 A 
HETATM    6  N3  UNL     1      21.825  -1.576  55.028  1.00  0.00    -0.240 NA
HETATM    7  C15 UNL     1      21.391  -0.930  53.950  1.00  0.00     0.087 A 
HETATM    8  C16 UNL     1      20.103  -1.129  53.790  1.00  0.00     0.008 C 
HETATM    9  C17 UNL     1      19.377  -0.421  52.975  1.00  0.00     0.034 C 
HETATM   10  C18 UNL     1      19.717   0.327  51.746  1.00  0.00     0.120 C 
HETATM   11  N4  UNL     1      20.923   0.717  51.402  1.00  0.00    -0.236 NA
ENDROOT
BRANCH   3  12
HETATM   12  N1  UNL     1      24.597   0.564  52.951  1.00  0.00    -0.350 N 
HETATM   13  H8  UNL     1      25.154   1.211  52.377  1.00  0.00     0.166 HD
BRANCH  12  14
HETATM   14  C7  UNL     1      25.974   0.117  53.171  1.00  0.00     0.090 C 
BRANCH  14  15
HETATM   15  C8  UNL     1      26.910   0.605  54.010  1.00  0.00     0.023 C 
BRANCH  15  16
HETATM   16  C9  UNL     1      28.285   0.944  53.730  1.00  0.00    -0.064 C 
HETATM   17  C10 UNL     1      28.476   2.404  53.545  1.00  0.00     0.048 C 
BRANCH  16  18
HETATM   18  C11 UNL     1      29.134  -0.009  53.679  1.00  0.00    -0.012 C 
BRANCH  18  19
HETATM   19  C12 UNL     1      30.020  -1.127  53.705  1.00  0.00     0.119 C 
BRANCH  19  20
HETATM   20  C13 UNL     1      29.010  -1.918  53.251  1.00  0.00     0.365 C 
HETATM   21  F1  UNL     1      28.351  -2.982  52.734  1.00  0.00    -0.461 F 
ENDBRANCH  19  20
ENDBRANCH  18  19
ENDBRANCH  16  18
ENDBRANCH  15  16
ENDBRANCH  14  15
ENDBRANCH  12  14
ENDBRANCH   3  12
BRANCH   1  22
HETATM   22  O2  UNL     1      23.169   1.159  51.534  1.00  0.00    -0.332 OA
BRANCH  22  23
HETATM   23  C3  UNL     1      22.897   2.212  50.601  1.00  0.00     0.203 C 
BRANCH  23  24
HETATM   24  C2  UNL     1      24.171   2.885  50.152  1.00  0.00     0.193 C 
BRANCH  24  25
HETATM   25  O1  UNL     1      25.187   2.784  51.070  1.00  0.00    -0.394 OA
HETATM   26  C1  UNL     1      26.450   3.050  50.606  1.00  0.00     0.201 C 
ENDBRANCH  24  25
ENDBRANCH  23  24
ENDBRANCH  22  23
ENDBRANCH   1  22
TORSDOF 11
ENDMDL
MODEL 3
REMARK VINA RESULT:      -7.0      3.014      5.718
REMARK  11 active torsions:
REMARK  status: ('A' for Active; 'I' for Inactive)
REMARK    1  A    between atoms: O1_2  and  C2_3 
REMARK    2  A    between atoms: C2_3  and  C3_4 
REMARK    3  A    between atoms: C3_4  and  O2_5 
REMARK    4  A    between atoms: O2_5  and  C4_6 
REMARK    5  A    between atoms: C6_8  and  N1_9 
REMARK    6  A    between atoms: N1_9  and  C7_10 
REMARK    7  A    between atoms: C7_10  and  C8_11 
REMARK    8  A    between atoms: C8_11  and  C9_12 
REMARK    9  A    between atoms: C9_12  and  C11_14 
REMARK   10  A    between atoms: C11_14  and  C12_15 
REMARK   11  A    between atoms: C12_15  and  C13_16 
ROOT
HETATM    1  C4  UNL     1      21.414   0.302  51.798  1.00  0.00     0.180 C 
HETATM    2  C5  UNL     1      21.763  -0.288  52.917  1.00  0.00     0.092 A 
HETATM    3  C6  UNL     1      23.104  -0.155  53.197  1.00  0.00     0.145 A 
HETATM    4  N2  UNL     1      23.610  -0.699  54.284  1.00  0.00    -0.223 NA
HETATM    5  C14 UNL     1      22.858  -1.390  55.146  1.00  0.00     0.236 A 
HETATM    6  N3  UNL     1      21.562  -1.511  54.864  1.00  0.00    -0.240 NA
HETATM    7  C15 UNL     1      20.969  -0.995  53.791  1.00  0.00     0.087 A 
HETATM    8  C16 UNL     1      19.689  -1.287  53.796  1.00  0.00     0.008 C 
HETATM    9  C17 UNL     1      18.830  -0.704  53.012  1.00  0.00     0.034 C 
HETATM   10  C18 UNL     1      18.981  -0.052  51.693  1.00  0.00     0.120 C 
HETATM   11  N4  UNL     1      20.112   0.378  51.183  1.00  0.00    -0.236 NA
ENDROOT
BRANCH   3  12
HETATM   12  N1  UNL     1      23.934   0.596  52.311  1.00  0.00    -0.350 N 
HETATM   13  H8  UNL     1      24.382   1.151  51.570  1.00  0.00     0.166 HD
BRANCH  12  14
HETATM   14  C7  UNL     1      25.303   0.774  52.799  1.00  0.00     0.090 C 
BRANCH  14  15
HETATM   15  C8  UNL     1      26.466   0.356  52.262  1.00  0.00     0.023 C 
BRANCH  15  16
HETATM   16  C9  UNL     1      27.339  -0.703  52.711  1.00  0.00    -0.064 C 
HETATM   17  C10 UNL     1      26.744  -2.047  52.502  1.00  0.00     0.048 C 
BRANCH  16  18
HETATM   18  C11 UNL     1      28.468  -0.371  53.210  1.00  0.00    -0.012 C 
BRANCH  18  19
HETATM   19  C12 UNL     1      29.687   0.109  53.771  1.00  0.00     0.119 C 
BRANCH  19  20
HETATM   20  C13 UNL     1      29.081   1.298  54.034  1.00  0.00     0.365 C 
HETATM   21  F1  UNL     1      28.793   2.622  54.014  1.00  0.00    -0.461 F 
ENDBRANCH  19  20
ENDBRANCH  18  19
ENDBRANCH  16  18
ENDBRANCH  15  16
ENDBRANCH  14  15
ENDBRANCH  12  14
ENDBRANCH   3  12
BRANCH   1  22
HETATM   22  O2  UNL     1      22.322   0.968  51.020  1.00  0.00    -0.332 OA
BRANCH  22  23
HETATM   23  C3  UNL     1      21.887   1.692  49.863  1.00  0.00     0.203 C 
BRANCH  23  24
HETATM   24  C2  UNL     1      22.769   2.889  49.605  1.00  0.00     0.193 C 
BRANCH  24  25
HETATM   25  O1  UNL     1      24.045   2.733  50.088  1.00  0.00    -0.394 OA
HETATM   26  C1  UNL     1      24.992   3.587  49.582  1.00  0.00     0.201 C 
ENDBRANCH  24  25
ENDBRANCH  23  24
ENDBRANCH  22  23
ENDBRANCH   1  22
TORSDOF 11
ENDMDL
MODEL 4
REMARK VINA RESULT:      -6.9      1.596      2.270
REMARK  11 active torsions:
REMARK  status: ('A' for Active; 'I' for Inactive)
REMARK    1  A    between atoms: O1_2  and  C2_3 
REMARK    2  A    between atoms: C2_3  and  C3_4 
REMARK    3  A    between atoms: C3_4  and  O2_5 
REMARK    4  A    between atoms: O2_5  and  C4_6 
REMARK    5  A    between atoms: C6_8  and  N1_9 
REMARK    6  A    between atoms: N1_9  and  C7_10 
REMARK    7  A    between atoms: C7_10  and  C8_11 
REMARK    8  A    between atoms: C8_11  and  C9_12 
REMARK    9  A    between atoms: C9_12  and  C11_14 
REMARK   10  A    between atoms: C11_14  and  C12_15 
REMARK   11  A    between atoms: C12_15  and  C13_16 
ROOT
HETATM    1  C4  UNL     1      24.180   0.117  53.439  1.00  0.00     0.180 C 
HETATM    2  C5  UNL     1      23.324   0.916  52.846  1.00  0.00     0.092 A 
HETATM    3  C6  UNL     1      23.914   1.720  51.896  1.00  0.00     0.145 A 
HETATM    4  N2  UNL     1      23.187   2.584  51.218  1.00  0.00    -0.223 NA
HETATM    5  C14 UNL     1      21.873   2.715  51.418  1.00  0.00     0.236 A 
HETATM    6  N3  UNL     1      21.315   1.931  52.340  1.00  0.00    -0.240 NA
HETATM    7  C15 UNL     1      21.972   1.033  53.069  1.00  0.00     0.087 A 
HETATM    8  C16 UNL     1      21.146   0.422  53.887  1.00  0.00     0.008 C 
HETATM    9  C17 UNL     1      21.465  -0.665  54.526  1.00  0.00     0.034 C 
HETATM   10  C18 UNL     1      22.770  -1.209  54.959  1.00  0.00     0.120 C 
HETATM   11  N4  UNL     1      23.939  -0.857  54.475  1.00  0.00    -0.236 NA
ENDROOT
BRANCH   3  12
HETATM   12  N1  UNL     1      25.311   1.591  51.639  1.00  0.00    -0.350 N 
HETATM   13  H8  UNL     1      26.295   1.324  51.499  1.00  0.00     0.166 HD
BRANCH  12  14
HETATM   14  C7  UNL     1      25.939   2.830  51.175  1.00  0.00     0.090 C 
BRANCH  14  15
HETATM   15  C8  UNL     1      26.429   3.140  49.957  1.00  0.00     0.023 C 
BRANCH  15  16
HETATM   16  C9  UNL     1      26.333   4.386  49.235  1.00  0.00    -0.064 C 
HETATM   17  C10 UNL     1      27.638   4.808  48.670  1.00  0.00     0.048 C 
BRANCH  16  18
HETATM   18  C11 UNL     1      25.188   4.949  49.171  1.00  0.00    -0.012 C 
BRANCH  18  19
HETATM   19  C12 UNL     1      23.868   5.478  49.053  1.00  0.00     0.119 C 
BRANCH  19  20
HETATM   20  C13 UNL     1      23.996   6.030  50.290  1.00  0.00     0.365 C 
HETATM   21  F1  UNL     1      24.525   6.679  51.355  1.00  0.00    -0.461 F 
ENDBRANCH  19  20
ENDBRANCH  18  19
ENDBRANCH  16  18
ENDBRANCH  15  16
ENDBRANCH  14  15
ENDBRANCH  12  14
ENDBRANCH   3  12
BRANCH   1  22
HETATM   22  O2  UNL     1      25.509   0.115  53.116  1.00  0.00    -0.332 OA
BRANCH  22  23
HETATM   23  C3  UNL     1      26.454  -0.562  53.954  1.00  0.00     0.203 C 
BRANCH  23  24
HETATM   24  C2  UNL     1      27.322   0.419  54.704  1.00  0.00     0.193 C 
BRANCH  24  25
HETATM   25  O1  UNL     1      27.324   1.673  54.143  1.00  0.00    -0.394 OA
HETATM   26  C1  UNL     1      28.532   2.122  53.672  1.00  0.00     0.201 C 
ENDBRANCH  24  25
ENDBRANCH  23  24
ENDBRANCH  22  23
ENDBRANCH   1  22
TORSDOF 11
ENDMDL
MODEL 5
REMARK VINA RESULT:      -6.9      2.205      4.416
REMARK  11 active torsions:
REMARK  status: ('A' for Active; 'I' for Inactive)
REMARK    1  A    between atoms: O1_2  and  C2_3 
REMARK    2  A    between atoms: C2_3  and  C3_4 
REMARK    3  A    between atoms: C3_4  and  O2_5 
REMARK    4  A    between atoms: O2_5  and  C4_6 
REMARK    5  A    between atoms: C6_8  and  N1_9 
REMARK    6  A    between atoms: N1_9  and  C7_10 
REMARK    7  A    between atoms: C7_10  and  C8_11 
REMARK    8  A    between atoms: C8_11  and  C9_12 
REMARK    9  A    between atoms: C9_12  and  C11_14 
REMARK   10  A    between atoms: C11_14  and  C12_15 
REMARK   11  A    between atoms: C12_15  and  C13_16 
ROOT
HETATM    1  C4  UNL     1      23.545   0.438  52.993  1.00  0.00     0.180 C 
HETATM    2  C5  UNL     1      24.768   0.255  53.433  1.00  0.00     0.092 A 
HETATM    3  C6  UNL     1      25.707   0.953  52.708  1.00  0.00     0.145 A 
HETATM    4  N2  UNL     1      26.983   0.866  53.022  1.00  0.00    -0.223 NA
HETATM    5  C14 UNL     1      27.413   0.113  54.039  1.00  0.00     0.236 A 
HETATM    6  N3  UNL     1      26.493  -0.556  54.733  1.00  0.00    -0.240 NA
HETATM    7  C15 UNL     1      25.187  -0.526  54.485  1.00  0.00     0.087 A 
HETATM    8  C16 UNL     1      24.546  -1.288  55.341  1.00  0.00     0.008 C 
HETATM    9  C17 UNL     1      23.254  -1.247  55.490  1.00  0.00     0.034 C 
HETATM   10  C18 UNL     1      22.166  -0.851  54.571  1.00  0.00     0.120 C 
HETATM   11  N4  UNL     1      22.312  -0.119  53.491  1.00  0.00    -0.236 NA
ENDROOT
BRANCH   3  12
HETATM   12  N1  UNL     1      25.284   1.785  51.629  1.00  0.00    -0.350 N 
HETATM   13  H8  UNL     1      24.811   2.323  50.890  1.00  0.00     0.166 HD
BRANCH  12  14
HETATM   14  C7  UNL     1      26.371   2.551  51.017  1.00  0.00     0.090 C 
BRANCH  14  15
HETATM   15  C8  UNL     1      26.477   3.040  49.765  1.00  0.00     0.023 C 
BRANCH  15  16
HETATM   16  C9  UNL     1      26.393   4.410  49.320  1.00  0.00    -0.064 C 
HETATM   17  C10 UNL     1      27.639   4.859  48.650  1.00  0.00     0.048 C 
BRANCH  16  18
HETATM   18  C11 UNL     1      25.306   5.044  49.544  1.00  0.00    -0.012 C 
BRANCH  18  19
HETATM   19  C12 UNL     1      24.106   5.800  49.689  1.00  0.00     0.119 C 
BRANCH  19  20
HETATM   20  C13 UNL     1      24.060   5.448  51.002  1.00  0.00     0.365 C 
HETATM   21  F1  UNL     1      23.940   4.699  52.124  1.00  0.00    -0.461 F 
ENDBRANCH  19  20
ENDBRANCH  18  19
ENDBRANCH  16  18
ENDBRANCH  15  16
ENDBRANCH  14  15
ENDBRANCH  12  14
ENDBRANCH   3  12
BRANCH   1  22
HETATM   22  O2  UNL     1      23.277   1.246  51.921  1.00  0.00    -0.332 OA
BRANCH  22  23
HETATM   23  C3  UNL     1      21.951   1.745  51.707  1.00  0.00     0.203 C 
BRANCH  23  24
HETATM   24  C2  UNL     1      21.852   2.488  50.397  1.00  0.00     0.193 C 
BRANCH  24  25
HETATM   25  O1  UNL     1      22.963   2.332  49.604  1.00  0.00    -0.394 OA
HETATM   26  C1  UNL     1      22.787   2.567  48.264  1.00  0.00     0.201 C 
ENDBRANCH  24  25
ENDBRANCH  23  24
ENDBRANCH  22  23
ENDBRANCH   1  22
TORSDOF 11
ENDMDL
MODEL 6
REMARK VINA RESULT:      -6.7      2.576      5.432
REMARK  11 active torsions:
REMARK  status: ('A' for Active; 'I' for Inactive)
REMARK    1  A    between atoms: O1_2  and  C2_3 
REMARK    2  A    between atoms: C2_3  and  C3_4 
REMARK    3  A    between atoms: C3_4  and  O2_5 
REMARK    4  A    between atoms: O2_5  and  C4_6 
REMARK    5  A    between atoms: C6_8  and  N1_9 
REMARK    6  A    between atoms: N1_9  and  C7_10 
REMARK    7  A    between atoms: C7_10  and  C8_11 
REMARK    8  A    between atoms: C8_11  and  C9_12 
REMARK    9  A    between atoms: C9_12  and  C11_14 
REMARK   10  A    between atoms: C11_14  and  C12_15 
REMARK   11  A    between atoms: C12_15  and  C13_16 
ROOT
HETATM    1  C4  UNL     1      26.586   1.776  52.529  1.00  0.00     0.180 C 
HETATM    2  C5  UNL     1      26.026   0.859  53.283  1.00  0.00     0.092 A 
HETATM    3  C6  UNL     1      24.731   0.579  52.910  1.00  0.00     0.145 A 
HETATM    4  N2  UNL     1      24.030  -0.315  53.576  1.00  0.00    -0.223 NA
HETATM    5  C14 UNL     1      24.535  -0.977  54.621  1.00  0.00     0.236 A 
HETATM    6  N3  UNL     1      25.790  -0.696  54.971  1.00  0.00    -0.240 NA
HETATM    7  C15 UNL     1      26.568   0.191  54.356  1.00  0.00     0.087 A 
HETATM    8  C16 UNL     1      27.745   0.240  54.936  1.00  0.00     0.008 C 
HETATM    9  C17 UNL     1      28.772   0.825  54.395  1.00  0.00     0.034 C 
HETATM   10  C18 UNL     1      28.878   1.927  53.413  1.00  0.00     0.120 C 
HETATM   11  N4  UNL     1      27.917   2.325  52.612  1.00  0.00    -0.236 NA
ENDROOT
BRANCH   3  12
HETATM   12  N1  UNL     1      24.165   1.248  51.784  1.00  0.00    -0.350 N 
HETATM   13  H8  UNL     1      23.925   1.795  50.946  1.00  0.00     0.166 HD
BRANCH  12  14
HETATM   14  C7  UNL     1      22.743   0.961  51.584  1.00  0.00     0.090 C 
BRANCH  14  15
HETATM   15  C8  UNL     1      21.757   1.771  51.149  1.00  0.00     0.023 C 
BRANCH  15  16
HETATM   16  C9  UNL     1      21.081   2.831  51.857  1.00  0.00    -0.064 C 
HETATM   17  C10 UNL     1      19.755   2.405  52.372  1.00  0.00     0.048 C 
BRANCH  16  18
HETATM   18  C11 UNL     1      21.677   3.957  51.954  1.00  0.00    -0.012 C 
BRANCH  18  19
HETATM   19  C12 UNL     1      22.353   5.212  51.944  1.00  0.00     0.119 C 
BRANCH  19  20
HETATM   20  C13 UNL     1      23.390   4.642  52.616  1.00  0.00     0.365 C 
HETATM   21  F1  UNL     1      24.081   3.927  53.535  1.00  0.00    -0.461 F 
ENDBRANCH  19  20
ENDBRANCH  18  19
ENDBRANCH  16  18
ENDBRANCH  15  16
ENDBRANCH  14  15
ENDBRANCH  12  14
ENDBRANCH   3  12
BRANCH   1  22
HETATM   22  O2  UNL     1      25.917   2.365  51.491  1.00  0.00    -0.332 OA
BRANCH  22  23
HETATM   23  C3  UNL     1      26.625   3.168  50.539  1.00  0.00     0.203 C 
BRANCH  23  24
HETATM   24  C2  UNL     1      25.671   3.893  49.620  1.00  0.00     0.193 C 
BRANCH  24  25
HETATM   25  O1  UNL     1      24.458   3.261  49.496  1.00  0.00    -0.394 OA
HETATM   26  C1  UNL     1      23.526   3.892  48.712  1.00  0.00     0.201 C 
ENDBRANCH  24  25
ENDBRANCH  23  24
ENDBRANCH  22  23
ENDBRANCH   1  22
TORSDOF 11
ENDMDL
MODEL 7
REMARK VINA RESULT:      -6.6      3.095      6.486
REMARK  11 active torsions:
REMARK  status: ('A' for Active; 'I' for Inactive)
REMARK    1  A    between atoms: O1_2  and  C2_3 
REMARK    2  A    between atoms: C2_3  and  C3_4 
REMARK    3  A    between atoms: C3_4  and  O2_5 
REMARK    4  A    between atoms: O2_5  and  C4_6 
REMARK    5  A    between atoms: C6_8  and  N1_9 
REMARK    6  A    between atoms: N1_9  and  C7_10 
REMARK    7  A    between atoms: C7_10  and  C8_11 
REMARK    8  A    between atoms: C8_11  and  C9_12 
REMARK    9  A    between atoms: C9_12  and  C11_14 
REMARK   10  A    between atoms: C11_14  and  C12_15 
REMARK   11  A    between atoms: C12_15  and  C13_16 
ROOT
HETATM    1  C4  UNL     1      26.597   1.794  52.499  1.00  0.00     0.180 C 
HETATM    2  C5  UNL     1      26.011   0.882  53.239  1.00  0.00     0.092 A 
HETATM    3  C6  UNL     1      24.721   0.616  52.838  1.00  0.00     0.145 A 
HETATM    4  N2  UNL     1      23.997  -0.272  53.486  1.00  0.00    -0.223 NA
HETATM    5  C14 UNL     1      24.473  -0.941  54.541  1.00  0.00     0.236 A 
HETATM    6  N3  UNL     1      25.722  -0.674  54.919  1.00  0.00    -0.240 NA
HETATM    7  C15 UNL     1      26.522   0.206  54.322  1.00  0.00     0.087 A 
HETATM    8  C16 UNL     1      27.687   0.241  54.928  1.00  0.00     0.008 C 
HETATM    9  C17 UNL     1      28.732   0.817  54.410  1.00  0.00     0.034 C 
HETATM   10  C18 UNL     1      28.870   1.919  53.433  1.00  0.00     0.120 C 
HETATM   11  N4  UNL     1      27.931   2.329  52.611  1.00  0.00    -0.236 NA
ENDROOT
BRANCH   3  12
HETATM   12  N1  UNL     1      24.187   1.293  51.701  1.00  0.00    -0.350 N 
HETATM   13  H8  UNL     1      23.975   1.823  50.845  1.00  0.00     0.166 HD
BRANCH  12  14
HETATM   14  C7  UNL     1      22.732   1.176  51.579  1.00  0.00     0.090 C 
BRANCH  14  15
HETATM   15  C8  UNL     1      21.775   2.092  51.826  1.00  0.00     0.023 C 
BRANCH  15  16
HETATM   16  C9  UNL     1      20.389   1.880  52.170  1.00  0.00    -0.064 C 
HETATM   17  C10 UNL     1      19.563   3.093  51.945  1.00  0.00     0.048 C 
BRANCH  16  18
HETATM   18  C11 UNL     1      20.053   0.726  52.604  1.00  0.00    -0.012 C 
BRANCH  18  19
HETATM   19  C12 UNL     1      19.609  -0.507  53.165  1.00  0.00     0.119 C 
BRANCH  19  20
HETATM   20  C13 UNL     1      20.476  -0.332  54.198  1.00  0.00     0.365 C 
HETATM   21  F1  UNL     1      21.209   0.265  55.169  1.00  0.00    -0.461 F 
ENDBRANCH  19  20
ENDBRANCH  18  19
ENDBRANCH  16  18
ENDBRANCH  15  16
ENDBRANCH  14  15
ENDBRANCH  12  14
ENDBRANCH   3  12
BRANCH   1  22
HETATM   22  O2  UNL     1      25.956   2.391  51.448  1.00  0.00    -0.332 OA
BRANCH  22  23
HETATM   23  C3  UNL     1      26.701   3.146  50.484  1.00  0.00     0.203 C 
BRANCH  23  24
HETATM   24  C2  UNL     1      25.783   3.931  49.579  1.00  0.00     0.193 C 
BRANCH  24  25
HETATM   25  O1  UNL     1      24.483   3.488  49.614  1.00  0.00    -0.394 OA
HETATM   26  C1  UNL     1      23.515   4.459  49.655  1.00  0.00     0.201 C 
ENDBRANCH  24  25
ENDBRANCH  23  24
ENDBRANCH  22  23
ENDBRANCH   1  22
TORSDOF 11
ENDMDL
MODEL 8
REMARK VINA RESULT:      -6.6      3.329      6.076
REMARK  11 active torsions:
REMARK  status: ('A' for Active; 'I' for Inactive)
REMARK    1  A    between atoms: O1_2  and  C2_3 
REMARK    2  A    between atoms: C2_3  and  C3_4 
REMARK    3  A    between atoms: C3_4  and  O2_5 
REMARK    4  A    between atoms: O2_5  and  C4_6 
REMARK    5  A    between atoms: C6_8  and  N1_9 
REMARK    6  A    between atoms: N1_9  and  C7_10 
REMARK    7  A    between atoms: C7_10  and  C8_11 
REMARK    8  A    between atoms: C8_11  and  C9_12 
REMARK    9  A    between atoms: C9_12  and  C11_14 
REMARK   10  A    between atoms: C11_14  and  C12_15 
REMARK   11  A    between atoms: C12_15  and  C13_16 
ROOT
HETATM    1  C4  UNL     1      23.667   2.612  50.291  1.00  0.00     0.180 C 
HETATM    2  C5  UNL     1      23.054   1.797  51.117  1.00  0.00     0.092 A 
HETATM    3  C6  UNL     1      23.582   1.826  52.388  1.00  0.00     0.145 A 
HETATM    4  N2  UNL     1      23.080   1.057  53.330  1.00  0.00    -0.223 NA
HETATM    5  C14 UNL     1      22.055   0.231  53.099  1.00  0.00     0.236 A 
HETATM    6  N3  UNL     1      21.553   0.213  51.866  1.00  0.00    -0.240 NA
HETATM    7  C15 UNL     1      21.998   0.955  50.856  1.00  0.00     0.087 A 
HETATM    8  C16 UNL     1      21.299   0.710  49.771  1.00  0.00     0.008 C 
HETATM    9  C17 UNL     1      21.349   1.468  48.715  1.00  0.00     0.034 C 
HETATM   10  C18 UNL     1      22.401   2.367  48.194  1.00  0.00     0.120 C 
HETATM   11  N4  UNL     1      23.400   2.854  48.894  1.00  0.00    -0.236 NA
ENDROOT
BRANCH   3  12
HETATM   12  N1  UNL     1      24.663   2.712  52.677  1.00  0.00    -0.350 N 
HETATM   13  H8  UNL     1      25.348   3.472  52.786  1.00  0.00     0.166 HD
BRANCH  12  14
HETATM   14  C7  UNL     1      25.685   2.127  53.547  1.00  0.00     0.090 C 
BRANCH  14  15
HETATM   15  C8  UNL     1      26.917   1.675  53.238  1.00  0.00     0.023 C 
BRANCH  15  16
HETATM   16  C9  UNL     1      27.342   0.321  52.974  1.00  0.00    -0.064 C 
HETATM   17  C10 UNL     1      26.304  -0.464  52.259  1.00  0.00     0.048 C 
BRANCH  16  18
HETATM   18  C11 UNL     1      28.507  -0.024  53.369  1.00  0.00    -0.012 C 
BRANCH  18  19
HETATM   19  C12 UNL     1      29.851  -0.320  53.745  1.00  0.00     0.119 C 
BRANCH  19  20
HETATM   20  C13 UNL     1      29.659  -1.611  53.361  1.00  0.00     0.365 C 
HETATM   21  F1  UNL     1      29.117  -2.847  53.251  1.00  0.00    -0.461 F 
ENDBRANCH  19  20
ENDBRANCH  18  19
ENDBRANCH  16  18
ENDBRANCH  15  16
ENDBRANCH  14  15
ENDBRANCH  12  14
ENDBRANCH   3  12
BRANCH   1  22
HETATM   22  O2  UNL     1      24.717   3.391  50.693  1.00  0.00    -0.332 OA
BRANCH  22  23
HETATM   23  C3  UNL     1      25.386   4.242  49.753  1.00  0.00     0.203 C 
BRANCH  23  24
HETATM   24  C2  UNL     1      26.846   3.881  49.632  1.00  0.00     0.193 C 
BRANCH  24  25
HETATM   25  O1  UNL     1      27.478   4.531  48.601  1.00  0.00    -0.394 OA
HETATM   26  C1  UNL     1      27.300   5.890  48.544  1.00  0.00     0.201 C 
ENDBRANCH  24  25
ENDBRANCH  23  24
ENDBRANCH  22  23
ENDBRANCH   1  22
TORSDOF 11
ENDMDL
MODEL 9
REMARK VINA RESULT:      -6.6      2.688      4.856
REMARK  11 active torsions:
REMARK  status: ('A' for Active; 'I' for Inactive)
REMARK    1  A    between atoms: O1_2  and  C2_3 
REMARK    2  A    between atoms: C2_3  and  C3_4 
REMARK    3  A    between atoms: C3_4  and  O2_5 
REMARK    4  A    between atoms: O2_5  and  C4_6 
REMARK    5  A    between atoms: C6_8  and  N1_9 
REMARK    6  A    between atoms: N1_9  and  C7_10 
REMARK    7  A    between atoms: C7_10  and  C8_11 
REMARK    8  A    between atoms: C8_11  and  C9_12 
REMARK    9  A    between atoms: C9_12  and  C11_14 
REMARK   10  A    between atoms: C11_14  and  C12_15 
REMARK   11  A    between atoms: C12_15  and  C13_16 
ROOT
HETATM    1  C4  UNL     1      22.667   1.516  52.642  1.00  0.00     0.180 C 
HETATM    2  C5  UNL     1      23.718   0.791  52.948  1.00  0.00     0.092 A 
HETATM    3  C6  UNL     1      24.871   1.241  52.345  1.00  0.00     0.145 A 
HETATM    4  N2  UNL     1      26.011   0.614  52.548  1.00  0.00    -0.223 NA
HETATM    5  C14 UNL     1      26.097  -0.465  53.332  1.00  0.00     0.236 A 
HETATM    6  N3  UNL     1      24.974  -0.889  53.910  1.00  0.00    -0.240 NA
HETATM    7  C15 UNL     1      23.782  -0.317  53.760  1.00  0.00     0.087 A 
HETATM    8  C16 UNL     1      22.877  -0.967  54.455  1.00  0.00     0.008 C 
HETATM    9  C17 UNL     1      21.692  -0.486  54.693  1.00  0.00     0.034 C 
HETATM   10  C18 UNL     1      20.859   0.494  53.962  1.00  0.00     0.120 C 
HETATM   11  N4  UNL     1      21.301   1.355  53.075  1.00  0.00    -0.236 NA
ENDROOT
BRANCH   3  12
HETATM   12  N1  UNL     1      24.823   2.404  51.519  1.00  0.00    -0.350 N 
HETATM   13  H8  UNL     1      24.609   3.237  50.955  1.00  0.00     0.166 HD
BRANCH  12  14
HETATM   14  C7  UNL     1      26.138   2.846  51.051  1.00  0.00     0.090 C 
BRANCH  14  15
HETATM   15  C8  UNL     1      26.538   3.180  49.807  1.00  0.00     0.023 C 
BRANCH  15  16
HETATM   16  C9  UNL     1      26.457   4.461  49.146  1.00  0.00    -0.064 C 
HETATM   17  C10 UNL     1      27.777   4.919  48.647  1.00  0.00     0.048 C 
BRANCH  16  18
HETATM   18  C11 UNL     1      25.310   5.020  49.072  1.00  0.00    -0.012 C 
BRANCH  18  19
HETATM   19  C12 UNL     1      24.054   5.666  48.876  1.00  0.00     0.119 C 
BRANCH  19  20
HETATM   20  C13 UNL     1      23.480   4.451  48.663  1.00  0.00     0.365 C 
HETATM   21  F1  UNL     1      23.338   3.131  48.396  1.00  0.00    -0.461 F 
ENDBRANCH  19  20
ENDBRANCH  18  19
ENDBRANCH  16  18
ENDBRANCH  15  16
ENDBRANCH  14  15
ENDBRANCH  12  14
ENDBRANCH   3  12
BRANCH   1  22
HETATM   22  O2  UNL     1      22.754   2.596  51.807  1.00  0.00    -0.332 OA
BRANCH  22  23
HETATM   23  C3  UNL     1      21.644   3.491  51.668  1.00  0.00     0.203 C 
BRANCH  23  24
HETATM   24  C2  UNL     1      22.040   4.908  52.004  1.00  0.00     0.193 C 
BRANCH  24  25
HETATM   25  O1  UNL     1      21.370   5.847  51.257  1.00  0.00    -0.394 OA
HETATM   26  C1  UNL     1      20.419   5.365  50.393  1.00  0.00     0.201 C 
ENDBRANCH  24  25
ENDBRANCH  23  24
ENDBRANCH  22  23
ENDBRANCH   1  22
TORSDOF 11
ENDMDL
