MODEL 1
REMARK VINA RESULT:      -7.7      0.000      0.000
REMARK  5 active torsions:
REMARK  status: ('A' for Active; 'I' for Inactive)
REMARK    1  A    between atoms: C3_3  and  N1_4 
REMARK    2  A    between atoms: C7_8  and  O1_9 
REMARK    3  A    between atoms: C8_10  and  O2_11 
REMARK    4  A    between atoms: O2_11  and  C9_12 
REMARK    5  A    between atoms: C9_12  and  C10_13 
ROOT
HETATM    1  N1  UNL     1      22.409   1.009  51.105  1.00  0.00    -0.261 NA
HETATM    2  C4  UNL     1      22.962   2.118  51.470  1.00  0.00     0.072 C 
HETATM    3  C5  UNL     1      23.437   3.491  51.700  1.00  0.00     0.031 C 
HETATM    4  C6  UNL     1      24.048   4.573  52.174  1.00  0.00     0.010 C 
HETATM    5  C7  UNL     1      23.604   5.714  51.302  1.00  0.00     0.179 C 
HETATM    6  C8  UNL     1      24.390   5.726  50.037  1.00  0.00     0.132 C 
HETATM    7  C11 UNL     1      25.301   4.817  49.889  1.00  0.00     0.061 C 
HETATM    8  C12 UNL     1      26.369   4.004  49.356  1.00  0.00    -0.001 C 
HETATM    9  C13 UNL     1      26.781   3.014  50.128  1.00  0.00     0.086 C 
HETATM   10  N2  UNL     1      26.296   2.671  51.405  1.00  0.00    -0.351 N 
HETATM   11  C14 UNL     1      25.428   1.626  51.864  1.00  0.00     0.137 C 
HETATM   12  N3  UNL     1      26.516   0.878  51.881  1.00  0.00    -0.268 NA
HETATM   13  C15 UNL     1      26.607  -0.513  52.267  1.00  0.00     0.181 C 
HETATM   14  C16 UNL     1      25.781  -0.804  53.469  1.00  0.00     0.039 C 
HETATM   15  C17 UNL     1      24.572  -0.485  53.944  1.00  0.00     0.137 C 
HETATM   16  F1  UNL     1      23.912  -0.818  55.072  1.00  0.00    -0.205 F 
HETATM   17  C18 UNL     1      23.747   0.412  53.096  1.00  0.00     0.088 C 
HETATM   18 CL2  UNL     1      21.997   0.373  53.138  1.00  0.00    -0.080 Cl
HETATM   19  C19 UNL     1      23.996   1.332  52.209  1.00  0.00     0.063 C 
HETATM   20  H17 UNL     1      26.635   3.298  52.199  1.00  0.00     0.166 HD
ENDROOT
BRANCH   1  21
HETATM   21  C3  UNL     1      21.434   1.159  50.053  1.00  0.00     0.113 C 
HETATM   22  C2  UNL     1      21.148   2.150  49.245  1.00  0.00    -0.012 C 
HETATM   23  C1  UNL     1      20.210   2.481  48.135  1.00  0.00     0.037 C 
ENDBRANCH   1  21
BRANCH   5  24
HETATM   24  O1  UNL     1      23.758   6.921  51.928  1.00  0.00    -0.389 OA
HETATM   25  H9  UNL     1      23.461   7.672  51.386  1.00  0.00     0.210 HD
ENDBRANCH   5  24
BRANCH   6  26
HETATM   26  O2  UNL     1      23.869   6.816  49.307  1.00  0.00    -0.372 OA
BRANCH  26  27
HETATM   27  C9  UNL     1      24.371   7.032  48.025  1.00  0.00     0.184 C 
BRANCH  27  28
HETATM   28  C10 UNL     1      25.524   8.011  48.003  1.00  0.00     0.141 C 
HETATM   29 CL1  UNL     1      27.077   7.206  47.743  1.00  0.00    -0.128 Cl
ENDBRANCH  27  28
ENDBRANCH  26  27
ENDBRANCH   6  26
TORSDOF 5
ENDMDL
MODEL 2
REMARK VINA RESULT:      -7.7      1.470      1.517
REMARK  5 active torsions:
REMARK  status: ('A' for Active; 'I' for Inactive)
REMARK    1  A    between atoms: C3_3  and  N1_4 
REMARK    2  A    between atoms: C7_8  and  O1_9 
REMARK    3  A    between atoms: C8_10  and  O2_11 
REMARK    4  A    between atoms: O2_11  and  C9_12 
REMARK    5  A    between atoms: C9_12  and  C10_13 
ROOT
HETATM    1  N1  UNL     1      22.500   0.803  51.337  1.00  0.00    -0.261 NA
HETATM    2  C4  UNL     1      23.017   1.946  51.642  1.00  0.00     0.072 C 
HETATM    3  C5  UNL     1      23.436   3.347  51.810  1.00  0.00     0.031 C 
HETATM    4  C6  UNL     1      24.018   4.469  52.222  1.00  0.00     0.010 C 
HETATM    5  C7  UNL     1      23.475   5.562  51.345  1.00  0.00     0.179 C 
HETATM    6  C8  UNL     1      24.192   5.574  50.040  1.00  0.00     0.132 C 
HETATM    7  C11 UNL     1      25.138   4.705  49.868  1.00  0.00     0.061 C 
HETATM    8  C12 UNL     1      26.214   3.929  49.300  1.00  0.00    -0.001 C 
HETATM    9  C13 UNL     1      26.713   2.982  50.076  1.00  0.00     0.086 C 
HETATM   10  N2  UNL     1      26.313   2.654  51.385  1.00  0.00    -0.351 N 
HETATM   11  C14 UNL     1      25.521   1.583  51.918  1.00  0.00     0.137 C 
HETATM   12  N3  UNL     1      26.643   0.888  51.897  1.00  0.00    -0.268 NA
HETATM   13  C15 UNL     1      26.822  -0.485  52.314  1.00  0.00     0.181 C 
HETATM   14  C16 UNL     1      26.074  -0.781  53.565  1.00  0.00     0.039 C 
HETATM   15  C17 UNL     1      24.878  -0.505  54.095  1.00  0.00     0.137 C 
HETATM   16  F1  UNL     1      24.294  -0.835  55.266  1.00  0.00    -0.205 F 
HETATM   17  C18 UNL     1      23.967   0.328  53.269  1.00  0.00     0.088 C 
HETATM   18 CL2  UNL     1      22.226   0.208  53.405  1.00  0.00    -0.080 Cl
HETATM   19  C19 UNL     1      24.125   1.232  52.345  1.00  0.00     0.063 C 
HETATM   20  H17 UNL     1      26.662   3.319  52.143  1.00  0.00     0.166 HD
ENDROOT
BRANCH   1  21
HETATM   21  C3  UNL     1      21.466   0.877  50.334  1.00  0.00     0.113 C 
HETATM   22  C2  UNL     1      20.369   1.585  50.244  1.00  0.00    -0.012 C 
HETATM   23  C1  UNL     1      19.217   1.791  49.320  1.00  0.00     0.037 C 
ENDBRANCH   1  21
BRANCH   5  24
HETATM   24  O1  UNL     1      23.603   6.793  51.929  1.00  0.00    -0.389 OA
HETATM   25  H9  UNL     1      24.347   6.842  52.554  1.00  0.00     0.210 HD
ENDBRANCH   5  24
BRANCH   6  26
HETATM   26  O2  UNL     1      23.582   6.617  49.310  1.00  0.00    -0.372 OA
BRANCH  26  27
HETATM   27  C9  UNL     1      22.371   6.340  48.680  1.00  0.00     0.184 C 
BRANCH  27  28
HETATM   28  C10 UNL     1      22.533   5.477  47.448  1.00  0.00     0.141 C 
HETATM   29 CL1  UNL     1      22.231   3.767  47.787  1.00  0.00    -0.128 Cl
ENDBRANCH  27  28
ENDBRANCH  26  27
ENDBRANCH   6  26
TORSDOF 5
ENDMDL
MODEL 3
REMARK VINA RESULT:      -7.1      3.281      5.465
REMARK  5 active torsions:
REMARK  status: ('A' for Active; 'I' for Inactive)
REMARK    1  A    between atoms: C3_3  and  N1_4 
REMARK    2  A    between atoms: C7_8  and  O1_9 
REMARK    3  A    between atoms: C8_10  and  O2_11 
REMARK    4  A    between atoms: O2_11  and  C9_12 
REMARK    5  A    between atoms: C9_12  and  C10_13 
ROOT
HETATM    1  N1  UNL     1      24.243   3.162  52.252  1.00  0.00    -0.261 NA
HETATM    2  C4  UNL     1      23.382   2.368  51.708  1.00  0.00     0.072 C 
HETATM    3  C5  UNL     1      22.254   1.682  51.058  1.00  0.00     0.031 C 
HETATM    4  C6  UNL     1      21.457   0.781  50.492  1.00  0.00     0.010 C 
HETATM    5  C7  UNL     1      20.182   1.505  50.163  1.00  0.00     0.179 C 
HETATM    6  C8  UNL     1      19.329   1.614  51.379  1.00  0.00     0.132 C 
HETATM    7  C11 UNL     1      19.774   1.083  52.474  1.00  0.00     0.061 C 
HETATM    8  C12 UNL     1      19.904   0.640  53.841  1.00  0.00    -0.001 C 
HETATM    9  C13 UNL     1      21.012  -0.020  54.131  1.00  0.00     0.086 C 
HETATM   10  N2  UNL     1      22.069  -0.336  53.256  1.00  0.00    -0.351 N 
HETATM   11  C14 UNL     1      23.379   0.221  53.076  1.00  0.00     0.137 C 
HETATM   12  N3  UNL     1      23.733  -0.568  54.073  1.00  0.00    -0.268 NA
HETATM   13  C15 UNL     1      25.052  -0.694  54.654  1.00  0.00     0.181 C 
HETATM   14  C16 UNL     1      26.112  -0.698  53.612  1.00  0.00     0.039 C 
HETATM   15  C17 UNL     1      26.393  -0.047  52.478  1.00  0.00     0.137 C 
HETATM   16  F1  UNL     1      27.408  -0.137  51.595  1.00  0.00    -0.205 F 
HETATM   17  C18 UNL     1      25.424   0.999  52.063  1.00  0.00     0.088 C 
HETATM   18 CL2  UNL     1      25.911   2.382  51.105  1.00  0.00    -0.080 Cl
HETATM   19  C19 UNL     1      24.151   1.204  52.244  1.00  0.00     0.063 C 
HETATM   20  H17 UNL     1      21.878  -1.149  52.593  1.00  0.00     0.166 HD
ENDROOT
BRANCH   1  21
HETATM   21  C3  UNL     1      23.820   4.541  52.299  1.00  0.00     0.113 C 
HETATM   22  C2  UNL     1      23.626   5.439  51.366  1.00  0.00    -0.012 C 
HETATM   23  C1  UNL     1      23.205   6.862  51.225  1.00  0.00     0.037 C 
ENDBRANCH   1  21
BRANCH   5  24
HETATM   24  O1  UNL     1      19.473   0.865  49.183  1.00  0.00    -0.389 OA
HETATM   25  H9  UNL     1      19.547   1.300  48.315  1.00  0.00     0.210 HD
ENDBRANCH   5  24
BRANCH   6  26
HETATM   26  O2  UNL     1      18.187   2.323  50.947  1.00  0.00    -0.372 OA
BRANCH  26  27
HETATM   27  C9  UNL     1      18.032   3.632  51.400  1.00  0.00     0.184 C 
BRANCH  27  28
HETATM   28  C10 UNL     1      18.341   4.662  50.336  1.00  0.00     0.141 C 
HETATM   29 CL1  UNL     1      20.052   5.109  50.318  1.00  0.00    -0.128 Cl
ENDBRANCH  27  28
ENDBRANCH  26  27
ENDBRANCH   6  26
TORSDOF 5
ENDMDL
MODEL 4
REMARK VINA RESULT:      -7.1      9.128     11.831
REMARK  5 active torsions:
REMARK  status: ('A' for Active; 'I' for Inactive)
REMARK    1  A    between atoms: C3_3  and  N1_4 
REMARK    2  A    between atoms: C7_8  and  O1_9 
REMARK    3  A    between atoms: C8_10  and  O2_11 
REMARK    4  A    between atoms: O2_11  and  C9_12 
REMARK    5  A    between atoms: C9_12  and  C10_13 
ROOT
HETATM    1  N1  UNL     1      32.598   9.527  46.077  1.00  0.00    -0.261 NA
HETATM    2  C4  UNL     1      32.979   8.731  47.020  1.00  0.00     0.072 C 
HETATM    3  C5  UNL     1      33.568   7.716  47.907  1.00  0.00     0.031 C 
HETATM    4  C6  UNL     1      33.907   6.973  48.957  1.00  0.00     0.010 C 
HETATM    5  C7  UNL     1      34.834   5.913  48.431  1.00  0.00     0.179 C 
HETATM    6  C8  UNL     1      34.050   4.813  47.804  1.00  0.00     0.132 C 
HETATM    7  C11 UNL     1      32.758   4.914  47.820  1.00  0.00     0.061 C 
HETATM    8  C12 UNL     1      31.349   4.657  47.636  1.00  0.00    -0.001 C 
HETATM    9  C13 UNL     1      30.528   5.573  48.118  1.00  0.00     0.086 C 
HETATM   10  N2  UNL     1      30.876   6.761  48.788  1.00  0.00    -0.351 N 
HETATM   11  C14 UNL     1      30.908   8.135  48.374  1.00  0.00     0.137 C 
HETATM   12  N3  UNL     1      29.620   8.139  48.664  1.00  0.00    -0.268 NA
HETATM   13  C15 UNL     1      28.706   9.254  48.542  1.00  0.00     0.181 C 
HETATM   14  C16 UNL     1      29.327  10.524  49.001  1.00  0.00     0.039 C 
HETATM   15  C17 UNL     1      30.506  11.147  48.900  1.00  0.00     0.137 C 
HETATM   16  F1  UNL     1      30.965  12.325  49.369  1.00  0.00    -0.205 F 
HETATM   17  C18 UNL     1      31.558  10.443  48.124  1.00  0.00     0.088 C 
HETATM   18 CL2  UNL     1      32.828  11.312  47.289  1.00  0.00    -0.080 Cl
HETATM   19  C19 UNL     1      31.827   9.199  47.849  1.00  0.00     0.063 C 
HETATM   20  H17 UNL     1      31.171   6.636  49.806  1.00  0.00     0.166 HD
ENDROOT
BRANCH   1  21
HETATM   21  C3  UNL     1      33.236   9.279  44.807  1.00  0.00     0.113 C 
HETATM   22  C2  UNL     1      33.783   8.210  44.285  1.00  0.00    -0.012 C 
HETATM   23  C1  UNL     1      34.468   7.776  43.034  1.00  0.00     0.037 C 
ENDBRANCH   1  21
BRANCH   5  24
HETATM   24  O1  UNL     1      35.618   5.387  49.422  1.00  0.00    -0.389 OA
HETATM   25  H9  UNL     1      35.458   5.795  50.290  1.00  0.00     0.210 HD
ENDBRANCH   5  24
BRANCH   6  26
HETATM   26  O2  UNL     1      35.024   3.905  47.338  1.00  0.00    -0.372 OA
BRANCH  26  27
HETATM   27  C9  UNL     1      34.780   3.266  46.123  1.00  0.00     0.184 C 
BRANCH  27  28
HETATM   28  C10 UNL     1      34.873   4.201  44.938  1.00  0.00     0.141 C 
HETATM   29 CL1  UNL     1      33.286   4.547  44.236  1.00  0.00    -0.128 Cl
ENDBRANCH  27  28
ENDBRANCH  26  27
ENDBRANCH   6  26
TORSDOF 5
ENDMDL
MODEL 5
REMARK VINA RESULT:      -6.9      8.262     11.118
REMARK  5 active torsions:
REMARK  status: ('A' for Active; 'I' for Inactive)
REMARK    1  A    between atoms: C3_3  and  N1_4 
REMARK    2  A    between atoms: C7_8  and  O1_9 
REMARK    3  A    between atoms: C8_10  and  O2_11 
REMARK    4  A    between atoms: O2_11  and  C9_12 
REMARK    5  A    between atoms: C9_12  and  C10_13 
ROOT
HETATM    1  N1  UNL     1      31.308   9.896  45.989  1.00  0.00    -0.261 NA
HETATM    2  C4  UNL     1      31.499   9.122  47.005  1.00  0.00     0.072 C 
HETATM    3  C5  UNL     1      31.826   8.076  47.987  1.00  0.00     0.031 C 
HETATM    4  C6  UNL     1      31.996   7.376  49.104  1.00  0.00     0.010 C 
HETATM    5  C7  UNL     1      32.564   6.051  48.680  1.00  0.00     0.179 C 
HETATM    6  C8  UNL     1      31.474   5.160  48.193  1.00  0.00     0.132 C 
HETATM    7  C11 UNL     1      30.264   5.622  48.223  1.00  0.00     0.061 C 
HETATM    8  C12 UNL     1      28.832   5.756  48.096  1.00  0.00    -0.001 C 
HETATM    9  C13 UNL     1      28.323   6.910  48.491  1.00  0.00     0.086 C 
HETATM   10  N2  UNL     1      29.021   8.013  49.020  1.00  0.00    -0.351 N 
HETATM   11  C14 UNL     1      29.414   9.273  48.457  1.00  0.00     0.137 C 
HETATM   12  N3  UNL     1      28.194   9.669  48.769  1.00  0.00    -0.268 NA
HETATM   13  C15 UNL     1      27.622  10.978  48.544  1.00  0.00     0.181 C 
HETATM   14  C16 UNL     1      28.594  12.062  48.849  1.00  0.00     0.039 C 
HETATM   15  C17 UNL     1      29.893  12.313  48.658  1.00  0.00     0.137 C 
HETATM   16  F1  UNL     1      30.685  13.355  48.985  1.00  0.00    -0.205 F 
HETATM   17  C18 UNL     1      30.668  11.267  47.943  1.00  0.00     0.088 C 
HETATM   18 CL2  UNL     1      32.086  11.655  46.992  1.00  0.00    -0.080 Cl
HETATM   19  C19 UNL     1      30.566   9.977  47.800  1.00  0.00     0.063 C 
HETATM   20  H17 UNL     1      29.320   7.911  50.039  1.00  0.00     0.166 HD
ENDROOT
BRANCH   1  21
HETATM   21  C3  UNL     1      31.789   9.352  44.741  1.00  0.00     0.113 C 
HETATM   22  C2  UNL     1      31.947   8.125  44.313  1.00  0.00    -0.012 C 
HETATM   23  C1  UNL     1      32.413   7.393  43.100  1.00  0.00     0.037 C 
ENDBRANCH   1  21
BRANCH   5  24
HETATM   24  O1  UNL     1      33.218   5.426  49.707  1.00  0.00    -0.389 OA
HETATM   25  H9  UNL     1      33.649   6.049  50.318  1.00  0.00     0.210 HD
ENDBRANCH   5  24
BRANCH   6  26
HETATM   26  O2  UNL     1      32.132   3.972  47.810  1.00  0.00    -0.372 OA
BRANCH  26  27
HETATM   27  C9  UNL     1      31.935   3.518  46.507  1.00  0.00     0.184 C 
BRANCH  27  28
HETATM   28  C10 UNL     1      32.884   4.150  45.514  1.00  0.00     0.141 C 
HETATM   29 CL1  UNL     1      34.509   4.358  46.183  1.00  0.00    -0.128 Cl
ENDBRANCH  27  28
ENDBRANCH  26  27
ENDBRANCH   6  26
TORSDOF 5
ENDMDL
MODEL 6
REMARK VINA RESULT:      -6.9      3.271      4.718
REMARK  5 active torsions:
REMARK  status: ('A' for Active; 'I' for Inactive)
REMARK    1  A    between atoms: C3_3  and  N1_4 
REMARK    2  A    between atoms: C7_8  and  O1_9 
REMARK    3  A    between atoms: C8_10  and  O2_11 
REMARK    4  A    between atoms: O2_11  and  C9_12 
REMARK    5  A    between atoms: C9_12  and  C10_13 
ROOT
HETATM    1  N1  UNL     1      22.405   6.205  48.766  1.00  0.00    -0.261 NA
HETATM    2  C4  UNL     1      23.442   6.630  49.408  1.00  0.00     0.072 C 
HETATM    3  C5  UNL     1      24.645   7.289  49.941  1.00  0.00     0.031 C 
HETATM    4  C6  UNL     1      25.672   7.661  50.698  1.00  0.00     0.010 C 
HETATM    5  C7  UNL     1      26.395   8.725  49.920  1.00  0.00     0.179 C 
HETATM    6  C8  UNL     1      27.274   8.099  48.894  1.00  0.00     0.132 C 
HETATM    7  C11 UNL     1      27.302   6.805  48.837  1.00  0.00     0.061 C 
HETATM    8  C12 UNL     1      27.605   5.445  48.461  1.00  0.00    -0.001 C 
HETATM    9  C13 UNL     1      26.992   4.504  49.158  1.00  0.00     0.086 C 
HETATM   10  N2  UNL     1      26.084   4.684  50.220  1.00  0.00    -0.351 N 
HETATM   11  C14 UNL     1      24.656   4.579  50.303  1.00  0.00     0.137 C 
HETATM   12  N3  UNL     1      24.869   3.288  50.470  1.00  0.00    -0.268 NA
HETATM   13  C15 UNL     1      23.869   2.260  50.661  1.00  0.00     0.181 C 
HETATM   14  C16 UNL     1      22.787   2.712  51.575  1.00  0.00     0.039 C 
HETATM   15  C17 UNL     1      22.065   3.816  51.790  1.00  0.00     0.137 C 
HETATM   16  F1  UNL     1      21.086   4.117  52.669  1.00  0.00    -0.205 F 
HETATM   17  C18 UNL     1      22.356   4.976  50.910  1.00  0.00     0.088 C 
HETATM   18 CL2  UNL     1      21.140   6.176  50.528  1.00  0.00    -0.080 Cl
HETATM   19  C19 UNL     1      23.397   5.396  50.250  1.00  0.00     0.063 C 
HETATM   20  H17 UNL     1      26.529   4.945  51.153  1.00  0.00     0.166 HD
ENDROOT
BRANCH   1  21
HETATM   21  C3  UNL     1      22.137   6.925  47.544  1.00  0.00     0.113 C 
HETATM   22  C2  UNL     1      22.867   7.177  46.487  1.00  0.00    -0.012 C 
HETATM   23  C1  UNL     1      22.768   7.878  45.175  1.00  0.00     0.037 C 
ENDBRANCH   1  21
BRANCH   5  24
HETATM   24  O1  UNL     1      27.160   9.517  50.733  1.00  0.00    -0.389 OA
HETATM   25  H9  UNL     1      27.014  10.467  50.586  1.00  0.00     0.210 HD
ENDBRANCH   5  24
BRANCH   6  26
HETATM   26  O2  UNL     1      27.871   9.191  48.227  1.00  0.00    -0.372 OA
BRANCH  26  27
HETATM   27  C9  UNL     1      29.196   9.048  47.818  1.00  0.00     0.184 C 
BRANCH  27  28
HETATM   28  C10 UNL     1      30.177   9.115  48.967  1.00  0.00     0.141 C 
HETATM   29 CL1  UNL     1      31.055   7.594  49.183  1.00  0.00    -0.128 Cl
ENDBRANCH  27  28
ENDBRANCH  26  27
ENDBRANCH   6  26
TORSDOF 5
ENDMDL
MODEL 7
REMARK VINA RESULT:      -6.6      3.881      6.330
REMARK  5 active torsions:
REMARK  status: ('A' for Active; 'I' for Inactive)
REMARK    1  A    between atoms: C3_3  and  N1_4 
REMARK    2  A    between atoms: C7_8  and  O1_9 
REMARK    3  A    between atoms: C8_10  and  O2_11 
REMARK    4  A    between atoms: O2_11  and  C9_12 
REMARK    5  A    between atoms: C9_12  and  C10_13 
ROOT
HETATM    1  N1  UNL     1      19.731   0.693  52.715  1.00  0.00    -0.261 NA
HETATM    2  C4  UNL     1      20.033   1.060  51.515  1.00  0.00     0.072 C 
HETATM    3  C5  UNL     1      20.627   1.432  50.221  1.00  0.00     0.031 C 
HETATM    4  C6  UNL     1      20.818   1.799  48.957  1.00  0.00     0.010 C 
HETATM    5  C7  UNL     1      22.308   1.859  48.766  1.00  0.00     0.179 C 
HETATM    6  C8  UNL     1      22.841   3.141  49.303  1.00  0.00     0.132 C 
HETATM    7  C11 UNL     1      21.991   3.978  49.810  1.00  0.00     0.061 C 
HETATM    8  C12 UNL     1      21.396   5.136  50.435  1.00  0.00    -0.001 C 
HETATM    9  C13 UNL     1      20.084   5.100  50.585  1.00  0.00     0.086 C 
HETATM   10  N2  UNL     1      19.210   4.064  50.201  1.00  0.00    -0.351 N 
HETATM   11  C14 UNL     1      18.536   3.038  50.943  1.00  0.00     0.137 C 
HETATM   12  N3  UNL     1      17.623   3.961  51.180  1.00  0.00    -0.268 NA
HETATM   13  C15 UNL     1      16.410   3.804  51.953  1.00  0.00     0.181 C 
HETATM   14  C16 UNL     1      15.746   2.503  51.673  1.00  0.00     0.039 C 
HETATM   15  C17 UNL     1      16.101   1.227  51.489  1.00  0.00     0.137 C 
HETATM   16  F1  UNL     1      15.395   0.105  51.237  1.00  0.00    -0.205 F 
HETATM   17  C18 UNL     1      17.553   0.928  51.571  1.00  0.00     0.088 C 
HETATM   18 CL2  UNL     1      18.147  -0.642  52.069  1.00  0.00    -0.080 Cl
HETATM   19  C19 UNL     1      18.648   1.599  51.357  1.00  0.00     0.063 C 
HETATM   20  H17 UNL     1      18.992   4.022  49.157  1.00  0.00     0.166 HD
ENDROOT
BRANCH   1  21
HETATM   21  C3  UNL     1      20.872   0.324  53.519  1.00  0.00     0.113 C 
HETATM   22  C2  UNL     1      21.236  -0.804  54.075  1.00  0.00    -0.012 C 
HETATM   23  C1  UNL     1      22.338  -1.359  54.911  1.00  0.00     0.037 C 
ENDBRANCH   1  21
BRANCH   5  24
HETATM   24  O1  UNL     1      22.654   1.756  47.445  1.00  0.00    -0.389 OA
HETATM   25  H9  UNL     1      23.331   2.403  47.178  1.00  0.00     0.210 HD
ENDBRANCH   5  24
BRANCH   6  26
HETATM   26  O2  UNL     1      24.233   3.066  49.084  1.00  0.00    -0.372 OA
BRANCH  26  27
HETATM   27  C9  UNL     1      25.011   4.140  49.510  1.00  0.00     0.184 C 
BRANCH  27  28
HETATM   28  C10 UNL     1      26.471   3.780  49.675  1.00  0.00     0.141 C 
HETATM   29 CL1  UNL     1      27.521   4.766  48.648  1.00  0.00    -0.128 Cl
ENDBRANCH  27  28
ENDBRANCH  26  27
ENDBRANCH   6  26
TORSDOF 5
ENDMDL
MODEL 8
REMARK VINA RESULT:      -6.5      1.571      1.931
REMARK  5 active torsions:
REMARK  status: ('A' for Active; 'I' for Inactive)
REMARK    1  A    between atoms: C3_3  and  N1_4 
REMARK    2  A    between atoms: C7_8  and  O1_9 
REMARK    3  A    between atoms: C8_10  and  O2_11 
REMARK    4  A    between atoms: O2_11  and  C9_12 
REMARK    5  A    between atoms: C9_12  and  C10_13 
ROOT
HETATM    1  N1  UNL     1      22.365   2.746  49.658  1.00  0.00    -0.261 NA
HETATM    2  C4  UNL     1      22.996   3.768  50.132  1.00  0.00     0.072 C 
HETATM    3  C5  UNL     1      23.623   5.059  50.458  1.00  0.00     0.031 C 
HETATM    4  C6  UNL     1      24.282   6.049  51.052  1.00  0.00     0.010 C 
HETATM    5  C7  UNL     1      24.226   7.212  50.101  1.00  0.00     0.179 C 
HETATM    6  C8  UNL     1      25.259   7.054  49.040  1.00  0.00     0.132 C 
HETATM    7  C11 UNL     1      26.024   6.009  49.099  1.00  0.00     0.061 C 
HETATM    8  C12 UNL     1      27.037   5.021  48.816  1.00  0.00    -0.001 C 
HETATM    9  C13 UNL     1      27.108   4.009  49.662  1.00  0.00     0.086 C 
HETATM   10  N2  UNL     1      26.309   3.793  50.802  1.00  0.00    -0.351 N 
HETATM   11  C14 UNL     1      25.206   2.914  51.062  1.00  0.00     0.137 C 
HETATM   12  N3  UNL     1      26.130   2.007  51.320  1.00  0.00    -0.268 NA
HETATM   13  C15 UNL     1      25.912   0.635  51.720  1.00  0.00     0.181 C 
HETATM   14  C16 UNL     1      24.809   0.520  52.710  1.00  0.00     0.039 C 
HETATM   15  C17 UNL     1      23.593   1.041  52.907  1.00  0.00     0.137 C 
HETATM   16  F1  UNL     1      22.659   0.858  53.863  1.00  0.00    -0.205 F 
HETATM   17  C18 UNL     1      23.126   2.024  51.896  1.00  0.00     0.088 C 
HETATM   18 CL2  UNL     1      21.426   2.259  51.551  1.00  0.00    -0.080 Cl
HETATM   19  C19 UNL     1      23.706   2.859  51.083  1.00  0.00     0.063 C 
HETATM   20  H17 UNL     1      26.564   4.389  51.650  1.00  0.00     0.166 HD
ENDROOT
BRANCH   1  21
HETATM   21  C3  UNL     1      21.678   3.007  48.415  1.00  0.00     0.113 C 
HETATM   22  C2  UNL     1      20.868   3.962  48.036  1.00  0.00    -0.012 C 
HETATM   23  C1  UNL     1      20.088   4.386  46.838  1.00  0.00     0.037 C 
ENDBRANCH   1  21
BRANCH   5  24
HETATM   24  O1  UNL     1      24.432   8.403  50.743  1.00  0.00    -0.389 OA
HETATM   25  H9  UNL     1      24.799   8.294  51.637  1.00  0.00     0.210 HD
ENDBRANCH   5  24
BRANCH   6  26
HETATM   26  O2  UNL     1      25.091   8.183  48.211  1.00  0.00    -0.372 OA
BRANCH  26  27
HETATM   27  C9  UNL     1      24.788   7.959  46.870  1.00  0.00     0.184 C 
BRANCH  27  28
HETATM   28  C10 UNL     1      25.861   8.466  45.932  1.00  0.00     0.141 C 
HETATM   29 CL1  UNL     1      27.487   8.221  46.585  1.00  0.00    -0.128 Cl
ENDBRANCH  27  28
ENDBRANCH  26  27
ENDBRANCH   6  26
TORSDOF 5
ENDMDL
MODEL 9
REMARK VINA RESULT:      -6.5      6.755      9.687
REMARK  5 active torsions:
REMARK  status: ('A' for Active; 'I' for Inactive)
REMARK    1  A    between atoms: C3_3  and  N1_4 
REMARK    2  A    between atoms: C7_8  and  O1_9 
REMARK    3  A    between atoms: C8_10  and  O2_11 
REMARK    4  A    between atoms: O2_11  and  C9_12 
REMARK    5  A    between atoms: C9_12  and  C10_13 
ROOT
HETATM    1  N1  UNL     1      30.373   5.582  47.711  1.00  0.00    -0.261 NA
HETATM    2  C4  UNL     1      30.699   6.814  47.916  1.00  0.00     0.072 C 
HETATM    3  C5  UNL     1      30.837   8.235  48.275  1.00  0.00     0.031 C 
HETATM    4  C6  UNL     1      31.286   9.474  48.451  1.00  0.00     0.010 C 
HETATM    5  C7  UNL     1      30.168  10.228  49.114  1.00  0.00     0.179 C 
HETATM    6  C8  UNL     1      29.165  10.651  48.098  1.00  0.00     0.132 C 
HETATM    7  C11 UNL     1      29.397  10.343  46.861  1.00  0.00     0.061 C 
HETATM    8  C12 UNL     1      29.289  10.200  45.429  1.00  0.00    -0.001 C 
HETATM    9  C13 UNL     1      30.282   9.559  44.836  1.00  0.00     0.086 C 
HETATM   10  N2  UNL     1      31.425   9.007  45.447  1.00  0.00    -0.351 N 
HETATM   11  C14 UNL     1      31.793   7.661  45.779  1.00  0.00     0.137 C 
HETATM   12  N3  UNL     1      32.205   7.580  44.528  1.00  0.00    -0.268 NA
HETATM   13  C15 UNL     1      32.805   6.433  43.883  1.00  0.00     0.181 C 
HETATM   14  C16 UNL     1      33.779   5.750  44.776  1.00  0.00     0.039 C 
HETATM   15  C17 UNL     1      33.868   5.397  46.063  1.00  0.00     0.137 C 
HETATM   16  F1  UNL     1      34.822   4.766  46.777  1.00  0.00    -0.205 F 
HETATM   17  C18 UNL     1      32.710   5.747  46.923  1.00  0.00     0.088 C 
HETATM   18 CL2  UNL     1      32.300   4.812  48.345  1.00  0.00    -0.080 Cl
HETATM   19  C19 UNL     1      31.791   6.669  46.906  1.00  0.00     0.063 C 
HETATM   20  H17 UNL     1      32.176   9.714  45.718  1.00  0.00     0.166 HD
ENDROOT
BRANCH   1  21
HETATM   21  C3  UNL     1      29.092   5.215  48.265  1.00  0.00     0.113 C 
HETATM   22  C2  UNL     1      27.952   5.852  48.356  1.00  0.00    -0.012 C 
HETATM   23  C1  UNL     1      26.569   5.645  48.874  1.00  0.00     0.037 C 
ENDBRANCH   1  21
BRANCH   5  24
HETATM   24  O1  UNL     1      30.624  11.339  49.771  1.00  0.00    -0.389 OA
HETATM   25  H9  UNL     1      29.917  11.831  50.223  1.00  0.00     0.210 HD
ENDBRANCH   5  24
BRANCH   6  26
HETATM   26  O2  UNL     1      28.170  11.322  48.841  1.00  0.00    -0.372 OA
BRANCH  26  27
HETATM   27  C9  UNL     1      26.861  11.263  48.365  1.00  0.00     0.184 C 
BRANCH  27  28
HETATM   28  C10 UNL     1      26.078  10.104  48.942  1.00  0.00     0.141 C 
HETATM   29 CL1  UNL     1      26.953   9.293  50.249  1.00  0.00    -0.128 Cl
ENDBRANCH  27  28
ENDBRANCH  26  27
ENDBRANCH   6  26
TORSDOF 5
ENDMDL
