MODEL 1
REMARK VINA RESULT:      -7.1      0.000      0.000
REMARK  2 active torsions:
REMARK  status: ('A' for Active; 'I' for Inactive)
REMARK    1  A    between atoms: N1_2  and  C2_3 
REMARK    2  A    between atoms: P1_18  and  C14_19 
ROOT
HETATM    1  C2  UNL     1      21.508   4.673  50.168  1.00  0.00     0.152 C 
HETATM    2  C3  UNL     1      20.725   3.580  49.911  1.00  0.00     0.080 C 
HETATM    3  C4  UNL     1      20.241   2.442  50.629  1.00  0.00     0.126 A 
HETATM    4  C5  UNL     1      20.763   1.389  49.843  1.00  0.00     0.017 C 
HETATM    5  C6  UNL     1      21.608   1.231  48.670  1.00  0.00     0.012 C 
HETATM    6  C7  UNL     1      22.398   1.965  47.762  1.00  0.00     0.082 C 
HETATM    7  N2  UNL     1      22.733   3.450  47.692  1.00  0.00    -0.191 NA
HETATM    8  N3  UNL     1      23.147   3.679  48.886  1.00  0.00    -0.174 NA
HETATM    9  C8  UNL     1      22.903   4.147  50.080  1.00  0.00     0.176 C 
HETATM   10  O1  UNL     1      24.148   3.899  50.771  1.00  0.00    -0.335 OA
HETATM   11  C9  UNL     1      25.149   3.096  50.156  1.00  0.00     0.177 C 
HETATM   12  C10 UNL     1      26.015   2.422  51.156  1.00  0.00     0.027 C 
HETATM   13  C11 UNL     1      25.408   1.425  52.065  1.00  0.00     0.008 C 
HETATM   14  C12 UNL     1      24.298   1.997  52.876  1.00  0.00     0.028 C 
HETATM   15  C13 UNL     1      23.107   1.320  52.783  1.00  0.00     0.008 C 
HETATM   16  P1  UNL     1      21.304   0.599  52.866  1.00  0.00    -0.094 P 
HETATM   17  C16 UNL     1      20.374   2.267  52.864  1.00  0.00     0.027 C 
HETATM   18  C17 UNL     1      19.861   3.156  51.884  1.00  0.00     0.161 A 
HETATM   19  F1  UNL     1      20.433   2.044  51.981  1.00  0.00    -0.370 F 
HETATM   20  H9  UNL     1      22.391   3.135  46.816  1.00  0.00     0.154 HD
ENDROOT
BRANCH   1  21
HETATM   21  N1  UNL     1      21.317   5.723  51.105  1.00  0.00    -0.419 NA
HETATM   22  C1  UNL     1      21.609   6.986  50.788  1.00  0.00     0.305 C 
ENDBRANCH   1  21
BRANCH  16  23
HETATM   23  C14 UNL     1      21.240  -0.103  54.574  1.00  0.00     0.034 C 
HETATM   24  C15 UNL     1      22.306  -1.221  54.713  1.00  0.00     0.010 C 
ENDBRANCH  16  23
TORSDOF 2
ENDMDL
MODEL 2
REMARK VINA RESULT:      -6.5      1.870      4.181
REMARK  2 active torsions:
REMARK  status: ('A' for Active; 'I' for Inactive)
REMARK    1  A    between atoms: N1_2  and  C2_3 
REMARK    2  A    between atoms: P1_18  and  C14_19 
ROOT
HETATM    1  C2  UNL     1      24.874   4.337  49.924  1.00  0.00     0.152 C 
HETATM    2  C3  UNL     1      24.493   4.486  51.231  1.00  0.00     0.080 C 
HETATM    3  C4  UNL     1      24.080   3.641  52.307  1.00  0.00     0.126 A 
HETATM    4  C5  UNL     1      22.807   4.184  52.598  1.00  0.00     0.017 C 
HETATM    5  C6  UNL     1      21.930   5.222  52.081  1.00  0.00     0.012 C 
HETATM    6  C7  UNL     1      21.810   6.155  51.030  1.00  0.00     0.082 C 
HETATM    7  N2  UNL     1      22.704   6.437  49.829  1.00  0.00    -0.191 NA
HETATM    8  N3  UNL     1      22.847   5.263  49.330  1.00  0.00    -0.174 NA
HETATM    9  C8  UNL     1      23.583   4.195  49.186  1.00  0.00     0.176 C 
HETATM   10  O1  UNL     1      22.746   3.349  48.365  1.00  0.00    -0.335 OA
HETATM   11  C9  UNL     1      21.393   3.717  48.122  1.00  0.00     0.177 C 
HETATM   12  C10 UNL     1      20.534   2.536  47.855  1.00  0.00     0.027 C 
HETATM   13  C11 UNL     1      20.341   1.540  48.931  1.00  0.00     0.008 C 
HETATM   14  C12 UNL     1      21.626   0.952  49.399  1.00  0.00     0.028 C 
HETATM   15  C13 UNL     1      21.848   1.051  50.751  1.00  0.00     0.008 C 
HETATM   16  P1  UNL     1      22.455   1.032  52.597  1.00  0.00    -0.094 P 
HETATM   17  C16 UNL     1      24.296   1.407  52.252  1.00  0.00     0.027 C 
HETATM   18  C17 UNL     1      25.099   2.568  52.110  1.00  0.00     0.161 A 
HETATM   19  F1  UNL     1      23.920   2.229  52.374  1.00  0.00    -0.370 F 
HETATM   20  H9  UNL     1      22.513   7.279  50.318  1.00  0.00     0.154 HD
ENDROOT
BRANCH   1  21
HETATM   21  N1  UNL     1      25.966   3.613  49.376  1.00  0.00    -0.419 NA
HETATM   22  C1  UNL     1      27.101   4.230  49.047  1.00  0.00     0.305 C 
ENDBRANCH   1  21
BRANCH  16  23
HETATM   23  C14 UNL     1      22.297  -0.754  53.044  1.00  0.00     0.034 C 
HETATM   24  C15 UNL     1      22.043  -0.882  54.569  1.00  0.00     0.010 C 
ENDBRANCH  16  23
TORSDOF 2
ENDMDL
MODEL 3
REMARK VINA RESULT:      -6.4      2.863      5.373
REMARK  2 active torsions:
REMARK  status: ('A' for Active; 'I' for Inactive)
REMARK    1  A    between atoms: N1_2  and  C2_3 
REMARK    2  A    between atoms: P1_18  and  C14_19 
ROOT
HETATM    1  C2  UNL     1      22.475   2.252  50.338  1.00  0.00     0.152 C 
HETATM    2  C3  UNL     1      22.087   3.033  51.393  1.00  0.00     0.080 C 
HETATM    3  C4  UNL     1      21.715   4.396  51.611  1.00  0.00     0.126 A 
HETATM    4  C5  UNL     1      22.676   4.784  52.573  1.00  0.00     0.017 C 
HETATM    5  C6  UNL     1      23.826   4.205  53.247  1.00  0.00     0.012 C 
HETATM    6  C7  UNL     1      24.634   3.049  53.273  1.00  0.00     0.082 C 
HETATM    7  N2  UNL     1      24.601   1.779  52.431  1.00  0.00    -0.191 NA
HETATM    8  N3  UNL     1      24.597   2.259  51.240  1.00  0.00    -0.174 NA
HETATM    9  C8  UNL     1      23.924   2.572  50.166  1.00  0.00     0.176 C 
HETATM   10  O1  UNL     1      24.948   3.118  49.305  1.00  0.00    -0.335 OA
HETATM   11  C9  UNL     1      26.246   3.378  49.828  1.00  0.00     0.177 C 
HETATM   12  C10 UNL     1      26.936   4.465  49.090  1.00  0.00     0.027 C 
HETATM   13  C11 UNL     1      26.363   5.828  49.132  1.00  0.00     0.008 C 
HETATM   14  C12 UNL     1      24.966   5.874  48.619  1.00  0.00     0.028 C 
HETATM   15  C13 UNL     1      24.051   6.426  49.481  1.00  0.00     0.008 C 
HETATM   16  P1  UNL     1      22.530   7.141  50.457  1.00  0.00    -0.094 P 
HETATM   17  C16 UNL     1      21.259   5.816  49.932  1.00  0.00     0.027 C 
HETATM   18  C17 UNL     1      20.838   4.549  50.412  1.00  0.00     0.161 A 
HETATM   19  F1  UNL     1      21.615   5.489  50.706  1.00  0.00    -0.370 F 
HETATM   20  H9  UNL     1      24.605   1.549  53.396  1.00  0.00     0.154 HD
ENDROOT
BRANCH   1  21
HETATM   21  N1  UNL     1      21.780   1.939  49.139  1.00  0.00    -0.419 NA
HETATM   22  C1  UNL     1      20.694   1.164  49.160  1.00  0.00     0.305 C 
ENDBRANCH   1  21
BRANCH  16  23
HETATM   23  C14 UNL     1      22.166   8.698  49.529  1.00  0.00     0.034 C 
HETATM   24  C15 UNL     1      23.422   9.126  48.728  1.00  0.00     0.010 C 
ENDBRANCH  16  23
TORSDOF 2
ENDMDL
MODEL 4
REMARK VINA RESULT:      -6.2     10.653     13.406
REMARK  2 active torsions:
REMARK  status: ('A' for Active; 'I' for Inactive)
REMARK    1  A    between atoms: N1_2  and  C2_3 
REMARK    2  A    between atoms: P1_18  and  C14_19 
ROOT
HETATM    1  C2  UNL     1      31.462   5.760  47.954  1.00  0.00     0.152 C 
HETATM    2  C3  UNL     1      32.243   6.649  48.642  1.00  0.00     0.080 C 
HETATM    3  C4  UNL     1      32.707   7.991  48.474  1.00  0.00     0.126 A 
HETATM    4  C5  UNL     1      34.107   7.795  48.509  1.00  0.00     0.017 C 
HETATM    5  C6  UNL     1      35.042   6.686  48.606  1.00  0.00     0.012 C 
HETATM    6  C7  UNL     1      35.097   5.277  48.636  1.00  0.00     0.082 C 
HETATM    7  N2  UNL     1      34.000   4.225  48.526  1.00  0.00    -0.191 NA
HETATM    8  N3  UNL     1      33.390   4.597  47.459  1.00  0.00    -0.174 NA
HETATM    9  C8  UNL     1      32.376   5.208  46.910  1.00  0.00     0.176 C 
HETATM   10  O1  UNL     1      32.655   5.066  45.499  1.00  0.00    -0.335 OA
HETATM   11  C9  UNL     1      33.918   4.566  45.075  1.00  0.00     0.177 C 
HETATM   12  C10 UNL     1      34.290   5.062  43.726  1.00  0.00     0.027 C 
HETATM   13  C11 UNL     1      34.510   6.512  43.538  1.00  0.00     0.008 C 
HETATM   14  C12 UNL     1      33.314   7.321  43.903  1.00  0.00     0.028 C 
HETATM   15  C13 UNL     1      33.546   8.311  44.825  1.00  0.00     0.008 C 
HETATM   16  P1  UNL     1      33.543   9.779  46.100  1.00  0.00    -0.094 P 
HETATM   17  C16 UNL     1      31.867   9.382  46.925  1.00  0.00     0.027 C 
HETATM   18  C17 UNL     1      31.418   8.580  48.006  1.00  0.00     0.161 A 
HETATM   19  F1  UNL     1      32.477   8.931  47.431  1.00  0.00    -0.370 F 
HETATM   20  H9  UNL     1      34.558   4.055  49.329  1.00  0.00     0.154 HD
ENDROOT
BRANCH   1  21
HETATM   21  N1  UNL     1      30.098   5.863  47.569  1.00  0.00    -0.419 NA
HETATM   22  C1  UNL     1      29.120   5.611  48.440  1.00  0.00     0.305 C 
ENDBRANCH   1  21
BRANCH  16  23
HETATM   23  C14 UNL     1      33.320  11.250  45.004  1.00  0.00     0.034 C 
HETATM   24  C15 UNL     1      34.219  11.098  43.749  1.00  0.00     0.010 C 
ENDBRANCH  16  23
TORSDOF 2
ENDMDL
MODEL 5
REMARK VINA RESULT:      -6.2     10.522     13.336
REMARK  2 active torsions:
REMARK  status: ('A' for Active; 'I' for Inactive)
REMARK    1  A    between atoms: N1_2  and  C2_3 
REMARK    2  A    between atoms: P1_18  and  C14_19 
ROOT
HETATM    1  C2  UNL     1      34.208   5.713  48.853  1.00  0.00     0.152 C 
HETATM    2  C3  UNL     1      33.438   4.713  48.323  1.00  0.00     0.080 C 
HETATM    3  C4  UNL     1      33.257   4.090  47.049  1.00  0.00     0.126 A 
HETATM    4  C5  UNL     1      31.879   4.320  46.834  1.00  0.00     0.017 C 
HETATM    5  C6  UNL     1      30.779   5.002  47.497  1.00  0.00     0.012 C 
HETATM    6  C7  UNL     1      30.488   5.828  48.602  1.00  0.00     0.082 C 
HETATM    7  N2  UNL     1      31.391   6.435  49.670  1.00  0.00    -0.191 NA
HETATM    8  N3  UNL     1      32.296   6.998  48.955  1.00  0.00    -0.174 NA
HETATM    9  C8  UNL     1      33.500   6.965  48.452  1.00  0.00     0.176 C 
HETATM   10  O1  UNL     1      33.557   8.200  47.702  1.00  0.00    -0.335 OA
HETATM   11  C9  UNL     1      32.371   8.963  47.507  1.00  0.00     0.177 C 
HETATM   12  C10 UNL     1      32.429   9.775  46.266  1.00  0.00     0.027 C 
HETATM   13  C11 UNL     1      32.502   9.078  44.964  1.00  0.00     0.008 C 
HETATM   14  C12 UNL     1      33.688   8.182  44.864  1.00  0.00     0.028 C 
HETATM   15  C13 UNL     1      33.402   6.880  44.537  1.00  0.00     0.008 C 
HETATM   16  P1  UNL     1      33.333   4.988  44.096  1.00  0.00    -0.094 P 
HETATM   17  C16 UNL     1      34.668   4.402  45.330  1.00  0.00     0.027 C 
HETATM   18  C17 UNL     1      34.700   3.978  46.684  1.00  0.00     0.161 A 
HETATM   19  F1  UNL     1      33.887   4.331  45.796  1.00  0.00    -0.370 F 
HETATM   20  H9  UNL     1      30.633   5.955  50.095  1.00  0.00     0.154 HD
ENDROOT
BRANCH   1  21
HETATM   21  N1  UNL     1      35.622   5.820  48.937  1.00  0.00    -0.419 NA
HETATM   22  C1  UNL     1      36.224   7.009  48.875  1.00  0.00     0.305 C 
ENDBRANCH   1  21
BRANCH  16  23
HETATM   23  C14 UNL     1      34.057   4.955  42.396  1.00  0.00     0.034 C 
HETATM   24  C15 UNL     1      33.185   4.054  41.483  1.00  0.00     0.010 C 
ENDBRANCH  16  23
TORSDOF 2
ENDMDL
MODEL 6
REMARK VINA RESULT:      -6.1      2.083      3.248
REMARK  2 active torsions:
REMARK  status: ('A' for Active; 'I' for Inactive)
REMARK    1  A    between atoms: N1_2  and  C2_3 
REMARK    2  A    between atoms: P1_18  and  C14_19 
ROOT
HETATM    1  C2  UNL     1      19.274   3.161  50.490  1.00  0.00     0.152 C 
HETATM    2  C3  UNL     1      19.950   2.135  49.888  1.00  0.00     0.080 C 
HETATM    3  C4  UNL     1      21.037   1.263  50.206  1.00  0.00     0.126 A 
HETATM    4  C5  UNL     1      21.929   1.552  49.148  1.00  0.00     0.017 C 
HETATM    5  C6  UNL     1      22.000   2.451  48.007  1.00  0.00     0.012 C 
HETATM    6  C7  UNL     1      21.319   3.521  47.392  1.00  0.00     0.082 C 
HETATM    7  N2  UNL     1      20.054   4.273  47.792  1.00  0.00    -0.191 NA
HETATM    8  N3  UNL     1      20.315   4.588  49.009  1.00  0.00    -0.174 NA
HETATM    9  C8  UNL     1      20.157   4.347  50.282  1.00  0.00     0.176 C 
HETATM   10  O1  UNL     1      20.964   5.377  50.896  1.00  0.00    -0.335 OA
HETATM   11  C9  UNL     1      21.826   6.173  50.091  1.00  0.00     0.177 C 
HETATM   12  C10 UNL     1      22.991   6.684  50.857  1.00  0.00     0.027 C 
HETATM   13  C11 UNL     1      23.967   5.712  51.397  1.00  0.00     0.008 C 
HETATM   14  C12 UNL     1      23.337   4.723  52.315  1.00  0.00     0.028 C 
HETATM   15  C13 UNL     1      23.556   3.409  51.986  1.00  0.00     0.008 C 
HETATM   16  P1  UNL     1      23.677   1.478  51.793  1.00  0.00    -0.094 P 
HETATM   17  C16 UNL     1      21.875   1.071  52.281  1.00  0.00     0.027 C 
HETATM   18  C17 UNL     1      20.631   0.956  51.610  1.00  0.00     0.161 A 
HETATM   19  F1  UNL     1      21.845   1.170  51.374  1.00  0.00    -0.370 F 
HETATM   20  H9  UNL     1      19.985   3.962  46.853  1.00  0.00     0.154 HD
ENDROOT
BRANCH   1  21
HETATM   21  N1  UNL     1      18.529   3.167  51.700  1.00  0.00    -0.419 NA
HETATM   22  C1  UNL     1      17.198   3.258  51.685  1.00  0.00     0.305 C 
ENDBRANCH   1  21
BRANCH  16  23
HETATM   23  C14 UNL     1      24.781   1.011  53.200  1.00  0.00     0.034 C 
HETATM   24  C15 UNL     1      25.896   0.064  52.686  1.00  0.00     0.010 C 
ENDBRANCH  16  23
TORSDOF 2
ENDMDL
MODEL 7
REMARK VINA RESULT:      -5.8      2.474      4.886
REMARK  2 active torsions:
REMARK  status: ('A' for Active; 'I' for Inactive)
REMARK    1  A    between atoms: N1_2  and  C2_3 
REMARK    2  A    between atoms: P1_18  and  C14_19 
ROOT
HETATM    1  C2  UNL     1      20.400   2.485  51.290  1.00  0.00     0.152 C 
HETATM    2  C3  UNL     1      21.023   1.824  50.265  1.00  0.00     0.080 C 
HETATM    3  C4  UNL     1      22.354   1.674  49.768  1.00  0.00     0.126 A 
HETATM    4  C5  UNL     1      22.200   2.149  48.445  1.00  0.00     0.017 C 
HETATM    5  C6  UNL     1      21.152   2.726  47.618  1.00  0.00     0.012 C 
HETATM    6  C7  UNL     1      19.820   3.186  47.672  1.00  0.00     0.082 C 
HETATM    7  N2  UNL     1      18.836   3.287  48.832  1.00  0.00    -0.191 NA
HETATM    8  N3  UNL     1      19.532   3.920  49.706  1.00  0.00    -0.174 NA
HETATM    9  C8  UNL     1      20.264   3.885  50.786  1.00  0.00     0.176 C 
HETATM   10  O1  UNL     1      20.619   5.275  50.966  1.00  0.00    -0.335 OA
HETATM   11  C9  UNL     1      20.332   6.216  49.937  1.00  0.00     0.177 C 
HETATM   12  C10 UNL     1      21.268   7.367  49.958  1.00  0.00     0.027 C 
HETATM   13  C11 UNL     1      22.702   7.122  49.688  1.00  0.00     0.008 C 
HETATM   14  C12 UNL     1      23.302   6.151  50.644  1.00  0.00     0.028 C 
HETATM   15  C13 UNL     1      23.925   5.075  50.062  1.00  0.00     0.008 C 
HETATM   16  P1  UNL     1      24.869   3.453  49.555  1.00  0.00    -0.094 P 
HETATM   17  C16 UNL     1      24.165   2.324  50.926  1.00  0.00     0.027 C 
HETATM   18  C17 UNL     1      23.030   1.488  51.086  1.00  0.00     0.161 A 
HETATM   19  F1  UNL     1      23.587   2.216  50.229  1.00  0.00    -0.370 F 
HETATM   20  H9  UNL     1      18.420   2.806  48.071  1.00  0.00     0.154 HD
ENDROOT
BRANCH   1  21
HETATM   21  N1  UNL     1      20.587   2.364  52.692  1.00  0.00    -0.419 NA
HETATM   22  C1  UNL     1      20.332   1.215  53.321  1.00  0.00     0.305 C 
ENDBRANCH   1  21
BRANCH  16  23
HETATM   23  C14 UNL     1      26.618   3.868  49.982  1.00  0.00     0.034 C 
HETATM   24  C15 UNL     1      27.230   4.743  48.857  1.00  0.00     0.010 C 
ENDBRANCH  16  23
TORSDOF 2
ENDMDL
MODEL 8
REMARK VINA RESULT:      -5.8     10.029     12.852
REMARK  2 active torsions:
REMARK  status: ('A' for Active; 'I' for Inactive)
REMARK    1  A    between atoms: N1_2  and  C2_3 
REMARK    2  A    between atoms: P1_18  and  C14_19 
ROOT
HETATM    1  C2  UNL     1      33.944   6.421  48.076  1.00  0.00     0.152 C 
HETATM    2  C3  UNL     1      34.113   5.883  46.828  1.00  0.00     0.080 C 
HETATM    3  C4  UNL     1      33.868   6.273  45.475  1.00  0.00     0.126 A 
HETATM    4  C5  UNL     1      33.010   5.232  45.050  1.00  0.00     0.017 C 
HETATM    5  C6  UNL     1      32.368   4.058  45.619  1.00  0.00     0.012 C 
HETATM    6  C7  UNL     1      32.177   3.377  46.839  1.00  0.00     0.082 C 
HETATM    7  N2  UNL     1      32.632   3.706  48.256  1.00  0.00    -0.191 NA
HETATM    8  N3  UNL     1      32.224   4.916  48.385  1.00  0.00    -0.174 NA
HETATM    9  C8  UNL     1      32.499   6.192  48.375  1.00  0.00     0.176 C 
HETATM   10  O1  UNL     1      31.211   6.790  48.650  1.00  0.00    -0.335 OA
HETATM   11  C9  UNL     1      30.040   5.980  48.638  1.00  0.00     0.177 C 
HETATM   12  C10 UNL     1      28.826   6.762  48.296  1.00  0.00     0.027 C 
HETATM   13  C11 UNL     1      28.729   7.372  46.952  1.00  0.00     0.008 C 
HETATM   14  C12 UNL     1      29.852   8.309  46.672  1.00  0.00     0.028 C 
HETATM   15  C13 UNL     1      30.554   8.042  45.522  1.00  0.00     0.008 C 
HETATM   16  P1  UNL     1      31.735   7.933  43.982  1.00  0.00    -0.094 P 
HETATM   17  C16 UNL     1      33.357   8.379  44.888  1.00  0.00     0.027 C 
HETATM   18  C17 UNL     1      34.372   7.674  45.585  1.00  0.00     0.161 A 
HETATM   19  F1  UNL     1      33.318   7.468  44.935  1.00  0.00    -0.370 F 
HETATM   20  H9  UNL     1      32.892   2.778  48.020  1.00  0.00     0.154 HD
ENDROOT
BRANCH   1  21
HETATM   21  N1  UNL     1      34.496   7.605  48.634  1.00  0.00    -0.419 NA
HETATM   22  C1  UNL     1      35.811   7.828  48.604  1.00  0.00     0.305 C 
ENDBRANCH   1  21
BRANCH  16  23
HETATM   23  C14 UNL     1      31.208   9.392  42.979  1.00  0.00     0.034 C 
HETATM   24  C15 UNL     1      29.836   9.902  43.493  1.00  0.00     0.010 C 
ENDBRANCH  16  23
TORSDOF 2
ENDMDL
MODEL 9
REMARK VINA RESULT:      -5.8     25.171     27.352
REMARK  2 active torsions:
REMARK  status: ('A' for Active; 'I' for Inactive)
REMARK    1  A    between atoms: N1_2  and  C2_3 
REMARK    2  A    between atoms: P1_18  and  C14_19 
ROOT
HETATM    1  C2  UNL     1      41.492  -0.178  68.091  1.00  0.00     0.152 C 
HETATM    2  C3  UNL     1      41.379  -0.497  69.417  1.00  0.00     0.080 C 
HETATM    3  C4  UNL     1      40.874   0.116  70.606  1.00  0.00     0.126 A 
HETATM    4  C5  UNL     1      42.032   0.119  71.417  1.00  0.00     0.017 C 
HETATM    5  C6  UNL     1      43.432  -0.256  71.305  1.00  0.00     0.012 C 
HETATM    6  C7  UNL     1      44.388  -0.722  70.379  1.00  0.00     0.082 C 
HETATM    7  N2  UNL     1      44.280  -1.025  68.889  1.00  0.00    -0.191 NA
HETATM    8  N3  UNL     1      43.759   0.060  68.441  1.00  0.00    -0.174 NA
HETATM    9  C8  UNL     1      42.698   0.701  68.032  1.00  0.00     0.176 C 
HETATM   10  O1  UNL     1      43.226   2.012  67.728  1.00  0.00    -0.335 OA
HETATM   11  C9  UNL     1      44.556   2.345  68.111  1.00  0.00     0.177 C 
HETATM   12  C10 UNL     1      44.725   3.804  68.326  1.00  0.00     0.027 C 
HETATM   13  C11 UNL     1      43.972   4.452  69.422  1.00  0.00     0.008 C 
HETATM   14  C12 UNL     1      42.500   4.277  69.281  1.00  0.00     0.028 C 
HETATM   15  C13 UNL     1      41.876   3.730  70.375  1.00  0.00     0.008 C 
HETATM   16  P1  UNL     1      40.710   2.983  71.739  1.00  0.00    -0.094 P 
HETATM   17  C16 UNL     1      39.594   1.961  70.573  1.00  0.00     0.027 C 
HETATM   18  C17 UNL     1      39.611   0.655  70.020  1.00  0.00     0.161 A 
HETATM   19  F1  UNL     1      40.259   1.382  70.811  1.00  0.00    -0.370 F 
HETATM   20  H9  UNL     1      44.674  -1.799  69.368  1.00  0.00     0.154 HD
ENDROOT
BRANCH   1  21
HETATM   21  N1  UNL     1      40.479   0.123  67.143  1.00  0.00    -0.419 NA
HETATM   22  C1  UNL     1      39.736  -0.844  66.602  1.00  0.00     0.305 C 
ENDBRANCH   1  21
BRANCH  16  23
HETATM   23  C14 UNL     1      39.761   4.467  72.300  1.00  0.00     0.034 C 
HETATM   24  C15 UNL     1      39.691   5.500  71.145  1.00  0.00     0.010 C 
ENDBRANCH  16  23
TORSDOF 2
ENDMDL
