MODEL 1
REMARK VINA RESULT:      -8.7      0.000      0.000
REMARK  2 active torsions:
REMARK  status: ('A' for Active; 'I' for Inactive)
REMARK    1  A    between atoms: C6_6  and  C7_7 
REMARK    2  A    between atoms: O1_13  and  O2_14 
ROOT
HETATM    1  C1  UNL     1      23.032   2.088  53.111  1.00  0.00     0.105 A 
HETATM    2  C2  UNL     1      23.890   1.272  52.467  1.00  0.00     0.030 A 
HETATM    3  C3  UNL     1      24.809   2.408  52.165  1.00  0.00     0.106 A 
HETATM    4  C4  UNL     1      25.011   2.836  50.782  1.00  0.00    -0.015 A 
HETATM    5  C5  UNL     1      26.260   2.571  50.823  1.00  0.00    -0.003 A 
HETATM    6  C6  UNL     1      26.194   2.140  52.228  1.00  0.00     0.081 A 
HETATM    7  C13 UNL     1      23.913   3.421  49.973  1.00  0.00    -0.012 A 
HETATM    8  C14 UNL     1      23.700   3.169  48.670  1.00  0.00     0.020 A 
HETATM    9  C15 UNL     1      22.626   3.851  48.092  1.00  0.00     0.051 A 
HETATM   10  S1  UNL     1      21.873   4.861  49.324  1.00  0.00    -0.104 SA
HETATM   11  C16 UNL     1      23.034   4.358  50.665  1.00  0.00     0.008 A 
HETATM   12  C17 UNL     1      22.805   4.991  51.969  1.00  0.00     0.157 C 
HETATM   13  N1  UNL     1      23.777   4.587  53.008  1.00  0.00    -0.233 NA
HETATM   14  N2  UNL     1      23.888   3.211  52.821  1.00  0.00    -0.304 N 
HETATM   15  H12 UNL     1      24.691   5.005  52.751  1.00  0.00     0.147 HD
ENDROOT
BRANCH   6  16
HETATM   16  C7  UNL     1      26.717   0.798  52.470  1.00  0.00    -0.040 A 
HETATM   17  C8  UNL     1      26.756  -0.495  52.040  1.00  0.00     0.009 A 
HETATM   18  C9  UNL     1      27.471  -1.427  52.718  1.00  0.00     0.009 A 
HETATM   19  C10 UNL     1      28.062  -0.835  53.787  1.00  0.00    -0.042 A 
HETATM   20  C11 UNL     1      28.345   0.336  54.634  1.00  0.00     0.066 A 
HETATM   21  O2  UNL     1      28.683  -0.350  54.862  1.00  0.00     0.000 OA
HETATM   22  C12 UNL     1      27.475   0.868  53.585  1.00  0.00    -0.034 A 
HETATM   23  O1  UNL     1      28.166   1.140  54.679  1.00  0.00     0.000 OA
ENDBRANCH   6  16
TORSDOF 2
ENDMDL
MODEL 2
REMARK VINA RESULT:      -8.7      3.637      6.291
REMARK  2 active torsions:
REMARK  status: ('A' for Active; 'I' for Inactive)
REMARK    1  A    between atoms: C6_6  and  C7_7 
REMARK    2  A    between atoms: O1_13  and  O2_14 
ROOT
HETATM    1  C1  UNL     1      27.056   2.590  51.505  1.00  0.00     0.105 A 
HETATM    2  C2  UNL     1      25.942   1.911  51.169  1.00  0.00     0.030 A 
HETATM    3  C3  UNL     1      25.650   1.599  52.599  1.00  0.00     0.106 A 
HETATM    4  C4  UNL     1      25.709   0.217  53.071  1.00  0.00    -0.015 A 
HETATM    5  C5  UNL     1      24.476   0.219  53.403  1.00  0.00    -0.003 A 
HETATM    6  C6  UNL     1      24.295   1.618  52.991  1.00  0.00     0.081 A 
HETATM    7  C13 UNL     1      26.978  -0.552  53.091  1.00  0.00    -0.012 A 
HETATM    8  C14 UNL     1      27.094  -1.852  52.769  1.00  0.00     0.020 A 
HETATM    9  C15 UNL     1      28.379  -2.390  52.887  1.00  0.00     0.051 A 
HETATM   10  S1  UNL     1      29.470  -1.123  53.444  1.00  0.00    -0.104 SA
HETATM   11  C16 UNL     1      28.165   0.177  53.526  1.00  0.00     0.008 A 
HETATM   12  C17 UNL     1      28.616   1.496  53.986  1.00  0.00     0.157 C 
HETATM   13  N1  UNL     1      27.534   2.501  54.070  1.00  0.00    -0.233 NA
HETATM   14  N2  UNL     1      26.814   2.292  52.895  1.00  0.00    -0.304 N 
HETATM   15  H12 UNL     1      26.919   2.224  54.858  1.00  0.00     0.147 HD
ENDROOT
BRANCH   6  16
HETATM   16  C7  UNL     1      23.210   1.827  52.034  1.00  0.00    -0.040 A 
HETATM   17  C8  UNL     1      22.466   1.280  51.032  1.00  0.00     0.009 A 
HETATM   18  C9  UNL     1      21.487   1.998  50.428  1.00  0.00     0.009 A 
HETATM   19  C10 UNL     1      21.436   3.232  50.992  1.00  0.00    -0.042 A 
HETATM   20  C11 UNL     1      21.904   4.243  51.954  1.00  0.00     0.066 A 
HETATM   21  O2  UNL     1      21.306   4.466  51.477  1.00  0.00     0.000 OA
HETATM   22  C12 UNL     1      22.761   3.087  52.220  1.00  0.00    -0.034 A 
HETATM   23  O1  UNL     1      22.468   4.332  52.551  1.00  0.00     0.000 OA
ENDBRANCH   6  16
TORSDOF 2
ENDMDL
MODEL 3
REMARK VINA RESULT:      -8.6      2.519      3.842
REMARK  2 active torsions:
REMARK  status: ('A' for Active; 'I' for Inactive)
REMARK    1  A    between atoms: C6_6  and  C7_7 
REMARK    2  A    between atoms: O1_13  and  O2_14 
ROOT
HETATM    1  C1  UNL     1      24.043   3.115  52.632  1.00  0.00     0.105 A 
HETATM    2  C2  UNL     1      24.948   2.492  53.413  1.00  0.00     0.030 A 
HETATM    3  C3  UNL     1      24.931   1.282  52.540  1.00  0.00     0.106 A 
HETATM    4  C4  UNL     1      24.407   0.018  53.055  1.00  0.00    -0.015 A 
HETATM    5  C5  UNL     1      25.527  -0.575  52.899  1.00  0.00    -0.003 A 
HETATM    6  C6  UNL     1      26.164   0.625  52.337  1.00  0.00     0.081 A 
HETATM    7  C13 UNL     1      22.980  -0.146  53.427  1.00  0.00    -0.012 A 
HETATM    8  C14 UNL     1      22.537  -0.835  54.494  1.00  0.00     0.020 A 
HETATM    9  C15 UNL     1      21.149  -0.890  54.642  1.00  0.00     0.051 A 
HETATM   10  S1  UNL     1      20.405   0.006  53.319  1.00  0.00    -0.104 SA
HETATM   11  C16 UNL     1      22.007   0.473  52.533  1.00  0.00     0.008 A 
HETATM   12  C17 UNL     1      21.898   1.267  51.303  1.00  0.00     0.157 C 
HETATM   13  N1  UNL     1      23.202   1.593  50.685  1.00  0.00    -0.233 NA
HETATM   14  N2  UNL     1      23.989   1.955  51.777  1.00  0.00    -0.304 N 
HETATM   15  H12 UNL     1      23.591   0.709  50.308  1.00  0.00     0.147 HD
ENDROOT
BRANCH   6  16
HETATM   16  C7  UNL     1      27.386   1.035  53.025  1.00  0.00    -0.040 A 
HETATM   17  C8  UNL     1      28.066   2.064  53.606  1.00  0.00     0.009 A 
HETATM   18  C9  UNL     1      29.296   1.863  54.142  1.00  0.00     0.009 A 
HETATM   19  C10 UNL     1      29.638   0.559  53.981  1.00  0.00    -0.042 A 
HETATM   20  C11 UNL     1      29.365  -0.808  53.510  1.00  0.00     0.066 A 
HETATM   21  O2  UNL     1      30.067  -0.697  53.872  1.00  0.00     0.000 OA
HETATM   22  C12 UNL     1      28.167  -0.063  53.124  1.00  0.00    -0.034 A 
HETATM   23  O1  UNL     1      28.775  -1.236  53.122  1.00  0.00     0.000 OA
ENDBRANCH   6  16
TORSDOF 2
ENDMDL
MODEL 4
REMARK VINA RESULT:      -8.6      3.847      6.275
REMARK  2 active torsions:
REMARK  status: ('A' for Active; 'I' for Inactive)
REMARK    1  A    between atoms: C6_6  and  C7_7 
REMARK    2  A    between atoms: O1_13  and  O2_14 
ROOT
HETATM    1  C1  UNL     1      26.653   2.374  51.560  1.00  0.00     0.105 A 
HETATM    2  C2  UNL     1      25.671   1.471  51.364  1.00  0.00     0.030 A 
HETATM    3  C3  UNL     1      25.557   1.214  52.830  1.00  0.00     0.106 A 
HETATM    4  C4  UNL     1      25.922  -0.092  53.373  1.00  0.00    -0.015 A 
HETATM    5  C5  UNL     1      24.742  -0.302  53.813  1.00  0.00    -0.003 A 
HETATM    6  C6  UNL     1      24.258   1.003  53.340  1.00  0.00     0.081 A 
HETATM    7  C13 UNL     1      27.315  -0.601  53.324  1.00  0.00    -0.012 A 
HETATM    8  C14 UNL     1      27.661  -1.875  53.068  1.00  0.00     0.020 A 
HETATM    9  C15 UNL     1      29.031  -2.146  53.101  1.00  0.00     0.051 A 
HETATM   10  S1  UNL     1      29.891  -0.656  53.486  1.00  0.00    -0.104 SA
HETATM   11  C16 UNL     1      28.365   0.373  53.609  1.00  0.00     0.008 A 
HETATM   12  C17 UNL     1      28.581   1.784  53.951  1.00  0.00     0.157 C 
HETATM   13  N1  UNL     1      27.332   2.566  54.073  1.00  0.00    -0.233 NA
HETATM   14  N2  UNL     1      26.581   2.138  52.981  1.00  0.00    -0.304 N 
HETATM   15  H12 UNL     1      26.846   2.235  54.928  1.00  0.00     0.147 HD
ENDROOT
BRANCH   6  16
HETATM   16  C7  UNL     1      23.084   0.929  52.472  1.00  0.00    -0.040 A 
HETATM   17  C8  UNL     1      22.616   1.007  51.194  1.00  0.00     0.009 A 
HETATM   18  C9  UNL     1      21.295   0.846  50.932  1.00  0.00     0.009 A 
HETATM   19  C10 UNL     1      20.640   0.619  52.099  1.00  0.00    -0.042 A 
HETATM   20  C11 UNL     1      20.608   0.448  53.561  1.00  0.00     0.066 A 
HETATM   21  O2  UNL     1      19.906   0.389  53.187  1.00  0.00     0.000 OA
HETATM   22  C12 UNL     1      22.022   0.685  53.270  1.00  0.00    -0.034 A 
HETATM   23  O1  UNL     1      21.121   0.448  54.208  1.00  0.00     0.000 OA
ENDBRANCH   6  16
TORSDOF 2
ENDMDL
MODEL 5
REMARK VINA RESULT:      -8.0      1.614      2.090
REMARK  2 active torsions:
REMARK  status: ('A' for Active; 'I' for Inactive)
REMARK    1  A    between atoms: C6_6  and  C7_7 
REMARK    2  A    between atoms: O1_13  and  O2_14 
ROOT
HETATM    1  C1  UNL     1      22.364   4.715  52.742  1.00  0.00     0.105 A 
HETATM    2  C2  UNL     1      22.621   3.445  52.372  1.00  0.00     0.030 A 
HETATM    3  C3  UNL     1      23.977   3.819  51.874  1.00  0.00     0.106 A 
HETATM    4  C4  UNL     1      24.280   3.733  50.447  1.00  0.00    -0.015 A 
HETATM    5  C5  UNL     1      25.203   2.872  50.637  1.00  0.00    -0.003 A 
HETATM    6  C6  UNL     1      25.015   2.889  52.095  1.00  0.00     0.081 A 
HETATM    7  C13 UNL     1      23.600   4.595  49.448  1.00  0.00    -0.012 A 
HETATM    8  C14 UNL     1      23.200   4.190  48.230  1.00  0.00     0.020 A 
HETATM    9  C15 UNL     1      22.607   5.173  47.433  1.00  0.00     0.051 A 
HETATM   10  S1  UNL     1      22.581   6.688  48.334  1.00  0.00    -0.104 SA
HETATM   11  C16 UNL     1      23.393   5.987  49.834  1.00  0.00     0.008 A 
HETATM   12  C17 UNL     1      23.618   6.935  50.931  1.00  0.00     0.157 C 
HETATM   13  N1  UNL     1      24.301   6.343  52.101  1.00  0.00    -0.233 NA
HETATM   14  N2  UNL     1      23.661   5.115  52.255  1.00  0.00    -0.304 N 
HETATM   15  H12 UNL     1      25.279   6.144  51.817  1.00  0.00     0.147 HD
ENDROOT
BRANCH   6  16
HETATM   16  C7  UNL     1      24.771   1.575  52.686  1.00  0.00    -0.040 A 
HETATM   17  C8  UNL     1      23.964   0.477  52.705  1.00  0.00     0.009 A 
HETATM   18  C9  UNL     1      24.230  -0.561  53.537  1.00  0.00     0.009 A 
HETATM   19  C10 UNL     1      25.349  -0.276  54.251  1.00  0.00    -0.042 A 
HETATM   20  C11 UNL     1      26.472   0.604  54.612  1.00  0.00     0.066 A 
HETATM   21  O2  UNL     1      26.435  -0.091  55.000  1.00  0.00     0.000 OA
HETATM   22  C12 UNL     1      25.752   1.363  53.589  1.00  0.00    -0.034 A 
HETATM   23  O1  UNL     1      26.783   1.343  54.416  1.00  0.00     0.000 OA
ENDBRANCH   6  16
TORSDOF 2
ENDMDL
MODEL 6
REMARK VINA RESULT:      -7.9      1.759      2.300
REMARK  2 active torsions:
REMARK  status: ('A' for Active; 'I' for Inactive)
REMARK    1  A    between atoms: C6_6  and  C7_7 
REMARK    2  A    between atoms: O1_13  and  O2_14 
ROOT
HETATM    1  C1  UNL     1      22.280   1.732  50.527  1.00  0.00     0.105 A 
HETATM    2  C2  UNL     1      23.604   1.780  50.773  1.00  0.00     0.030 A 
HETATM    3  C3  UNL     1      23.374   2.350  52.132  1.00  0.00     0.106 A 
HETATM    4  C4  UNL     1      23.807   3.713  52.436  1.00  0.00    -0.015 A 
HETATM    5  C5  UNL     1      24.604   3.315  53.351  1.00  0.00    -0.003 A 
HETATM    6  C6  UNL     1      24.230   1.906  53.163  1.00  0.00     0.081 A 
HETATM    7  C13 UNL     1      23.210   4.894  51.765  1.00  0.00    -0.012 A 
HETATM    8  C14 UNL     1      23.896   5.977  51.362  1.00  0.00     0.020 A 
HETATM    9  C15 UNL     1      23.132   6.992  50.779  1.00  0.00     0.051 A 
HETATM   10  S1  UNL     1      21.443   6.488  50.766  1.00  0.00    -0.104 SA
HETATM   11  C16 UNL     1      21.764   4.859  51.570  1.00  0.00     0.008 A 
HETATM   12  C17 UNL     1      20.578   4.026  51.803  1.00  0.00     0.157 C 
HETATM   13  N1  UNL     1      20.873   2.744  52.479  1.00  0.00    -0.233 NA
HETATM   14  N2  UNL     1      22.022   2.298  51.828  1.00  0.00    -0.304 N 
HETATM   15  H12 UNL     1      21.144   2.968  53.455  1.00  0.00     0.147 HD
ENDROOT
BRANCH   6  16
HETATM   16  C7  UNL     1      25.358   1.013  52.906  1.00  0.00    -0.040 A 
HETATM   17  C8  UNL     1      26.057   0.315  51.966  1.00  0.00     0.009 A 
HETATM   18  C9  UNL     1      27.134  -0.430  52.319  1.00  0.00     0.009 A 
HETATM   19  C10 UNL     1      27.322  -0.324  53.659  1.00  0.00    -0.042 A 
HETATM   20  C11 UNL     1      26.956   0.197  54.987  1.00  0.00     0.066 A 
HETATM   21  O2  UNL     1      27.590  -0.285  54.963  1.00  0.00     0.000 OA
HETATM   22  C12 UNL     1      25.955   0.784  54.095  1.00  0.00    -0.034 A 
HETATM   23  O1  UNL     1      26.392   0.686  55.339  1.00  0.00     0.000 OA
ENDBRANCH   6  16
TORSDOF 2
ENDMDL
MODEL 7
REMARK VINA RESULT:      -7.7      3.030      4.287
REMARK  2 active torsions:
REMARK  status: ('A' for Active; 'I' for Inactive)
REMARK    1  A    between atoms: C6_6  and  C7_7 
REMARK    2  A    between atoms: O1_13  and  O2_14 
ROOT
HETATM    1  C1  UNL     1      25.357   2.924  53.189  1.00  0.00     0.105 A 
HETATM    2  C2  UNL     1      24.018   2.775  53.147  1.00  0.00     0.030 A 
HETATM    3  C3  UNL     1      24.103   1.980  51.887  1.00  0.00     0.106 A 
HETATM    4  C4  UNL     1      23.549   2.517  50.646  1.00  0.00    -0.015 A 
HETATM    5  C5  UNL     1      22.717   1.554  50.535  1.00  0.00    -0.003 A 
HETATM    6  C6  UNL     1      23.207   0.898  51.756  1.00  0.00     0.081 A 
HETATM    7  C13 UNL     1      24.107   3.730  49.998  1.00  0.00    -0.012 A 
HETATM    8  C14 UNL     1      23.375   4.693  49.410  1.00  0.00     0.020 A 
HETATM    9  C15 UNL     1      24.105   5.735  48.832  1.00  0.00     0.051 A 
HETATM   10  S1  UNL     1      25.822   5.425  49.078  1.00  0.00    -0.104 SA
HETATM   11  C16 UNL     1      25.562   3.842  49.988  1.00  0.00     0.008 A 
HETATM   12  C17 UNL     1      26.785   3.151  50.416  1.00  0.00     0.157 C 
HETATM   13  N1  UNL     1      26.535   1.870  51.111  1.00  0.00    -0.233 NA
HETATM   14  N2  UNL     1      25.474   2.173  51.964  1.00  0.00    -0.304 N 
HETATM   15  H12 UNL     1      26.176   1.202  50.403  1.00  0.00     0.147 HD
ENDROOT
BRANCH   6  16
HETATM   16  C7  UNL     1      22.169   0.621  52.747  1.00  0.00    -0.040 A 
HETATM   17  C8  UNL     1      20.899   0.894  53.160  1.00  0.00     0.009 A 
HETATM   18  C9  UNL     1      20.388   0.293  54.264  1.00  0.00     0.009 A 
HETATM   19  C10 UNL     1      21.327  -0.537  54.786  1.00  0.00    -0.042 A 
HETATM   20  C11 UNL     1      22.663  -1.154  54.785  1.00  0.00     0.066 A 
HETATM   21  O2  UNL     1      22.177  -1.377  55.375  1.00  0.00     0.000 OA
HETATM   22  C12 UNL     1      22.685  -0.275  53.615  1.00  0.00    -0.034 A 
HETATM   23  O1  UNL     1      23.363  -1.144  54.346  1.00  0.00     0.000 OA
ENDBRANCH   6  16
TORSDOF 2
ENDMDL
MODEL 8
REMARK VINA RESULT:      -7.6      4.427      6.835
REMARK  2 active torsions:
REMARK  status: ('A' for Active; 'I' for Inactive)
REMARK    1  A    between atoms: C6_6  and  C7_7 
REMARK    2  A    between atoms: O1_13  and  O2_14 
ROOT
HETATM    1  C1  UNL     1      23.759   2.638  50.698  1.00  0.00     0.105 A 
HETATM    2  C2  UNL     1      22.846   1.649  50.765  1.00  0.00     0.030 A 
HETATM    3  C3  UNL     1      22.792   1.744  52.254  1.00  0.00     0.106 A 
HETATM    4  C4  UNL     1      23.272   0.633  53.074  1.00  0.00    -0.015 A 
HETATM    5  C5  UNL     1      22.125   0.454  53.604  1.00  0.00    -0.003 A 
HETATM    6  C6  UNL     1      21.528   1.572  52.857  1.00  0.00     0.081 A 
HETATM    7  C13 UNL     1      24.699   0.225  53.083  1.00  0.00    -0.012 A 
HETATM    8  C14 UNL     1      25.135  -1.047  53.120  1.00  0.00     0.020 A 
HETATM    9  C15 UNL     1      26.522  -1.208  53.154  1.00  0.00     0.051 A 
HETATM   10  S1  UNL     1      27.274   0.386  53.137  1.00  0.00    -0.104 SA
HETATM   11  C16 UNL     1      25.678   1.307  53.082  1.00  0.00     0.008 A 
HETATM   12  C17 UNL     1      25.793   2.771  53.070  1.00  0.00     0.157 C 
HETATM   13  N1  UNL     1      24.491   3.472  53.060  1.00  0.00    -0.233 NA
HETATM   14  N2  UNL     1      23.745   2.744  52.135  1.00  0.00    -0.304 N 
HETATM   15  H12 UNL     1      24.056   3.323  53.990  1.00  0.00     0.147 HD
ENDROOT
BRANCH   6  16
HETATM   16  C7  UNL     1      20.339   1.213  52.086  1.00  0.00    -0.040 A 
HETATM   17  C8  UNL     1      19.696   0.231  51.393  1.00  0.00     0.009 A 
HETATM   18  C9  UNL     1      18.490   0.469  50.818  1.00  0.00     0.009 A 
HETATM   19  C10 UNL     1      18.130   1.754  51.070  1.00  0.00    -0.042 A 
HETATM   20  C11 UNL     1      18.369   3.079  51.663  1.00  0.00     0.066 A 
HETATM   21  O2  UNL     1      17.686   2.995  51.261  1.00  0.00     0.000 OA
HETATM   22  C12 UNL     1      19.555   2.311  52.042  1.00  0.00    -0.034 A 
HETATM   23  O1  UNL     1      18.937   3.477  52.112  1.00  0.00     0.000 OA
ENDBRANCH   6  16
TORSDOF 2
ENDMDL
MODEL 9
REMARK VINA RESULT:      -7.5      4.250      5.899
REMARK  2 active torsions:
REMARK  status: ('A' for Active; 'I' for Inactive)
REMARK    1  A    between atoms: C6_6  and  C7_7 
REMARK    2  A    between atoms: O1_13  and  O2_14 
ROOT
HETATM    1  C1  UNL     1      26.235   2.720  51.137  1.00  0.00     0.105 A 
HETATM    2  C2  UNL     1      26.501   3.318  49.959  1.00  0.00     0.030 A 
HETATM    3  C3  UNL     1      25.388   4.293  50.154  1.00  0.00     0.106 A 
HETATM    4  C4  UNL     1      24.225   4.260  49.270  1.00  0.00    -0.015 A 
HETATM    5  C5  UNL     1      24.441   5.446  48.849  1.00  0.00    -0.003 A 
HETATM    6  C6  UNL     1      25.616   5.615  49.717  1.00  0.00     0.081 A 
HETATM    7  C13 UNL     1      23.296   3.103  49.237  1.00  0.00    -0.012 A 
HETATM    8  C14 UNL     1      22.737   2.598  48.124  1.00  0.00     0.020 A 
HETATM    9  C15 UNL     1      21.865   1.524  48.322  1.00  0.00     0.051 A 
HETATM   10  S1  UNL     1      21.786   1.174  50.047  1.00  0.00    -0.104 SA
HETATM   11  C16 UNL     1      22.961   2.511  50.528  1.00  0.00     0.008 A 
HETATM   12  C17 UNL     1      23.221   2.636  51.968  1.00  0.00     0.157 C 
HETATM   13  N1  UNL     1      24.141   3.741  52.314  1.00  0.00    -0.233 NA
HETATM   14  N2  UNL     1      25.142   3.636  51.350  1.00  0.00    -0.304 N 
HETATM   15  H12 UNL     1      23.635   4.629  52.134  1.00  0.00     0.147 HD
ENDROOT
BRANCH   6  16
HETATM   16  C7  UNL     1      26.835   6.001  49.009  1.00  0.00    -0.040 A 
HETATM   17  C8  UNL     1      27.867   5.582  48.223  1.00  0.00     0.009 A 
HETATM   18  C9  UNL     1      28.822   6.455  47.815  1.00  0.00     0.009 A 
HETATM   19  C10 UNL     1      28.537   7.684  48.315  1.00  0.00    -0.042 A 
HETATM   20  C11 UNL     1      27.701   8.607  49.100  1.00  0.00     0.066 A 
HETATM   21  O2  UNL     1      28.346   8.926  48.757  1.00  0.00     0.000 OA
HETATM   22  C12 UNL     1      27.013   7.322  49.227  1.00  0.00    -0.034 A 
HETATM   23  O1  UNL     1      27.011   8.603  49.554  1.00  0.00     0.000 OA
ENDBRANCH   6  16
TORSDOF 2
ENDMDL
