MODEL 1
REMARK VINA RESULT:      -7.5      0.000      0.000
REMARK  7 active torsions:
REMARK  status: ('A' for Active; 'I' for Inactive)
REMARK    1  A    between atoms: C2_2  and  N1_3 
REMARK    2  A    between atoms: N1_3  and  C3_4 
REMARK    3  A    between atoms: N1_3  and  C5_6 
REMARK    4  A    between atoms: C5_6  and  C6_7 
REMARK    5  A    between atoms: C6_7  and  C7_8 
REMARK    6  A    between atoms: C8_9  and  C9_10 
REMARK       I    between atoms: C9_10  and  N2_12 
REMARK    7  A    between atoms: N2_12  and  C10_13 
ROOT
HETATM    1  C10 UNL     1      24.720   5.439  49.806  1.00  0.00     0.087 A 
HETATM    2  C11 UNL     1      26.029   5.741  49.628  1.00  0.00     0.003 A 
HETATM    3  C12 UNL     1      25.492   6.440  48.600  1.00  0.00     0.095 A 
HETATM    4  C13 UNL     1      26.451   7.363  48.124  1.00  0.00     0.119 A 
HETATM    5  N3  UNL     1      26.626   8.373  47.213  1.00  0.00    -0.228 NA
HETATM    6  C14 UNL     1      25.518   8.674  46.444  1.00  0.00     0.230 A 
HETATM    7  N4  UNL     1      24.495   7.879  46.799  1.00  0.00    -0.265 NA
HETATM    8  C15 UNL     1      24.593   6.958  47.742  1.00  0.00     0.107 A 
HETATM    9  C16 UNL     1      23.231   6.623  47.938  1.00  0.00     0.001 A 
HETATM   10  C17 UNL     1      23.805   5.954  48.951  1.00  0.00     0.074 A 
HETATM   11  C18 UNL     1      22.803   5.972  50.072  1.00  0.00     0.199 C 
HETATM   12  F1  UNL     1      21.500   5.876  49.618  1.00  0.00    -0.247 F 
HETATM   13  C19 UNL     1      22.959   7.458  50.622  1.00  0.00     0.132 C 
HETATM   14  C20 UNL     1      24.350   7.806  50.461  1.00  0.00    -0.102 C 
HETATM   15  C21 UNL     1      25.491   8.080  50.309  1.00  0.00    -0.087 C 
HETATM   16  C22 UNL     1      26.861   8.392  50.107  1.00  0.00     0.215 C 
HETATM   17  N5  UNL     1      27.532   7.459  49.130  1.00  0.00    -0.367 N 
HETATM   18  H24 UNL     1      28.492   7.070  49.262  1.00  0.00     0.161 HD
ENDROOT
BRANCH   1  19
HETATM   19  N2  UNL     1      24.862   4.604  50.934  1.00  0.00    -0.335 N 
HETATM   20  C9  UNL     1      24.717   3.217  50.682  1.00  0.00     0.297 C 
HETATM   21  O1  UNL     1      24.481   2.838  49.499  1.00  0.00    -0.258 OA
HETATM   22  H15 UNL     1      25.057   4.914  51.909  1.00  0.00     0.164 HD
BRANCH  20  23
HETATM   23  C8  UNL     1      24.821   2.198  51.691  1.00  0.00    -0.006 C 
HETATM   24  C7  UNL     1      24.914   1.353  52.552  1.00  0.00    -0.095 C 
BRANCH  24  25
HETATM   25  C6  UNL     1      25.033   0.316  53.575  1.00  0.00     0.124 C 
BRANCH  25  26
HETATM   26  C5  UNL     1      26.362   0.558  54.258  1.00  0.00     0.284 C 
BRANCH  26  27
HETATM   27  N1  UNL     1      27.493   0.403  53.387  1.00  0.00     0.088 N 
BRANCH  27  28
HETATM   28  C2  UNL     1      27.791  -0.985  53.097  1.00  0.00     0.268 C 
HETATM   29  C1  UNL     1      29.254  -1.252  53.397  1.00  0.00     0.037 C 
ENDBRANCH  27  28
BRANCH  27  30
HETATM   30  C3  UNL     1      28.622   1.066  53.993  1.00  0.00     0.268 C 
HETATM   31  C4  UNL     1      28.658   2.504  53.595  1.00  0.00     0.037 C 
ENDBRANCH  27  30
ENDBRANCH  26  27
ENDBRANCH  25  26
ENDBRANCH  24  25
ENDBRANCH  20  23
ENDBRANCH   1  19
TORSDOF 7
ENDMDL
MODEL 2
REMARK VINA RESULT:      -7.4      3.529      7.229
REMARK  7 active torsions:
REMARK  status: ('A' for Active; 'I' for Inactive)
REMARK    1  A    between atoms: C2_2  and  N1_3 
REMARK    2  A    between atoms: N1_3  and  C3_4 
REMARK    3  A    between atoms: N1_3  and  C5_6 
REMARK    4  A    between atoms: C5_6  and  C6_7 
REMARK    5  A    between atoms: C6_7  and  C7_8 
REMARK    6  A    between atoms: C8_9  and  C9_10 
REMARK       I    between atoms: C9_10  and  N2_12 
REMARK    7  A    between atoms: N2_12  and  C10_13 
ROOT
HETATM    1  C10 UNL     1      23.942   3.195  50.507  1.00  0.00     0.087 A 
HETATM    2  C11 UNL     1      23.260   2.824  49.396  1.00  0.00     0.003 A 
HETATM    3  C12 UNL     1      22.672   2.012  50.306  1.00  0.00     0.095 A 
HETATM    4  C13 UNL     1      21.477   1.496  49.754  1.00  0.00     0.119 A 
HETATM    5  N3  UNL     1      20.394   0.709  50.055  1.00  0.00    -0.228 NA
HETATM    6  C14 UNL     1      20.372   0.200  51.339  1.00  0.00     0.230 A 
HETATM    7  N4  UNL     1      21.455   0.627  52.011  1.00  0.00    -0.265 NA
HETATM    8  C15 UNL     1      22.375   1.406  51.472  1.00  0.00     0.107 A 
HETATM    9  C16 UNL     1      23.105   1.800  52.620  1.00  0.00     0.001 A 
HETATM   10  C17 UNL     1      23.653   2.595  51.686  1.00  0.00     0.074 A 
HETATM   11  C18 UNL     1      24.011   3.871  52.395  1.00  0.00     0.199 C 
HETATM   12  F1  UNL     1      24.448   3.652  53.689  1.00  0.00    -0.247 F 
HETATM   13  C19 UNL     1      22.590   4.575  52.534  1.00  0.00     0.132 C 
HETATM   14  C20 UNL     1      21.841   4.212  51.356  1.00  0.00    -0.102 C 
HETATM   15  C21 UNL     1      21.236   3.893  50.389  1.00  0.00    -0.087 C 
HETATM   16  C22 UNL     1      20.525   3.490  49.229  1.00  0.00     0.215 C 
HETATM   17  N5  UNL     1      21.147   2.294  48.553  1.00  0.00    -0.367 N 
HETATM   18  H24 UNL     1      21.249   2.197  47.518  1.00  0.00     0.161 HD
ENDROOT
BRANCH   1  19
HETATM   19  N2  UNL     1      24.782   4.159  49.910  1.00  0.00    -0.335 N 
HETATM   20  C9  UNL     1      26.109   3.732  49.659  1.00  0.00     0.297 C 
HETATM   21  O1  UNL     1      26.436   2.552  49.976  1.00  0.00    -0.258 OA
HETATM   22  H15 UNL     1      24.514   5.130  49.648  1.00  0.00     0.164 HD
BRANCH  20  23
HETATM   23  C8  UNL     1      27.124   4.558  49.062  1.00  0.00    -0.006 C 
HETATM   24  C7  UNL     1      27.977   5.242  48.545  1.00  0.00    -0.095 C 
BRANCH  24  25
HETATM   25  C6  UNL     1      29.017   6.072  47.943  1.00  0.00     0.124 C 
BRANCH  25  26
HETATM   26  C5  UNL     1      28.472   7.485  47.942  1.00  0.00     0.284 C 
BRANCH  26  27
HETATM   27  N1  UNL     1      29.002   8.307  48.992  1.00  0.00     0.088 N 
BRANCH  27  28
HETATM   28  C2  UNL     1      28.039   9.268  49.492  1.00  0.00     0.268 C 
HETATM   29  C1  UNL     1      26.819   8.527  50.007  1.00  0.00     0.037 C 
ENDBRANCH  27  28
BRANCH  27  30
HETATM   30  C3  UNL     1      30.188   8.962  48.498  1.00  0.00     0.268 C 
HETATM   31  C4  UNL     1      30.606  10.053  49.426  1.00  0.00     0.037 C 
ENDBRANCH  27  30
ENDBRANCH  26  27
ENDBRANCH  25  26
ENDBRANCH  24  25
ENDBRANCH  20  23
ENDBRANCH   1  19
TORSDOF 7
ENDMDL
MODEL 3
REMARK VINA RESULT:      -7.3      3.923      6.824
REMARK  7 active torsions:
REMARK  status: ('A' for Active; 'I' for Inactive)
REMARK    1  A    between atoms: C2_2  and  N1_3 
REMARK    2  A    between atoms: N1_3  and  C3_4 
REMARK    3  A    between atoms: N1_3  and  C5_6 
REMARK    4  A    between atoms: C5_6  and  C6_7 
REMARK    5  A    between atoms: C6_7  and  C7_8 
REMARK    6  A    between atoms: C8_9  and  C9_10 
REMARK       I    between atoms: C9_10  and  N2_12 
REMARK    7  A    between atoms: N2_12  and  C10_13 
ROOT
HETATM    1  C10 UNL     1      23.972   3.238  50.381  1.00  0.00     0.087 A 
HETATM    2  C11 UNL     1      23.280   2.903  49.266  1.00  0.00     0.003 A 
HETATM    3  C12 UNL     1      22.679   2.084  50.161  1.00  0.00     0.095 A 
HETATM    4  C13 UNL     1      21.472   1.602  49.603  1.00  0.00     0.119 A 
HETATM    5  N3  UNL     1      20.375   0.831  49.892  1.00  0.00    -0.228 NA
HETATM    6  C14 UNL     1      20.347   0.297  51.166  1.00  0.00     0.230 A 
HETATM    7  N4  UNL     1      21.440   0.689  51.843  1.00  0.00    -0.265 NA
HETATM    8  C15 UNL     1      22.374   1.461  51.316  1.00  0.00     0.107 A 
HETATM    9  C16 UNL     1      23.115   1.817  52.468  1.00  0.00     0.001 A 
HETATM   10  C17 UNL     1      23.675   2.620  51.549  1.00  0.00     0.074 A 
HETATM   11  C18 UNL     1      24.060   3.874  52.283  1.00  0.00     0.199 C 
HETATM   12  F1  UNL     1      24.497   3.621  53.570  1.00  0.00    -0.247 F 
HETATM   13  C19 UNL     1      22.653   4.603  52.441  1.00  0.00     0.132 C 
HETATM   14  C20 UNL     1      21.894   4.278  51.258  1.00  0.00    -0.102 C 
HETATM   15  C21 UNL     1      21.280   3.991  50.287  1.00  0.00    -0.087 C 
HETATM   16  C22 UNL     1      20.557   3.625  49.121  1.00  0.00     0.215 C 
HETATM   17  N5  UNL     1      21.154   2.431  48.419  1.00  0.00    -0.367 N 
HETATM   18  H24 UNL     1      21.250   2.353  47.383  1.00  0.00     0.161 HD
ENDROOT
BRANCH   1  19
HETATM   19  N2  UNL     1      24.829   4.197  49.801  1.00  0.00    -0.335 N 
HETATM   20  C9  UNL     1      26.162   3.768  49.591  1.00  0.00     0.297 C 
HETATM   21  O1  UNL     1      26.480   2.591  49.926  1.00  0.00    -0.258 OA
HETATM   22  H15 UNL     1      24.569   5.166  49.524  1.00  0.00     0.164 HD
BRANCH  20  23
HETATM   23  C8  UNL     1      27.194   4.589  49.016  1.00  0.00    -0.006 C 
HETATM   24  C7  UNL     1      28.053   5.279  48.517  1.00  0.00    -0.095 C 
BRANCH  24  25
HETATM   25  C6  UNL     1      29.107   6.102  47.929  1.00  0.00     0.124 C 
BRANCH  25  26
HETATM   26  C5  UNL     1      30.331   5.214  47.850  1.00  0.00     0.284 C 
BRANCH  26  27
HETATM   27  N1  UNL     1      31.567   5.920  48.034  1.00  0.00     0.088 N 
BRANCH  27  28
HETATM   28  C2  UNL     1      32.729   5.083  47.809  1.00  0.00     0.268 C 
HETATM   29  C1  UNL     1      32.283   3.768  47.198  1.00  0.00     0.037 C 
ENDBRANCH  27  28
BRANCH  27  30
HETATM   30  C3  UNL     1      31.573   6.480  49.364  1.00  0.00     0.268 C 
HETATM   31  C4  UNL     1      32.103   7.875  49.339  1.00  0.00     0.037 C 
ENDBRANCH  27  30
ENDBRANCH  26  27
ENDBRANCH  25  26
ENDBRANCH  24  25
ENDBRANCH  20  23
ENDBRANCH   1  19
TORSDOF 7
ENDMDL
MODEL 4
REMARK VINA RESULT:      -7.1      2.142      3.118
REMARK  7 active torsions:
REMARK  status: ('A' for Active; 'I' for Inactive)
REMARK    1  A    between atoms: C2_2  and  N1_3 
REMARK    2  A    between atoms: N1_3  and  C3_4 
REMARK    3  A    between atoms: N1_3  and  C5_6 
REMARK    4  A    between atoms: C5_6  and  C6_7 
REMARK    5  A    between atoms: C6_7  and  C7_8 
REMARK    6  A    between atoms: C8_9  and  C9_10 
REMARK       I    between atoms: C9_10  and  N2_12 
REMARK    7  A    between atoms: N2_12  and  C10_13 
ROOT
HETATM    1  C10 UNL     1      26.941   7.002  48.590  1.00  0.00     0.087 A 
HETATM    2  C11 UNL     1      27.843   6.819  47.595  1.00  0.00     0.003 A 
HETATM    3  C12 UNL     1      27.258   7.962  47.165  1.00  0.00     0.095 A 
HETATM    4  C13 UNL     1      28.074   8.547  46.169  1.00  0.00     0.119 A 
HETATM    5  N3  UNL     1      28.175   9.649  45.358  1.00  0.00    -0.228 NA
HETATM    6  C14 UNL     1      27.167  10.583  45.502  1.00  0.00     0.230 A 
HETATM    7  N4  UNL     1      26.304  10.172  46.447  1.00  0.00    -0.265 NA
HETATM    8  C15 UNL     1      26.443   9.033  47.102  1.00  0.00     0.107 A 
HETATM    9  C16 UNL     1      25.501   9.201  48.145  1.00  0.00     0.001 A 
HETATM   10  C17 UNL     1      26.116   8.075  48.539  1.00  0.00     0.074 A 
HETATM   11  C18 UNL     1      26.112   8.111  50.042  1.00  0.00     0.199 C 
HETATM   12  F1  UNL     1      24.957   8.674  50.554  1.00  0.00    -0.247 F 
HETATM   13  C19 UNL     1      27.272   9.160  50.344  1.00  0.00     0.132 C 
HETATM   14  C20 UNL     1      28.259   8.980  49.308  1.00  0.00    -0.102 C 
HETATM   15  C21 UNL     1      29.054   8.829  48.443  1.00  0.00    -0.087 C 
HETATM   16  C22 UNL     1      29.987   8.640  47.391  1.00  0.00     0.215 C 
HETATM   17  N5  UNL     1      29.399   7.891  46.221  1.00  0.00    -0.367 N 
HETATM   18  H24 UNL     1      29.904   7.144  45.694  1.00  0.00     0.161 HD
ENDROOT
BRANCH   1  19
HETATM   19  N2  UNL     1      27.258   5.860  49.355  1.00  0.00    -0.335 N 
HETATM   20  C9  UNL     1      26.253   4.862  49.396  1.00  0.00     0.297 C 
HETATM   21  O1  UNL     1      25.178   5.058  48.761  1.00  0.00    -0.258 OA
HETATM   22  H15 UNL     1      28.143   5.696  49.879  1.00  0.00     0.164 HD
BRANCH  20  23
HETATM   23  C8  UNL     1      26.373   3.625  50.120  1.00  0.00    -0.006 C 
HETATM   24  C7  UNL     1      26.473   2.594  50.745  1.00  0.00    -0.095 C 
BRANCH  24  25
HETATM   25  C6  UNL     1      26.608   1.340  51.482  1.00  0.00     0.124 C 
BRANCH  25  26
HETATM   26  C5  UNL     1      26.707   1.725  52.942  1.00  0.00     0.284 C 
BRANCH  26  27
HETATM   27  N1  UNL     1      27.395   0.757  53.747  1.00  0.00     0.088 N 
BRANCH  27  28
HETATM   28  C2  UNL     1      27.775  -0.425  53.000  1.00  0.00     0.268 C 
HETATM   29  C1  UNL     1      29.106  -0.935  53.521  1.00  0.00     0.037 C 
ENDBRANCH  27  28
BRANCH  27  30
HETATM   30  C3  UNL     1      26.551   0.420  54.868  1.00  0.00     0.268 C 
HETATM   31  C4  UNL     1      25.460  -0.504  54.438  1.00  0.00     0.037 C 
ENDBRANCH  27  30
ENDBRANCH  26  27
ENDBRANCH  25  26
ENDBRANCH  24  25
ENDBRANCH  20  23
ENDBRANCH   1  19
TORSDOF 7
ENDMDL
MODEL 5
REMARK VINA RESULT:      -7.0      5.345      7.624
REMARK  7 active torsions:
REMARK  status: ('A' for Active; 'I' for Inactive)
REMARK    1  A    between atoms: C2_2  and  N1_3 
REMARK    2  A    between atoms: N1_3  and  C3_4 
REMARK    3  A    between atoms: N1_3  and  C5_6 
REMARK    4  A    between atoms: C5_6  and  C6_7 
REMARK    5  A    between atoms: C6_7  and  C7_8 
REMARK    6  A    between atoms: C8_9  and  C9_10 
REMARK       I    between atoms: C9_10  and  N2_12 
REMARK    7  A    between atoms: N2_12  and  C10_13 
ROOT
HETATM    1  C10 UNL     1      22.486   2.098  51.612  1.00  0.00     0.087 A 
HETATM    2  C11 UNL     1      23.511   1.285  51.966  1.00  0.00     0.003 A 
HETATM    3  C12 UNL     1      24.163   2.118  51.120  1.00  0.00     0.095 A 
HETATM    4  C13 UNL     1      25.556   1.965  51.309  1.00  0.00     0.119 A 
HETATM    5  N3  UNL     1      26.768   2.456  50.896  1.00  0.00    -0.228 NA
HETATM    6  C14 UNL     1      26.706   3.477  49.967  1.00  0.00     0.230 A 
HETATM    7  N4  UNL     1      25.420   3.759  49.693  1.00  0.00    -0.265 NA
HETATM    8  C15 UNL     1      24.409   3.117  50.250  1.00  0.00     0.107 A 
HETATM    9  C16 UNL     1      23.323   3.949  49.884  1.00  0.00     0.001 A 
HETATM   10  C17 UNL     1      22.719   3.106  50.739  1.00  0.00     0.074 A 
HETATM   11  C18 UNL     1      21.654   3.914  51.425  1.00  0.00     0.199 C 
HETATM   12  F1  UNL     1      21.064   4.837  50.581  1.00  0.00    -0.247 F 
HETATM   13  C19 UNL     1      22.510   4.766  52.463  1.00  0.00     0.132 C 
HETATM   14  C20 UNL     1      23.605   3.920  52.873  1.00  0.00    -0.102 C 
HETATM   15  C21 UNL     1      24.506   3.219  53.189  1.00  0.00    -0.087 C 
HETATM   16  C22 UNL     1      25.583   2.366  53.545  1.00  0.00     0.215 C 
HETATM   17  N5  UNL     1      25.766   1.226  52.574  1.00  0.00    -0.367 N 
HETATM   18  H24 UNL     1      25.978   0.245  52.861  1.00  0.00     0.161 HD
ENDROOT
BRANCH   1  19
HETATM   19  N2  UNL     1      21.473   1.482  52.376  1.00  0.00    -0.335 N 
HETATM   20  C9  UNL     1      20.603   0.630  51.653  1.00  0.00     0.297 C 
HETATM   21  O1  UNL     1      20.792   0.484  50.411  1.00  0.00    -0.258 OA
HETATM   22  H15 UNL     1      21.316   1.601  53.399  1.00  0.00     0.164 HD
BRANCH  20  23
HETATM   23  C8  UNL     1      19.505  -0.090  52.240  1.00  0.00    -0.006 C 
HETATM   24  C7  UNL     1      18.590  -0.695  52.750  1.00  0.00    -0.095 C 
BRANCH  24  25
HETATM   25  C6  UNL     1      17.481  -1.438  53.345  1.00  0.00     0.124 C 
BRANCH  25  26
HETATM   26  C5  UNL     1      16.300  -1.229  52.421  1.00  0.00     0.284 C 
BRANCH  26  27
HETATM   27  N1  UNL     1      15.854   0.133  52.356  1.00  0.00     0.088 N 
BRANCH  27  28
HETATM   28  C2  UNL     1      14.621   0.355  53.086  1.00  0.00     0.268 C 
HETATM   29  C1  UNL     1      14.191   1.799  52.907  1.00  0.00     0.037 C 
ENDBRANCH  27  28
BRANCH  27  30
HETATM   30  C3  UNL     1      15.713   0.496  50.967  1.00  0.00     0.268 C 
HETATM   31  C4  UNL     1      15.687  -0.725  50.109  1.00  0.00     0.037 C 
ENDBRANCH  27  30
ENDBRANCH  26  27
ENDBRANCH  25  26
ENDBRANCH  24  25
ENDBRANCH  20  23
ENDBRANCH   1  19
TORSDOF 7
ENDMDL
MODEL 6
REMARK VINA RESULT:      -6.8      4.148      5.964
REMARK  7 active torsions:
REMARK  status: ('A' for Active; 'I' for Inactive)
REMARK    1  A    between atoms: C2_2  and  N1_3 
REMARK    2  A    between atoms: N1_3  and  C3_4 
REMARK    3  A    between atoms: N1_3  and  C5_6 
REMARK    4  A    between atoms: C5_6  and  C6_7 
REMARK    5  A    between atoms: C6_7  and  C7_8 
REMARK    6  A    between atoms: C8_9  and  C9_10 
REMARK       I    between atoms: C9_10  and  N2_12 
REMARK    7  A    between atoms: N2_12  and  C10_13 
ROOT
HETATM    1  C10 UNL     1      22.499   2.674  50.873  1.00  0.00     0.087 A 
HETATM    2  C11 UNL     1      21.843   2.368  52.019  1.00  0.00     0.003 A 
HETATM    3  C12 UNL     1      20.849   2.996  51.348  1.00  0.00     0.095 A 
HETATM    4  C13 UNL     1      19.617   2.706  51.979  1.00  0.00     0.119 A 
HETATM    5  N3  UNL     1      18.265   2.916  51.870  1.00  0.00    -0.228 NA
HETATM    6  C14 UNL     1      17.870   3.661  50.775  1.00  0.00     0.230 A 
HETATM    7  N4  UNL     1      18.949   4.003  50.050  1.00  0.00    -0.265 NA
HETATM    8  C15 UNL     1      20.180   3.658  50.385  1.00  0.00     0.107 A 
HETATM    9  C16 UNL     1      20.885   3.979  49.200  1.00  0.00     0.001 A 
HETATM   10  C17 UNL     1      21.838   3.339  49.896  1.00  0.00     0.074 A 
HETATM   11  C18 UNL     1      22.683   2.629  48.876  1.00  0.00     0.199 C 
HETATM   12  F1  UNL     1      22.825   3.357  47.708  1.00  0.00    -0.247 F 
HETATM   13  C19 UNL     1      21.760   1.387  48.499  1.00  0.00     0.132 C 
HETATM   14  C20 UNL     1      21.057   1.024  49.705  1.00  0.00    -0.102 C 
HETATM   15  C21 UNL     1      20.478   0.749  50.700  1.00  0.00    -0.087 C 
HETATM   16  C22 UNL     1      19.786   0.442  51.901  1.00  0.00     0.215 C 
HETATM   17  N5  UNL     1      19.833   1.570  52.902  1.00  0.00    -0.367 N 
HETATM   18  H24 UNL     1      19.983   1.434  53.926  1.00  0.00     0.161 HD
ENDROOT
BRANCH   1  19
HETATM   19  N2  UNL     1      23.753   2.122  51.210  1.00  0.00    -0.335 N 
HETATM   20  C9  UNL     1      24.659   3.016  51.833  1.00  0.00     0.297 C 
HETATM   21  O1  UNL     1      24.291   4.207  52.038  1.00  0.00    -0.258 OA
HETATM   22  H15 UNL     1      24.058   1.141  51.043  1.00  0.00     0.164 HD
BRANCH  20  23
HETATM   23  C8  UNL     1      25.987   2.657  52.252  1.00  0.00    -0.006 C 
HETATM   24  C7  UNL     1      27.098   2.348  52.620  1.00  0.00    -0.095 C 
BRANCH  24  25
HETATM   25  C6  UNL     1      28.448   1.995  53.052  1.00  0.00     0.124 C 
BRANCH  25  26
HETATM   26  C5  UNL     1      28.295   0.773  53.933  1.00  0.00     0.284 C 
BRANCH  26  27
HETATM   27  N1  UNL     1      27.424  -0.227  53.383  1.00  0.00     0.088 N 
BRANCH  27  28
HETATM   28  C2  UNL     1      26.269  -0.484  54.220  1.00  0.00     0.268 C 
HETATM   29  C1  UNL     1      25.053  -0.692  53.336  1.00  0.00     0.037 C 
ENDBRANCH  27  28
BRANCH  27  30
HETATM   30  C3  UNL     1      28.194  -1.428  53.169  1.00  0.00     0.268 C 
HETATM   31  C4  UNL     1      29.625  -1.200  53.527  1.00  0.00     0.037 C 
ENDBRANCH  27  30
ENDBRANCH  26  27
ENDBRANCH  25  26
ENDBRANCH  24  25
ENDBRANCH  20  23
ENDBRANCH   1  19
TORSDOF 7
ENDMDL
MODEL 7
REMARK VINA RESULT:      -6.8      3.717      7.082
REMARK  7 active torsions:
REMARK  status: ('A' for Active; 'I' for Inactive)
REMARK    1  A    between atoms: C2_2  and  N1_3 
REMARK    2  A    between atoms: N1_3  and  C3_4 
REMARK    3  A    between atoms: N1_3  and  C5_6 
REMARK    4  A    between atoms: C5_6  and  C6_7 
REMARK    5  A    between atoms: C6_7  and  C7_8 
REMARK    6  A    between atoms: C8_9  and  C9_10 
REMARK       I    between atoms: C9_10  and  N2_12 
REMARK    7  A    between atoms: N2_12  and  C10_13 
ROOT
HETATM    1  C10 UNL     1      23.326   3.906  49.629  1.00  0.00     0.087 A 
HETATM    2  C11 UNL     1      23.445   3.561  50.934  1.00  0.00     0.003 A 
HETATM    3  C12 UNL     1      22.104   3.736  50.866  1.00  0.00     0.095 A 
HETATM    4  C13 UNL     1      21.508   3.150  52.007  1.00  0.00     0.119 A 
HETATM    5  N3  UNL     1      20.290   2.894  52.584  1.00  0.00    -0.228 NA
HETATM    6  C14 UNL     1      19.192   3.316  51.859  1.00  0.00     0.230 A 
HETATM    7  N4  UNL     1      19.602   3.888  50.714  1.00  0.00    -0.265 NA
HETATM    8  C15 UNL     1      20.876   4.010  50.386  1.00  0.00     0.107 A 
HETATM    9  C16 UNL     1      20.772   4.379  49.023  1.00  0.00     0.001 A 
HETATM   10  C17 UNL     1      22.096   4.183  49.132  1.00  0.00     0.074 A 
HETATM   11  C18 UNL     1      22.543   3.655  47.799  1.00  0.00     0.199 C 
HETATM   12  F1  UNL     1      21.851   4.225  46.745  1.00  0.00    -0.247 F 
HETATM   13  C19 UNL     1      22.051   2.142  47.867  1.00  0.00     0.132 C 
HETATM   14  C20 UNL     1      22.180   1.737  49.246  1.00  0.00    -0.102 C 
HETATM   15  C21 UNL     1      22.280   1.425  50.384  1.00  0.00    -0.087 C 
HETATM   16  C22 UNL     1      22.396   1.075  51.754  1.00  0.00     0.215 C 
HETATM   17  N5  UNL     1      22.516   2.281  52.653  1.00  0.00    -0.367 N 
HETATM   18  H24 UNL     1      23.171   2.340  53.464  1.00  0.00     0.161 HD
ENDROOT
BRANCH   1  19
HETATM   19  N2  UNL     1      24.691   3.842  49.282  1.00  0.00    -0.335 N 
HETATM   20  C9  UNL     1      25.344   5.093  49.161  1.00  0.00     0.297 C 
HETATM   21  O1  UNL     1      24.678   6.147  49.368  1.00  0.00    -0.258 OA
HETATM   22  H15 UNL     1      25.243   2.975  49.111  1.00  0.00     0.164 HD
BRANCH  20  23
HETATM   23  C8  UNL     1      26.731   5.250  48.812  1.00  0.00    -0.006 C 
HETATM   24  C7  UNL     1      27.899   5.394  48.533  1.00  0.00    -0.095 C 
BRANCH  24  25
HETATM   25  C6  UNL     1      29.304   5.564  48.171  1.00  0.00     0.124 C 
BRANCH  25  26
HETATM   26  C5  UNL     1      29.453   7.012  47.753  1.00  0.00     0.284 C 
BRANCH  26  27
HETATM   27  N1  UNL     1      30.013   7.851  48.773  1.00  0.00     0.088 N 
BRANCH  27  28
HETATM   28  C2  UNL     1      29.141   8.951  49.136  1.00  0.00     0.268 C 
HETATM   29  C1  UNL     1      29.768  10.254  48.675  1.00  0.00     0.037 C 
ENDBRANCH  27  28
BRANCH  27  30
HETATM   30  C3  UNL     1      31.294   8.328  48.312  1.00  0.00     0.268 C 
HETATM   31  C4  UNL     1      32.400   7.611  49.013  1.00  0.00     0.037 C 
ENDBRANCH  27  30
ENDBRANCH  26  27
ENDBRANCH  25  26
ENDBRANCH  24  25
ENDBRANCH  20  23
ENDBRANCH   1  19
TORSDOF 7
ENDMDL
MODEL 8
REMARK VINA RESULT:      -6.8      5.115      6.682
REMARK  7 active torsions:
REMARK  status: ('A' for Active; 'I' for Inactive)
REMARK    1  A    between atoms: C2_2  and  N1_3 
REMARK    2  A    between atoms: N1_3  and  C3_4 
REMARK    3  A    between atoms: N1_3  and  C5_6 
REMARK    4  A    between atoms: C5_6  and  C6_7 
REMARK    5  A    between atoms: C6_7  and  C7_8 
REMARK    6  A    between atoms: C8_9  and  C9_10 
REMARK       I    between atoms: C9_10  and  N2_12 
REMARK    7  A    between atoms: N2_12  and  C10_13 
ROOT
HETATM    1  C10 UNL     1      30.595   6.961  47.809  1.00  0.00     0.087 A 
HETATM    2  C11 UNL     1      31.307   6.136  47.005  1.00  0.00     0.003 A 
HETATM    3  C12 UNL     1      31.774   7.332  46.575  1.00  0.00     0.095 A 
HETATM    4  C13 UNL     1      32.954   7.119  45.825  1.00  0.00     0.119 A 
HETATM    5  N3  UNL     1      33.951   7.785  45.158  1.00  0.00    -0.228 NA
HETATM    6  C14 UNL     1      33.859   9.164  45.182  1.00  0.00     0.230 A 
HETATM    7  N4  UNL     1      32.776   9.530  45.890  1.00  0.00    -0.265 NA
HETATM    8  C15 UNL     1      31.954   8.661  46.449  1.00  0.00     0.107 A 
HETATM    9  C16 UNL     1      31.193   9.507  47.291  1.00  0.00     0.001 A 
HETATM   10  C17 UNL     1      30.766   8.300  47.694  1.00  0.00     0.074 A 
HETATM   11  C18 UNL     1      30.472   8.439  49.161  1.00  0.00     0.199 C 
HETATM   12  F1  UNL     1      29.945   9.678  49.479  1.00  0.00    -0.247 F 
HETATM   13  C19 UNL     1      31.935   8.419  49.790  1.00  0.00     0.132 C 
HETATM   14  C20 UNL     1      32.718   7.534  48.963  1.00  0.00    -0.102 C 
HETATM   15  C21 UNL     1      33.350   6.815  48.266  1.00  0.00    -0.087 C 
HETATM   16  C22 UNL     1      34.092   5.958  47.411  1.00  0.00     0.215 C 
HETATM   17  N5  UNL     1      33.416   5.737  46.081  1.00  0.00    -0.367 N 
HETATM   18  H24 UNL     1      33.366   4.812  45.600  1.00  0.00     0.161 HD
ENDROOT
BRANCH   1  19
HETATM   19  N2  UNL     1      29.871   5.976  48.512  1.00  0.00    -0.335 N 
HETATM   20  C9  UNL     1      28.488   5.911  48.211  1.00  0.00     0.297 C 
HETATM   21  O1  UNL     1      28.016   6.715  47.358  1.00  0.00    -0.258 OA
HETATM   22  H15 UNL     1      30.258   5.312  49.215  1.00  0.00     0.164 HD
BRANCH  20  23
HETATM   23  C8  UNL     1      27.572   4.982  48.817  1.00  0.00    -0.006 C 
HETATM   24  C7  UNL     1      26.794   4.215  49.336  1.00  0.00    -0.095 C 
BRANCH  24  25
HETATM   25  C6  UNL     1      25.872   3.270  49.962  1.00  0.00     0.124 C 
BRANCH  25  26
HETATM   26  C5  UNL     1      26.666   2.572  51.046  1.00  0.00     0.284 C 
BRANCH  26  27
HETATM   27  N1  UNL     1      25.852   1.852  51.982  1.00  0.00     0.088 N 
BRANCH  27  28
HETATM   28  C2  UNL     1      24.816   2.676  52.574  1.00  0.00     0.268 C 
HETATM   29  C1  UNL     1      23.530   1.874  52.655  1.00  0.00     0.037 C 
ENDBRANCH  27  28
BRANCH  27  30
HETATM   30  C3  UNL     1      26.716   1.290  52.993  1.00  0.00     0.268 C 
HETATM   31  C4  UNL     1      27.836   2.228  53.301  1.00  0.00     0.037 C 
ENDBRANCH  27  30
ENDBRANCH  26  27
ENDBRANCH  25  26
ENDBRANCH  24  25
ENDBRANCH  20  23
ENDBRANCH   1  19
TORSDOF 7
ENDMDL
MODEL 9
REMARK VINA RESULT:      -6.6      6.123      8.807
REMARK  7 active torsions:
REMARK  status: ('A' for Active; 'I' for Inactive)
REMARK    1  A    between atoms: C2_2  and  N1_3 
REMARK    2  A    between atoms: N1_3  and  C3_4 
REMARK    3  A    between atoms: N1_3  and  C5_6 
REMARK    4  A    between atoms: C5_6  and  C6_7 
REMARK    5  A    between atoms: C6_7  and  C7_8 
REMARK    6  A    between atoms: C8_9  and  C9_10 
REMARK       I    between atoms: C9_10  and  N2_12 
REMARK    7  A    between atoms: N2_12  and  C10_13 
ROOT
HETATM    1  C10 UNL     1      21.172   3.212  50.500  1.00  0.00     0.087 A 
HETATM    2  C11 UNL     1      21.634   4.480  50.382  1.00  0.00     0.003 A 
HETATM    3  C12 UNL     1      22.802   3.831  50.606  1.00  0.00     0.095 A 
HETATM    4  C13 UNL     1      23.874   4.685  50.257  1.00  0.00     0.119 A 
HETATM    5  N3  UNL     1      25.242   4.726  50.162  1.00  0.00    -0.228 NA
HETATM    6  C14 UNL     1      25.893   3.556  50.503  1.00  0.00     0.230 A 
HETATM    7  N4  UNL     1      24.990   2.622  50.847  1.00  0.00    -0.265 NA
HETATM    8  C15 UNL     1      23.688   2.847  50.850  1.00  0.00     0.107 A 
HETATM    9  C16 UNL     1      23.184   1.530  50.980  1.00  0.00     0.001 A 
HETATM   10  C17 UNL     1      22.052   2.211  50.744  1.00  0.00     0.074 A 
HETATM   11  C18 UNL     1      21.166   1.276  49.971  1.00  0.00     0.199 C 
HETATM   12  F1  UNL     1      21.298  -0.038  50.381  1.00  0.00    -0.247 F 
HETATM   13  C19 UNL     1      21.814   1.340  48.518  1.00  0.00     0.132 C 
HETATM   14  C20 UNL     1      22.305   2.687  48.354  1.00  0.00    -0.102 C 
HETATM   15  C21 UNL     1      22.714   3.793  48.240  1.00  0.00    -0.087 C 
HETATM   16  C22 UNL     1      23.206   5.119  48.130  1.00  0.00     0.215 C 
HETATM   17  N5  UNL     1      23.324   5.808  49.466  1.00  0.00    -0.367 N 
HETATM   18  H24 UNL     1      23.054   6.802  49.635  1.00  0.00     0.161 HD
ENDROOT
BRANCH   1  19
HETATM   19  N2  UNL     1      19.801   3.483  50.312  1.00  0.00    -0.335 N 
HETATM   20  C9  UNL     1      19.016   3.484  51.492  1.00  0.00     0.297 C 
HETATM   21  O1  UNL     1      19.584   3.249  52.596  1.00  0.00    -0.258 OA
HETATM   22  H15 UNL     1      19.331   3.677  49.403  1.00  0.00     0.164 HD
BRANCH  20  23
HETATM   23  C8  UNL     1      17.600   3.734  51.520  1.00  0.00    -0.006 C 
HETATM   24  C7  UNL     1      16.411   3.950  51.560  1.00  0.00    -0.095 C 
BRANCH  24  25
HETATM   25  C6  UNL     1      14.970   4.192  51.595  1.00  0.00     0.124 C 
BRANCH  25  26
HETATM   26  C5  UNL     1      14.339   2.877  52.000  1.00  0.00     0.284 C 
BRANCH  26  27
HETATM   27  N1  UNL     1      13.059   3.025  52.632  1.00  0.00     0.088 N 
BRANCH  27  28
HETATM   28  C2  UNL     1      12.915   4.293  53.318  1.00  0.00     0.268 C 
HETATM   29  C1  UNL     1      12.090   4.088  54.575  1.00  0.00     0.037 C 
ENDBRANCH  27  28
BRANCH  27  30
HETATM   30  C3  UNL     1      12.872   1.916  53.537  1.00  0.00     0.268 C 
HETATM   31  C4  UNL     1      13.924   0.881  53.317  1.00  0.00     0.037 C 
ENDBRANCH  27  30
ENDBRANCH  26  27
ENDBRANCH  25  26
ENDBRANCH  24  25
ENDBRANCH  20  23
ENDBRANCH   1  19
TORSDOF 7
ENDMDL
