MODEL 1
REMARK VINA RESULT:      -7.9      0.000      0.000
REMARK  6 active torsions:
REMARK  status: ('A' for Active; 'I' for Inactive)
REMARK    1  A    between atoms: C2_2  and  C3_3 
REMARK    2  A    between atoms: C5_7  and  N3_8 
REMARK    3  A    between atoms: N3_8  and  C6_9 
REMARK    4  A    between atoms: C12_17  and  C13_18 
REMARK    5  A    between atoms: C13_18  and  C14_19 
REMARK    6  A    between atoms: C14_19  and  N4_20 
REMARK       I    between atoms: N4_20  and  C15_21 
REMARK       I    between atoms: C15_21  and  N5_22 
ROOT
HETATM    1  C3  UNL     1      21.599  -0.618  53.885  1.00  0.00     0.113 A 
HETATM    2  N1  UNL     1      21.772  -1.327  54.976  1.00  0.00    -0.233 NA
HETATM    3  C4  UNL     1      23.045  -1.448  55.397  1.00  0.00     0.236 A 
HETATM    4  N2  UNL     1      24.041  -0.870  54.723  1.00  0.00    -0.223 NA
HETATM    5  C5  UNL     1      23.872  -0.147  53.610  1.00  0.00     0.142 A 
HETATM    6  C12 UNL     1      22.586  -0.002  53.150  1.00  0.00     0.044 A 
ENDROOT
BRANCH   5   7
HETATM    7  N3  UNL     1      25.005   0.407  52.995  1.00  0.00    -0.340 N 
HETATM    8  H4  UNL     1      24.831   1.144  52.307  1.00  0.00     0.167 HD
BRANCH   7   9
HETATM    9  C6  UNL     1      26.369   0.110  53.173  1.00  0.00     0.035 A 
HETATM   10  C7  UNL     1      26.981  -1.081  52.881  1.00  0.00     0.032 A 
HETATM   11  C8  UNL     1      28.313  -1.369  53.065  1.00  0.00     0.046 A 
HETATM   12  C9  UNL     1      29.107  -0.373  53.589  1.00  0.00     0.138 A 
HETATM   13  F1  UNL     1      30.429  -0.578  53.802  1.00  0.00    -0.204 F 
HETATM   14  C10 UNL     1      28.579   0.855  53.913  1.00  0.00     0.074 A 
HETATM   15 CL1  UNL     1      29.591   2.101  54.573  1.00  0.00    -0.081 Cl
HETATM   16  C11 UNL     1      27.237   1.049  53.693  1.00  0.00     0.056 A 
ENDBRANCH   7   9
ENDBRANCH   5   7
BRANCH   6  17
HETATM   17  C13 UNL     1      22.300   0.679  52.076  1.00  0.00     0.011 C 
BRANCH  17  18
HETATM   18  C14 UNL     1      22.377   1.942  51.340  1.00  0.00     0.152 C 
BRANCH  18  19
HETATM   19  N4  UNL     1      22.399   3.125  52.204  1.00  0.00    -0.340 N 
HETATM   20  C15 UNL     1      23.675   3.721  52.345  1.00  0.00     0.314 C 
HETATM   21  N5  UNL     1      23.720   4.873  53.181  1.00  0.00    -0.352 N 
HETATM   22  O1  UNL     1      24.673   3.227  51.751  1.00  0.00    -0.248 OA
HETATM   23  H12 UNL     1      24.112   4.888  54.157  1.00  0.00     0.160 HD
HETATM   24  H13 UNL     1      23.430   5.862  53.083  1.00  0.00     0.160 HD
HETATM   25  H11 UNL     1      21.522   3.466  52.657  1.00  0.00     0.164 HD
ENDBRANCH  18  19
ENDBRANCH  17  18
ENDBRANCH   6  17
BRANCH   1  26
HETATM   26  C2  UNL     1      20.340  -0.549  53.544  1.00  0.00    -0.123 C 
HETATM   27  C1  UNL     1      19.075  -0.721  53.278  1.00  0.00     0.099 C 
ENDBRANCH   1  26
TORSDOF 6
ENDMDL
MODEL 2
REMARK VINA RESULT:      -7.8      2.401      4.402
REMARK  6 active torsions:
REMARK  status: ('A' for Active; 'I' for Inactive)
REMARK    1  A    between atoms: C2_2  and  C3_3 
REMARK    2  A    between atoms: C5_7  and  N3_8 
REMARK    3  A    between atoms: N3_8  and  C6_9 
REMARK    4  A    between atoms: C12_17  and  C13_18 
REMARK    5  A    between atoms: C13_18  and  C14_19 
REMARK    6  A    between atoms: C14_19  and  N4_20 
REMARK       I    between atoms: N4_20  and  C15_21 
REMARK       I    between atoms: C15_21  and  N5_22 
ROOT
HETATM    1  C3  UNL     1      23.333   2.269  50.530  1.00  0.00     0.113 A 
HETATM    2  N1  UNL     1      23.780   2.949  49.500  1.00  0.00    -0.233 NA
HETATM    3  C4  UNL     1      25.014   3.468  49.635  1.00  0.00     0.236 A 
HETATM    4  N2  UNL     1      25.711   3.281  50.758  1.00  0.00    -0.223 NA
HETATM    5  C5  UNL     1      25.262   2.588  51.811  1.00  0.00     0.142 A 
HETATM    6  C12 UNL     1      24.005   2.045  51.710  1.00  0.00     0.044 A 
ENDROOT
BRANCH   5   7
HETATM    7  N3  UNL     1      26.094   2.466  52.934  1.00  0.00    -0.340 N 
HETATM    8  H4  UNL     1      25.926   3.128  53.695  1.00  0.00     0.167 HD
BRANCH   7   9
HETATM    9  C6  UNL     1      27.142   1.563  53.191  1.00  0.00     0.035 A 
HETATM   10  C7  UNL     1      28.366   1.877  53.722  1.00  0.00     0.032 A 
HETATM   11  C8  UNL     1      29.392   0.991  53.963  1.00  0.00     0.046 A 
HETATM   12  C9  UNL     1      29.171  -0.331  53.643  1.00  0.00     0.138 A 
HETATM   13  F1  UNL     1      30.130  -1.264  53.849  1.00  0.00    -0.204 F 
HETATM   14  C10 UNL     1      27.972  -0.737  53.106  1.00  0.00     0.074 A 
HETATM   15 CL1  UNL     1      27.708  -2.406  52.709  1.00  0.00    -0.081 Cl
HETATM   16  C11 UNL     1      27.008   0.220  52.902  1.00  0.00     0.056 A 
ENDBRANCH   7   9
ENDBRANCH   5   7
BRANCH   6  17
HETATM   17  C13 UNL     1      23.463   1.352  52.673  1.00  0.00     0.011 C 
BRANCH  17  18
HETATM   18  C14 UNL     1      23.226   0.048  53.293  1.00  0.00     0.152 C 
BRANCH  18  19
HETATM   19  N4  UNL     1      21.839  -0.409  53.190  1.00  0.00    -0.340 N 
HETATM   20  C15 UNL     1      21.397  -1.186  54.288  1.00  0.00     0.314 C 
HETATM   21  N5  UNL     1      20.050  -1.641  54.208  1.00  0.00    -0.352 N 
HETATM   22  O1  UNL     1      22.181  -1.431  55.246  1.00  0.00    -0.248 OA
HETATM   23  H12 UNL     1      19.766  -2.628  53.984  1.00  0.00     0.160 HD
HETATM   24  H13 UNL     1      19.120  -1.205  54.330  1.00  0.00     0.160 HD
HETATM   25  H11 UNL     1      21.260  -0.158  52.358  1.00  0.00     0.164 HD
ENDBRANCH  18  19
ENDBRANCH  17  18
ENDBRANCH   6  17
BRANCH   1  26
HETATM   26  C2  UNL     1      22.131   1.801  50.321  1.00  0.00    -0.123 C 
HETATM   27  C1  UNL     1      20.992   1.358  49.869  1.00  0.00     0.099 C 
ENDBRANCH   1  26
TORSDOF 6
ENDMDL
MODEL 3
REMARK VINA RESULT:      -7.4      2.156      2.934
REMARK  6 active torsions:
REMARK  status: ('A' for Active; 'I' for Inactive)
REMARK    1  A    between atoms: C2_2  and  C3_3 
REMARK    2  A    between atoms: C5_7  and  N3_8 
REMARK    3  A    between atoms: N3_8  and  C6_9 
REMARK    4  A    between atoms: C12_17  and  C13_18 
REMARK    5  A    between atoms: C13_18  and  C14_19 
REMARK    6  A    between atoms: C14_19  and  N4_20 
REMARK       I    between atoms: N4_20  and  C15_21 
REMARK       I    between atoms: C15_21  and  N5_22 
ROOT
HETATM    1  C3  UNL     1      22.425   1.058  51.163  1.00  0.00     0.113 A 
HETATM    2  N1  UNL     1      21.761   0.235  51.941  1.00  0.00    -0.233 NA
HETATM    3  C4  UNL     1      22.342  -0.047  53.122  1.00  0.00     0.236 A 
HETATM    4  N2  UNL     1      23.519   0.494  53.447  1.00  0.00    -0.223 NA
HETATM    5  C5  UNL     1      24.201   1.334  52.659  1.00  0.00     0.142 A 
HETATM    6  C12 UNL     1      23.638   1.644  51.445  1.00  0.00     0.044 A 
ENDROOT
BRANCH   5   7
HETATM    7  N3  UNL     1      25.429   1.832  53.118  1.00  0.00    -0.340 N 
HETATM    8  H4  UNL     1      25.442   2.817  53.393  1.00  0.00     0.167 HD
BRANCH   7   9
HETATM    9  C6  UNL     1      26.670   1.187  53.267  1.00  0.00     0.035 A 
HETATM   10  C7  UNL     1      27.848   1.778  53.644  1.00  0.00     0.032 A 
HETATM   11  C8  UNL     1      29.061   1.144  53.780  1.00  0.00     0.046 A 
HETATM   12  C9  UNL     1      29.099  -0.208  53.513  1.00  0.00     0.138 A 
HETATM   13  F1  UNL     1      30.256  -0.905  53.622  1.00  0.00    -0.204 F 
HETATM   14  C10 UNL     1      27.965  -0.884  53.128  1.00  0.00     0.074 A 
HETATM   15 CL1  UNL     1      28.029  -2.587  52.795  1.00  0.00    -0.081 Cl
HETATM   16  C11 UNL     1      26.800  -0.165  53.020  1.00  0.00     0.056 A 
ENDBRANCH   7   9
ENDBRANCH   5   7
BRANCH   6  17
HETATM   17  C13 UNL     1      24.212   2.449  50.594  1.00  0.00     0.011 C 
BRANCH  17  18
HETATM   18  C14 UNL     1      24.427   3.816  50.118  1.00  0.00     0.152 C 
BRANCH  18  19
HETATM   19  N4  UNL     1      24.732   4.770  51.188  1.00  0.00    -0.340 N 
HETATM   20  C15 UNL     1      24.191   6.063  50.989  1.00  0.00     0.314 C 
HETATM   21  N5  UNL     1      24.475   7.006  52.017  1.00  0.00    -0.352 N 
HETATM   22  O1  UNL     1      23.512   6.312  49.955  1.00  0.00    -0.248 OA
HETATM   23  H12 UNL     1      25.175   7.786  51.935  1.00  0.00     0.160 HD
HETATM   24  H13 UNL     1      24.130   7.168  52.979  1.00  0.00     0.160 HD
HETATM   25  H11 UNL     1      25.304   4.476  52.011  1.00  0.00     0.164 HD
ENDBRANCH  18  19
ENDBRANCH  17  18
ENDBRANCH   6  17
BRANCH   1  26
HETATM   26  C2  UNL     1      21.796   1.280  50.039  1.00  0.00    -0.123 C 
HETATM   27  C1  UNL     1      21.066   1.275  48.959  1.00  0.00     0.099 C 
ENDBRANCH   1  26
TORSDOF 6
ENDMDL
MODEL 4
REMARK VINA RESULT:      -7.2      3.649      6.423
REMARK  6 active torsions:
REMARK  status: ('A' for Active; 'I' for Inactive)
REMARK    1  A    between atoms: C2_2  and  C3_3 
REMARK    2  A    between atoms: C5_7  and  N3_8 
REMARK    3  A    between atoms: N3_8  and  C6_9 
REMARK    4  A    between atoms: C12_17  and  C13_18 
REMARK    5  A    between atoms: C13_18  and  C14_19 
REMARK    6  A    between atoms: C14_19  and  N4_20 
REMARK       I    between atoms: N4_20  and  C15_21 
REMARK       I    between atoms: C15_21  and  N5_22 
ROOT
HETATM    1  C3  UNL     1      28.324   0.000  53.596  1.00  0.00     0.113 A 
HETATM    2  N1  UNL     1      29.407   0.726  53.750  1.00  0.00    -0.233 NA
HETATM    3  C4  UNL     1      29.209   2.052  53.871  1.00  0.00     0.236 A 
HETATM    4  N2  UNL     1      27.975   2.560  53.832  1.00  0.00    -0.223 NA
HETATM    5  C5  UNL     1      26.867   1.828  53.677  1.00  0.00     0.142 A 
HETATM    6  C12 UNL     1      27.030   0.470  53.550  1.00  0.00     0.044 A 
ENDROOT
BRANCH   5   7
HETATM    7  N3  UNL     1      25.628   2.486  53.653  1.00  0.00    -0.340 N 
HETATM    8  H4  UNL     1      25.275   2.818  54.553  1.00  0.00     0.167 HD
BRANCH   7   9
HETATM    9  C6  UNL     1      24.775   2.771  52.570  1.00  0.00     0.035 A 
HETATM   10  C7  UNL     1      25.125   2.775  51.245  1.00  0.00     0.032 A 
HETATM   11  C8  UNL     1      24.289   3.063  50.191  1.00  0.00     0.046 A 
HETATM   12  C9  UNL     1      22.981   3.376  50.492  1.00  0.00     0.138 A 
HETATM   13  F1  UNL     1      22.095   3.673  49.511  1.00  0.00    -0.204 F 
HETATM   14  C10 UNL     1      22.540   3.396  51.795  1.00  0.00     0.074 A 
HETATM   15 CL1  UNL     1      20.889   3.792  52.157  1.00  0.00    -0.081 Cl
HETATM   16  C11 UNL     1      23.449   3.094  52.779  1.00  0.00     0.056 A 
ENDBRANCH   7   9
ENDBRANCH   5   7
BRANCH   6  17
HETATM   17  C13 UNL     1      26.023  -0.344  53.391  1.00  0.00     0.011 C 
BRANCH  17  18
HETATM   18  C14 UNL     1      24.912  -1.087  53.987  1.00  0.00     0.152 C 
BRANCH  18  19
HETATM   19  N4  UNL     1      23.613  -0.428  53.830  1.00  0.00    -0.340 N 
HETATM   20  C15 UNL     1      22.631  -0.845  54.759  1.00  0.00     0.314 C 
HETATM   21  N5  UNL     1      21.360  -0.216  54.625  1.00  0.00    -0.352 N 
HETATM   22  O1  UNL     1      22.911  -1.717  55.627  1.00  0.00    -0.248 OA
HETATM   23  H12 UNL     1      20.508  -0.675  54.213  1.00  0.00     0.160 HD
HETATM   24  H13 UNL     1      20.974   0.715  54.856  1.00  0.00     0.160 HD
HETATM   25  H11 UNL     1      23.469   0.286  53.080  1.00  0.00     0.164 HD
ENDBRANCH  18  19
ENDBRANCH  17  18
ENDBRANCH   6  17
BRANCH   1  26
HETATM   26  C2  UNL     1      28.600  -1.271  53.486  1.00  0.00    -0.123 C 
HETATM   27  C1  UNL     1      28.832  -2.504  53.130  1.00  0.00     0.099 C 
ENDBRANCH   1  26
TORSDOF 6
ENDMDL
MODEL 5
REMARK VINA RESULT:      -7.2      2.534      3.614
REMARK  6 active torsions:
REMARK  status: ('A' for Active; 'I' for Inactive)
REMARK    1  A    between atoms: C2_2  and  C3_3 
REMARK    2  A    between atoms: C5_7  and  N3_8 
REMARK    3  A    between atoms: N3_8  and  C6_9 
REMARK    4  A    between atoms: C12_17  and  C13_18 
REMARK    5  A    between atoms: C13_18  and  C14_19 
REMARK    6  A    between atoms: C14_19  and  N4_20 
REMARK       I    between atoms: N4_20  and  C15_21 
REMARK       I    between atoms: C15_21  and  N5_22 
ROOT
HETATM    1  C3  UNL     1      22.423   1.637  50.045  1.00  0.00     0.113 A 
HETATM    2  N1  UNL     1      21.444   0.796  50.287  1.00  0.00    -0.233 NA
HETATM    3  C4  UNL     1      21.497   0.165  51.475  1.00  0.00     0.236 A 
HETATM    4  N2  UNL     1      22.496   0.405  52.327  1.00  0.00    -0.223 NA
HETATM    5  C5  UNL     1      23.497   1.260  52.088  1.00  0.00     0.142 A 
HETATM    6  C12 UNL     1      23.476   1.922  50.884  1.00  0.00     0.044 A 
ENDROOT
BRANCH   5   7
HETATM    7  N3  UNL     1      24.488   1.421  53.067  1.00  0.00    -0.340 N 
HETATM    8  H4  UNL     1      24.260   2.048  53.842  1.00  0.00     0.167 HD
BRANCH   7   9
HETATM    9  C6  UNL     1      25.770   0.849  53.161  1.00  0.00     0.035 A 
HETATM   10  C7  UNL     1      26.112  -0.430  52.806  1.00  0.00     0.032 A 
HETATM   11  C8  UNL     1      27.365  -0.988  52.908  1.00  0.00     0.046 A 
HETATM   12  C9  UNL     1      28.370  -0.191  53.412  1.00  0.00     0.138 A 
HETATM   13  F1  UNL     1      29.632  -0.666  53.546  1.00  0.00    -0.204 F 
HETATM   14  C10 UNL     1      28.119   1.106  53.795  1.00  0.00     0.074 A 
HETATM   15 CL1  UNL     1      29.395   2.097  54.429  1.00  0.00    -0.081 Cl
HETATM   16  C11 UNL     1      26.836   1.574  53.655  1.00  0.00     0.056 A 
ENDBRANCH   7   9
ENDBRANCH   5   7
BRANCH   6  17
HETATM   17  C13 UNL     1      24.399   2.778  50.541  1.00  0.00     0.011 C 
BRANCH  17  18
HETATM   18  C14 UNL     1      24.892   4.155  50.555  1.00  0.00     0.152 C 
BRANCH  18  19
HETATM   19  N4  UNL     1      26.323   4.271  50.264  1.00  0.00    -0.340 N 
HETATM   20  C15 UNL     1      26.637   5.186  49.231  1.00  0.00     0.314 C 
HETATM   21  N5  UNL     1      28.023   5.314  48.931  1.00  0.00    -0.352 N 
HETATM   22  O1  UNL     1      25.716   5.819  48.645  1.00  0.00    -0.248 OA
HETATM   23  H12 UNL     1      28.491   4.903  48.084  1.00  0.00     0.160 HD
HETATM   24  H13 UNL     1      28.832   5.773  49.385  1.00  0.00     0.160 HD
HETATM   25  H11 UNL     1      27.019   3.706  50.800  1.00  0.00     0.164 HD
ENDBRANCH  18  19
ENDBRANCH  17  18
ENDBRANCH   6  17
BRANCH   1  26
HETATM   26  C2  UNL     1      22.299   2.205  48.876  1.00  0.00    -0.123 C 
HETATM   27  C1  UNL     1      21.945   2.832  47.789  1.00  0.00     0.099 C 
ENDBRANCH   1  26
TORSDOF 6
ENDMDL
MODEL 6
REMARK VINA RESULT:      -7.0      3.952      6.112
REMARK  6 active torsions:
REMARK  status: ('A' for Active; 'I' for Inactive)
REMARK    1  A    between atoms: C2_2  and  C3_3 
REMARK    2  A    between atoms: C5_7  and  N3_8 
REMARK    3  A    between atoms: N3_8  and  C6_9 
REMARK    4  A    between atoms: C12_17  and  C13_18 
REMARK    5  A    between atoms: C13_18  and  C14_19 
REMARK    6  A    between atoms: C14_19  and  N4_20 
REMARK       I    between atoms: N4_20  and  C15_21 
REMARK       I    between atoms: C15_21  and  N5_22 
ROOT
HETATM    1  C3  UNL     1      26.851   0.855  54.115  1.00  0.00     0.113 A 
HETATM    2  N1  UNL     1      27.990   1.351  54.537  1.00  0.00    -0.233 NA
HETATM    3  C4  UNL     1      28.626   2.166  53.676  1.00  0.00     0.236 A 
HETATM    4  N2  UNL     1      28.102   2.430  52.477  1.00  0.00    -0.223 NA
HETATM    5  C5  UNL     1      26.942   1.929  52.039  1.00  0.00     0.142 A 
HETATM    6  C12 UNL     1      26.264   1.092  52.892  1.00  0.00     0.044 A 
ENDROOT
BRANCH   5   7
HETATM    7  N3  UNL     1      26.501   2.285  50.756  1.00  0.00    -0.340 N 
HETATM    8  H4  UNL     1      26.341   1.514  50.103  1.00  0.00     0.167 HD
BRANCH   7   9
HETATM    9  C6  UNL     1      26.238   3.554  50.208  1.00  0.00     0.035 A 
HETATM   10  C7  UNL     1      26.983   4.190  49.249  1.00  0.00     0.032 A 
HETATM   11  C8  UNL     1      26.727   5.435  48.723  1.00  0.00     0.046 A 
HETATM   12  C9  UNL     1      25.622   6.106  49.202  1.00  0.00     0.138 A 
HETATM   13  F1  UNL     1      25.303   7.337  48.736  1.00  0.00    -0.204 F 
HETATM   14  C10 UNL     1      24.817   5.545  50.166  1.00  0.00     0.074 A 
HETATM   15 CL1  UNL     1      23.430   6.403  50.759  1.00  0.00    -0.081 Cl
HETATM   16  C11 UNL     1      25.154   4.297  50.629  1.00  0.00     0.056 A 
ENDBRANCH   7   9
ENDBRANCH   5   7
BRANCH   6  17
HETATM   17  C13 UNL     1      25.125   0.542  52.573  1.00  0.00     0.011 C 
BRANCH  17  18
HETATM   18  C14 UNL     1      23.663   0.616  52.561  1.00  0.00     0.152 C 
BRANCH  18  19
HETATM   19  N4  UNL     1      23.015  -0.428  53.358  1.00  0.00    -0.340 N 
HETATM   20  C15 UNL     1      21.710  -0.102  53.796  1.00  0.00     0.314 C 
HETATM   21  N5  UNL     1      21.060  -1.104  54.573  1.00  0.00    -0.352 N 
HETATM   22  O1  UNL     1      21.200   1.012  53.494  1.00  0.00    -0.248 OA
HETATM   23  H12 UNL     1      20.927  -1.057  55.616  1.00  0.00     0.160 HD
HETATM   24  H13 UNL     1      20.608  -2.011  54.370  1.00  0.00     0.160 HD
HETATM   25  H11 UNL     1      23.513  -1.324  53.561  1.00  0.00     0.164 HD
ENDBRANCH  18  19
ENDBRANCH  17  18
ENDBRANCH   6  17
BRANCH   1  26
HETATM   26  C2  UNL     1      26.298   0.076  55.005  1.00  0.00    -0.123 C 
HETATM   27  C1  UNL     1      25.534  -0.577  55.836  1.00  0.00     0.099 C 
ENDBRANCH   1  26
TORSDOF 6
ENDMDL
MODEL 7
REMARK VINA RESULT:      -7.0      3.793      5.339
REMARK  6 active torsions:
REMARK  status: ('A' for Active; 'I' for Inactive)
REMARK    1  A    between atoms: C2_2  and  C3_3 
REMARK    2  A    between atoms: C5_7  and  N3_8 
REMARK    3  A    between atoms: N3_8  and  C6_9 
REMARK    4  A    between atoms: C12_17  and  C13_18 
REMARK    5  A    between atoms: C13_18  and  C14_19 
REMARK    6  A    between atoms: C14_19  and  N4_20 
REMARK       I    between atoms: N4_20  and  C15_21 
REMARK       I    between atoms: C15_21  and  N5_22 
ROOT
HETATM    1  C3  UNL     1      22.319   0.463  53.117  1.00  0.00     0.113 A 
HETATM    2  N1  UNL     1      21.284   1.190  52.764  1.00  0.00    -0.233 NA
HETATM    3  C4  UNL     1      21.568   2.323  52.096  1.00  0.00     0.236 A 
HETATM    4  N2  UNL     1      22.833   2.655  51.828  1.00  0.00    -0.223 NA
HETATM    5  C5  UNL     1      23.892   1.920  52.184  1.00  0.00     0.142 A 
HETATM    6  C12 UNL     1      23.641   0.755  52.868  1.00  0.00     0.044 A 
ENDROOT
BRANCH   5   7
HETATM    7  N3  UNL     1      25.172   2.381  51.841  1.00  0.00    -0.340 N 
HETATM    8  H4  UNL     1      25.953   1.973  52.359  1.00  0.00     0.167 HD
BRANCH   7   9
HETATM    9  C6  UNL     1      25.565   3.332  50.881  1.00  0.00     0.035 A 
HETATM   10  C7  UNL     1      26.642   3.233  50.040  1.00  0.00     0.032 A 
HETATM   11  C8  UNL     1      27.027   4.170  49.109  1.00  0.00     0.046 A 
HETATM   12  C9  UNL     1      26.263   5.313  49.012  1.00  0.00     0.138 A 
HETATM   13  F1  UNL     1      26.577   6.284  48.121  1.00  0.00    -0.204 F 
HETATM   14  C10 UNL     1      25.164   5.498  49.817  1.00  0.00     0.074 A 
HETATM   15 CL1  UNL     1      24.211   6.943  49.683  1.00  0.00    -0.081 Cl
HETATM   16  C11 UNL     1      24.858   4.506  50.716  1.00  0.00     0.056 A 
ENDBRANCH   7   9
ENDBRANCH   5   7
BRANCH   6  17
HETATM   17  C13 UNL     1      24.594  -0.040  53.268  1.00  0.00     0.011 C 
BRANCH  17  18
HETATM   18  C14 UNL     1      25.590  -0.383  54.283  1.00  0.00     0.152 C 
BRANCH  18  19
HETATM   19  N4  UNL     1      26.489   0.723  54.622  1.00  0.00    -0.340 N 
HETATM   20  C15 UNL     1      27.864   0.386  54.596  1.00  0.00     0.314 C 
HETATM   21  N5  UNL     1      28.756   1.447  54.922  1.00  0.00    -0.352 N 
HETATM   22  O1  UNL     1      28.223  -0.786  54.300  1.00  0.00    -0.248 OA
HETATM   23  H12 UNL     1      29.266   1.539  55.838  1.00  0.00     0.160 HD
HETATM   24  H13 UNL     1      29.103   2.290  54.433  1.00  0.00     0.160 HD
HETATM   25  H11 UNL     1      26.104   1.665  54.855  1.00  0.00     0.164 HD
ENDBRANCH  18  19
ENDBRANCH  17  18
ENDBRANCH   6  17
BRANCH   1  26
HETATM   26  C2  UNL     1      21.960  -0.616  53.759  1.00  0.00    -0.123 C 
HETATM   27  C1  UNL     1      21.446  -1.539  54.524  1.00  0.00     0.099 C 
ENDBRANCH   1  26
TORSDOF 6
ENDMDL
MODEL 8
REMARK VINA RESULT:      -7.0      4.000      6.100
REMARK  6 active torsions:
REMARK  status: ('A' for Active; 'I' for Inactive)
REMARK    1  A    between atoms: C2_2  and  C3_3 
REMARK    2  A    between atoms: C5_7  and  N3_8 
REMARK    3  A    between atoms: N3_8  and  C6_9 
REMARK    4  A    between atoms: C12_17  and  C13_18 
REMARK    5  A    between atoms: C13_18  and  C14_19 
REMARK    6  A    between atoms: C14_19  and  N4_20 
REMARK       I    between atoms: N4_20  and  C15_21 
REMARK       I    between atoms: C15_21  and  N5_22 
ROOT
HETATM    1  C3  UNL     1      26.723   0.998  53.991  1.00  0.00     0.113 A 
HETATM    2  N1  UNL     1      27.860   1.483  54.432  1.00  0.00    -0.233 NA
HETATM    3  C4  UNL     1      28.542   2.251  53.562  1.00  0.00     0.236 A 
HETATM    4  N2  UNL     1      28.062   2.483  52.338  1.00  0.00    -0.223 NA
HETATM    5  C5  UNL     1      26.904   1.993  51.883  1.00  0.00     0.142 A 
HETATM    6  C12 UNL     1      26.180   1.204  52.743  1.00  0.00     0.044 A 
ENDROOT
BRANCH   5   7
HETATM    7  N3  UNL     1      26.511   2.311  50.574  1.00  0.00    -0.340 N 
HETATM    8  H4  UNL     1      26.440   1.528  49.920  1.00  0.00     0.167 HD
BRANCH   7   9
HETATM    9  C6  UNL     1      26.193   3.557  50.002  1.00  0.00     0.035 A 
HETATM   10  C7  UNL     1      24.970   4.174  50.039  1.00  0.00     0.032 A 
HETATM   11  C8  UNL     1      24.661   5.388  49.470  1.00  0.00     0.046 A 
HETATM   12  C9  UNL     1      25.672   6.046  48.802  1.00  0.00     0.138 A 
HETATM   13  F1  UNL     1      25.449   7.245  48.213  1.00  0.00    -0.204 F 
HETATM   14  C10 UNL     1      26.932   5.502  48.714  1.00  0.00     0.074 A 
HETATM   15 CL1  UNL     1      28.194   6.342  47.869  1.00  0.00    -0.081 Cl
HETATM   16  C11 UNL     1      27.143   4.285  49.314  1.00  0.00     0.056 A 
ENDBRANCH   7   9
ENDBRANCH   5   7
BRANCH   6  17
HETATM   17  C13 UNL     1      25.038   0.669  52.409  1.00  0.00     0.011 C 
BRANCH  17  18
HETATM   18  C14 UNL     1      23.577   0.748  52.402  1.00  0.00     0.152 C 
BRANCH  18  19
HETATM   19  N4  UNL     1      22.935  -0.133  53.381  1.00  0.00    -0.340 N 
HETATM   20  C15 UNL     1      21.640   0.279  53.775  1.00  0.00     0.314 C 
HETATM   21  N5  UNL     1      20.997  -0.564  54.727  1.00  0.00    -0.352 N 
HETATM   22  O1  UNL     1      21.133   1.327  53.290  1.00  0.00    -0.248 OA
HETATM   23  H12 UNL     1      20.883  -0.334  55.747  1.00  0.00     0.160 HD
HETATM   24  H13 UNL     1      20.535  -1.489  54.694  1.00  0.00     0.160 HD
HETATM   25  H11 UNL     1      23.430  -0.984  53.730  1.00  0.00     0.164 HD
ENDBRANCH  18  19
ENDBRANCH  17  18
ENDBRANCH   6  17
BRANCH   1  26
HETATM   26  C2  UNL     1      26.124   0.266  54.892  1.00  0.00    -0.123 C 
HETATM   27  C1  UNL     1      25.695  -0.640  55.725  1.00  0.00     0.099 C 
ENDBRANCH   1  26
TORSDOF 6
ENDMDL
MODEL 9
REMARK VINA RESULT:      -6.8      3.706      5.732
REMARK  6 active torsions:
REMARK  status: ('A' for Active; 'I' for Inactive)
REMARK    1  A    between atoms: C2_2  and  C3_3 
REMARK    2  A    between atoms: C5_7  and  N3_8 
REMARK    3  A    between atoms: N3_8  and  C6_9 
REMARK    4  A    between atoms: C12_17  and  C13_18 
REMARK    5  A    between atoms: C13_18  and  C14_19 
REMARK    6  A    between atoms: C14_19  and  N4_20 
REMARK       I    between atoms: N4_20  and  C15_21 
REMARK       I    between atoms: C15_21  and  N5_22 
ROOT
HETATM    1  C3  UNL     1      22.517   0.222  52.754  1.00  0.00     0.113 A 
HETATM    2  N1  UNL     1      21.371   0.144  52.120  1.00  0.00    -0.233 NA
HETATM    3  C4  UNL     1      21.285   0.857  50.981  1.00  0.00     0.236 A 
HETATM    4  N2  UNL     1      22.320   1.584  50.555  1.00  0.00    -0.223 NA
HETATM    5  C5  UNL     1      23.491   1.668  51.196  1.00  0.00     0.142 A 
HETATM    6  C12 UNL     1      23.615   0.955  52.363  1.00  0.00     0.044 A 
ENDROOT
BRANCH   5   7
HETATM    7  N3  UNL     1      24.500   2.470  50.642  1.00  0.00    -0.340 N 
HETATM    8  H4  UNL     1      25.271   1.976  50.187  1.00  0.00     0.167 HD
BRANCH   7   9
HETATM    9  C6  UNL     1      24.628   3.871  50.609  1.00  0.00     0.035 A 
HETATM   10  C7  UNL     1      23.905   4.766  51.354  1.00  0.00     0.032 A 
HETATM   11  C8  UNL     1      24.028   6.136  51.312  1.00  0.00     0.046 A 
HETATM   12  C9  UNL     1      24.961   6.658  50.443  1.00  0.00     0.138 A 
HETATM   13  F1  UNL     1      25.142   7.997  50.341  1.00  0.00    -0.204 F 
HETATM   14  C10 UNL     1      25.733   5.835  49.656  1.00  0.00     0.074 A 
HETATM   15 CL1  UNL     1      26.905   6.508  48.567  1.00  0.00    -0.081 Cl
HETATM   16  C11 UNL     1      25.538   4.480  49.769  1.00  0.00     0.056 A 
ENDBRANCH   7   9
ENDBRANCH   5   7
BRANCH   6  17
HETATM   17  C13 UNL     1      24.709   0.961  53.074  1.00  0.00     0.011 C 
BRANCH  17  18
HETATM   18  C14 UNL     1      25.767   1.731  53.730  1.00  0.00     0.152 C 
BRANCH  18  19
HETATM   19  N4  UNL     1      27.095   1.125  53.611  1.00  0.00    -0.340 N 
HETATM   20  C15 UNL     1      27.363   0.114  54.565  1.00  0.00     0.314 C 
HETATM   21  N5  UNL     1      28.650  -0.489  54.467  1.00  0.00    -0.352 N 
HETATM   22  O1  UNL     1      26.491  -0.194  55.423  1.00  0.00    -0.248 OA
HETATM   23  H12 UNL     1      29.450  -0.297  55.122  1.00  0.00     0.160 HD
HETATM   24  H13 UNL     1      29.091  -1.175  53.831  1.00  0.00     0.160 HD
HETATM   25  H11 UNL     1      27.756   1.443  52.868  1.00  0.00     0.164 HD
ENDBRANCH  18  19
ENDBRANCH  17  18
ENDBRANCH   6  17
BRANCH   1  26
HETATM   26  C2  UNL     1      22.520  -0.495  53.846  1.00  0.00    -0.123 C 
HETATM   27  C1  UNL     1      22.284  -1.263  54.873  1.00  0.00     0.099 C 
ENDBRANCH   1  26
TORSDOF 6
ENDMDL
