MODEL 1
REMARK VINA RESULT:      -7.1      0.000      0.000
REMARK  4 active torsions:
REMARK  status: ('A' for Active; 'I' for Inactive)
REMARK    1  A    between atoms: C2_2  and  O1_3 
REMARK    2  A    between atoms: C2_2  and  C4_5 
REMARK    3  A    between atoms: C7_8  and  S1_9 
REMARK    4  A    between atoms: S1_9  and  C8_10 
ROOT
HETATM    1  C4  UNL     1      24.769  -0.073  53.366  1.00  0.00     0.027 A 
HETATM    2  C5  UNL     1      24.160   0.918  52.732  1.00  0.00     0.033 A 
HETATM    3  C6  UNL     1      22.817   0.605  53.181  1.00  0.00     0.030 A 
HETATM    4  C7  UNL     1      21.447   0.707  53.327  1.00  0.00     0.112 A 
HETATM    5  N1  UNL     1      20.785  -0.182  54.092  1.00  0.00    -0.234 NA
HETATM    6  C14 UNL     1      21.396  -1.188  54.737  1.00  0.00     0.235 A 
HETATM    7  N2  UNL     1      22.728  -1.299  54.603  1.00  0.00    -0.240 NA
HETATM    8  C15 UNL     1      23.448  -0.447  53.856  1.00  0.00     0.084 A 
ENDROOT
BRANCH   4   9
HETATM    9  S1  UNL     1      20.675   2.061  52.451  1.00  0.00    -0.070 SA
BRANCH   9  10
HETATM   10  C8  UNL     1      21.400   2.170  50.808  1.00  0.00     0.008 A 
HETATM   11  C9  UNL     1      21.064   1.146  49.924  1.00  0.00     0.019 A 
HETATM   12  C10 UNL     1      21.579   1.152  48.634  1.00  0.00     0.003 A 
HETATM   13  C11 UNL     1      22.417   2.184  48.263  1.00  0.00     0.024 A 
HETATM   14  C12 UNL     1      22.740   3.193  49.152  1.00  0.00     0.035 A 
HETATM   15 CL1  UNL     1      23.803   4.510  48.689  1.00  0.00    -0.084 Cl
HETATM   16  C13 UNL     1      22.244   3.214  50.439  1.00  0.00     0.042 A 
ENDBRANCH   9  10
ENDBRANCH   4   9
BRANCH   1  17
HETATM   17  C2  UNL     1      26.135  -0.518  53.474  1.00  0.00     0.071 C 
HETATM   18  C1  UNL     1      26.713  -0.970  52.363  1.00  0.00     0.051 C 
BRANCH  17  19
HETATM   19  O1  UNL     1      26.816  -0.483  54.658  1.00  0.00    -0.356 OA
HETATM   20  C3  UNL     1      28.023   0.202  54.814  1.00  0.00     0.210 C 
ENDBRANCH  17  19
ENDBRANCH   1  17
TORSDOF 4
ENDMDL
MODEL 2
REMARK VINA RESULT:      -7.1      1.886      2.373
REMARK  4 active torsions:
REMARK  status: ('A' for Active; 'I' for Inactive)
REMARK    1  A    between atoms: C2_2  and  O1_3 
REMARK    2  A    between atoms: C2_2  and  C4_5 
REMARK    3  A    between atoms: C7_8  and  S1_9 
REMARK    4  A    between atoms: S1_9  and  C8_10 
ROOT
HETATM    1  C4  UNL     1      26.600  -0.007  53.213  1.00  0.00     0.027 A 
HETATM    2  C5  UNL     1      25.606   0.291  52.389  1.00  0.00     0.033 A 
HETATM    3  C6  UNL     1      24.534  -0.190  53.240  1.00  0.00     0.030 A 
HETATM    4  C7  UNL     1      23.252  -0.487  53.657  1.00  0.00     0.112 A 
HETATM    5  N1  UNL     1      23.052  -1.059  54.860  1.00  0.00    -0.234 NA
HETATM    6  C14 UNL     1      24.055  -1.363  55.699  1.00  0.00     0.235 A 
HETATM    7  N2  UNL     1      25.307  -1.079  55.305  1.00  0.00    -0.240 NA
HETATM    8  C15 UNL     1      25.575  -0.509  54.119  1.00  0.00     0.084 A 
ENDROOT
BRANCH   4   9
HETATM    9  S1  UNL     1      21.948  -0.065  52.509  1.00  0.00    -0.070 SA
BRANCH   9  10
HETATM   10  C8  UNL     1      22.402   1.451  51.655  1.00  0.00     0.008 A 
HETATM   11  C9  UNL     1      22.417   1.387  50.263  1.00  0.00     0.019 A 
HETATM   12  C10 UNL     1      22.756   2.513  49.524  1.00  0.00     0.003 A 
HETATM   13  C11 UNL     1      23.073   3.674  50.199  1.00  0.00     0.024 A 
HETATM   14  C12 UNL     1      23.054   3.722  51.580  1.00  0.00     0.035 A 
HETATM   15 CL1  UNL     1      23.454   5.195  52.447  1.00  0.00    -0.084 Cl
HETATM   16  C13 UNL     1      22.721   2.621  52.342  1.00  0.00     0.042 A 
ENDBRANCH   9  10
ENDBRANCH   4   9
BRANCH   1  17
HETATM   17  C2  UNL     1      28.034   0.134  53.163  1.00  0.00     0.071 C 
HETATM   18  C1  UNL     1      28.757  -0.946  53.447  1.00  0.00     0.051 C 
BRANCH  17  19
HETATM   19  O1  UNL     1      28.633   1.319  52.839  1.00  0.00    -0.356 OA
HETATM   20  C3  UNL     1      28.611   2.430  53.683  1.00  0.00     0.210 C 
ENDBRANCH  17  19
ENDBRANCH   1  17
TORSDOF 4
ENDMDL
MODEL 3
REMARK VINA RESULT:      -7.1      4.517      6.885
REMARK  4 active torsions:
REMARK  status: ('A' for Active; 'I' for Inactive)
REMARK    1  A    between atoms: C2_2  and  O1_3 
REMARK    2  A    between atoms: C2_2  and  C4_5 
REMARK    3  A    between atoms: C7_8  and  S1_9 
REMARK    4  A    between atoms: S1_9  and  C8_10 
ROOT
HETATM    1  C4  UNL     1      26.285   4.104  49.860  1.00  0.00     0.027 A 
HETATM    2  C5  UNL     1      26.459   2.852  50.257  1.00  0.00     0.033 A 
HETATM    3  C6  UNL     1      25.351   2.819  51.194  1.00  0.00     0.030 A 
HETATM    4  C7  UNL     1      24.473   2.325  52.138  1.00  0.00     0.112 A 
HETATM    5  N1  UNL     1      23.489   3.110  52.617  1.00  0.00    -0.234 NA
HETATM    6  C14 UNL     1      23.308   4.379  52.218  1.00  0.00     0.235 A 
HETATM    7  N2  UNL     1      24.156   4.872  51.300  1.00  0.00    -0.240 NA
HETATM    8  C15 UNL     1      25.157   4.143  50.782  1.00  0.00     0.084 A 
ENDROOT
BRANCH   4   9
HETATM    9  S1  UNL     1      24.751   0.631  52.640  1.00  0.00    -0.070 SA
BRANCH   9  10
HETATM   10  C8  UNL     1      26.481   0.443  53.095  1.00  0.00     0.008 A 
HETATM   11  C9  UNL     1      27.119   1.592  53.557  1.00  0.00     0.019 A 
HETATM   12  C10 UNL     1      28.456   1.535  53.931  1.00  0.00     0.003 A 
HETATM   13  C11 UNL     1      29.118   0.329  53.832  1.00  0.00     0.024 A 
HETATM   14  C12 UNL     1      28.470  -0.803  53.372  1.00  0.00     0.035 A 
HETATM   15 CL1  UNL     1      29.304  -2.342  53.245  1.00  0.00    -0.084 Cl
HETATM   16  C13 UNL     1      27.144  -0.779  52.994  1.00  0.00     0.042 A 
ENDBRANCH   9  10
ENDBRANCH   4   9
BRANCH   1  17
HETATM   17  C2  UNL     1      26.957   4.972  48.925  1.00  0.00     0.071 C 
HETATM   18  C1  UNL     1      26.310   6.074  48.552  1.00  0.00     0.051 C 
BRANCH  17  19
HETATM   19  O1  UNL     1      28.201   4.686  48.438  1.00  0.00    -0.356 OA
HETATM   20  C3  UNL     1      29.165   5.670  48.208  1.00  0.00     0.210 C 
ENDBRANCH  17  19
ENDBRANCH   1  17
TORSDOF 4
ENDMDL
MODEL 4
REMARK VINA RESULT:      -6.9      4.739      6.737
REMARK  4 active torsions:
REMARK  status: ('A' for Active; 'I' for Inactive)
REMARK    1  A    between atoms: C2_2  and  O1_3 
REMARK    2  A    between atoms: C2_2  and  C4_5 
REMARK    3  A    between atoms: C7_8  and  S1_9 
REMARK    4  A    between atoms: S1_9  and  C8_10 
ROOT
HETATM    1  C4  UNL     1      26.522   4.746  49.275  1.00  0.00     0.027 A 
HETATM    2  C5  UNL     1      26.148   3.479  49.377  1.00  0.00     0.033 A 
HETATM    3  C6  UNL     1      25.011   3.709  50.247  1.00  0.00     0.030 A 
HETATM    4  C7  UNL     1      23.904   3.433  51.024  1.00  0.00     0.112 A 
HETATM    5  N1  UNL     1      23.250   4.435  51.644  1.00  0.00    -0.234 NA
HETATM    6  C14 UNL     1      23.624   5.721  51.544  1.00  0.00     0.235 A 
HETATM    7  N2  UNL     1      24.699   6.003  50.791  1.00  0.00    -0.240 NA
HETATM    8  C15 UNL     1      25.395   5.051  50.147  1.00  0.00     0.084 A 
ENDROOT
BRANCH   4   9
HETATM    9  S1  UNL     1      23.442   1.709  51.128  1.00  0.00    -0.070 SA
BRANCH   9  10
HETATM   10  C8  UNL     1      24.586   0.873  52.237  1.00  0.00     0.008 A 
HETATM   11  C9  UNL     1      25.932   0.928  51.879  1.00  0.00     0.019 A 
HETATM   12  C10 UNL     1      26.884   0.309  52.680  1.00  0.00     0.003 A 
HETATM   13  C11 UNL     1      26.462  -0.349  53.817  1.00  0.00     0.024 A 
HETATM   14  C12 UNL     1      25.123  -0.393  54.158  1.00  0.00     0.035 A 
HETATM   15 CL1  UNL     1      24.578  -1.226  55.604  1.00  0.00    -0.084 Cl
HETATM   16  C13 UNL     1      24.155   0.211  53.384  1.00  0.00     0.042 A 
ENDBRANCH   9  10
ENDBRANCH   4   9
BRANCH   1  17
HETATM   17  C2  UNL     1      27.584   5.436  48.587  1.00  0.00     0.071 C 
HETATM   18  C1  UNL     1      27.327   6.672  48.165  1.00  0.00     0.051 C 
BRANCH  17  19
HETATM   19  O1  UNL     1      28.803   4.858  48.373  1.00  0.00    -0.356 OA
HETATM   20  C3  UNL     1      29.925   5.588  47.975  1.00  0.00     0.210 C 
ENDBRANCH  17  19
ENDBRANCH   1  17
TORSDOF 4
ENDMDL
MODEL 5
REMARK VINA RESULT:      -6.7      3.656      6.526
REMARK  4 active torsions:
REMARK  status: ('A' for Active; 'I' for Inactive)
REMARK    1  A    between atoms: C2_2  and  O1_3 
REMARK    2  A    between atoms: C2_2  and  C4_5 
REMARK    3  A    between atoms: C7_8  and  S1_9 
REMARK    4  A    between atoms: S1_9  and  C8_10 
ROOT
HETATM    1  C4  UNL     1      19.983   0.010  52.121  1.00  0.00     0.027 A 
HETATM    2  C5  UNL     1      20.967   0.654  51.512  1.00  0.00     0.033 A 
HETATM    3  C6  UNL     1      22.012   0.287  52.448  1.00  0.00     0.030 A 
HETATM    4  C7  UNL     1      23.268   0.214  53.018  1.00  0.00     0.112 A 
HETATM    5  N1  UNL     1      23.453  -0.492  54.151  1.00  0.00    -0.234 NA
HETATM    6  C14 UNL     1      22.459  -1.147  54.772  1.00  0.00     0.235 A 
HETATM    7  N2  UNL     1      21.233  -1.084  54.229  1.00  0.00    -0.240 NA
HETATM    8  C15 UNL     1      20.981  -0.398  53.102  1.00  0.00     0.084 A 
ENDROOT
BRANCH   4   9
HETATM    9  S1  UNL     1      24.560   1.100  52.157  1.00  0.00    -0.070 SA
BRANCH   9  10
HETATM   10  C8  UNL     1      26.154   0.516  52.754  1.00  0.00     0.008 A 
HETATM   11  C9  UNL     1      26.938   1.457  53.418  1.00  0.00     0.019 A 
HETATM   12  C10 UNL     1      28.184   1.090  53.913  1.00  0.00     0.003 A 
HETATM   13  C11 UNL     1      28.610  -0.209  53.729  1.00  0.00     0.024 A 
HETATM   14  C12 UNL     1      27.819  -1.130  53.068  1.00  0.00     0.035 A 
HETATM   15 CL1  UNL     1      28.353  -2.786  52.830  1.00  0.00    -0.084 Cl
HETATM   16  C13 UNL     1      26.579  -0.798  52.566  1.00  0.00     0.042 A 
ENDBRANCH   9  10
ENDBRANCH   4   9
BRANCH   1  17
HETATM   17  C2  UNL     1      18.575  -0.163  51.866  1.00  0.00     0.071 C 
HETATM   18  C1  UNL     1      18.104   0.325  50.721  1.00  0.00     0.051 C 
BRANCH  17  19
HETATM   19  O1  UNL     1      17.751  -0.798  52.752  1.00  0.00    -0.356 OA
HETATM   20  C3  UNL     1      16.361  -0.665  52.719  1.00  0.00     0.210 C 
ENDBRANCH  17  19
ENDBRANCH   1  17
TORSDOF 4
ENDMDL
MODEL 6
REMARK VINA RESULT:      -6.6      3.293      4.378
REMARK  4 active torsions:
REMARK  status: ('A' for Active; 'I' for Inactive)
REMARK    1  A    between atoms: C2_2  and  O1_3 
REMARK    2  A    between atoms: C2_2  and  C4_5 
REMARK    3  A    between atoms: C7_8  and  S1_9 
REMARK    4  A    between atoms: S1_9  and  C8_10 
ROOT
HETATM    1  C4  UNL     1      25.268   1.486  53.345  1.00  0.00     0.027 A 
HETATM    2  C5  UNL     1      24.560   0.689  52.558  1.00  0.00     0.033 A 
HETATM    3  C6  UNL     1      23.622   1.696  52.100  1.00  0.00     0.030 A 
HETATM    4  C7  UNL     1      22.561   2.257  51.417  1.00  0.00     0.112 A 
HETATM    5  N1  UNL     1      22.281   3.566  51.567  1.00  0.00    -0.234 NA
HETATM    6  C14 UNL     1      22.995   4.378  52.362  1.00  0.00     0.235 A 
HETATM    7  N2  UNL     1      24.030   3.846  53.033  1.00  0.00    -0.240 NA
HETATM    8  C15 UNL     1      24.362   2.549  52.928  1.00  0.00     0.084 A 
ENDROOT
BRANCH   4   9
HETATM    9  S1  UNL     1      21.639   1.139  50.370  1.00  0.00    -0.070 SA
BRANCH   9  10
HETATM   10  C8  UNL     1      20.332   0.382  51.347  1.00  0.00     0.008 A 
HETATM   11  C9  UNL     1      20.697  -0.061  52.616  1.00  0.00     0.019 A 
HETATM   12  C10 UNL     1      19.748  -0.657  53.438  1.00  0.00     0.003 A 
HETATM   13  C11 UNL     1      18.459  -0.794  52.966  1.00  0.00     0.024 A 
HETATM   14  C12 UNL     1      18.113  -0.348  51.704  1.00  0.00     0.035 A 
HETATM   15 CL1  UNL     1      16.475  -0.516  51.096  1.00  0.00    -0.084 Cl
HETATM   16  C13 UNL     1      19.031   0.248  50.865  1.00  0.00     0.042 A 
ENDBRANCH   9  10
ENDBRANCH   4   9
BRANCH   1  17
HETATM   17  C2  UNL     1      26.413   1.307  54.202  1.00  0.00     0.071 C 
HETATM   18  C1  UNL     1      26.485   0.166  54.884  1.00  0.00     0.051 C 
BRANCH  17  19
HETATM   19  O1  UNL     1      27.387   2.258  54.317  1.00  0.00    -0.356 OA
HETATM   20  C3  UNL     1      28.435   2.380  53.402  1.00  0.00     0.210 C 
ENDBRANCH  17  19
ENDBRANCH   1  17
TORSDOF 4
ENDMDL
MODEL 7
REMARK VINA RESULT:      -6.5      3.979      6.011
REMARK  4 active torsions:
REMARK  status: ('A' for Active; 'I' for Inactive)
REMARK    1  A    between atoms: C2_2  and  O1_3 
REMARK    2  A    between atoms: C2_2  and  C4_5 
REMARK    3  A    between atoms: C7_8  and  S1_9 
REMARK    4  A    between atoms: S1_9  and  C8_10 
ROOT
HETATM    1  C4  UNL     1      25.368   4.368  49.641  1.00  0.00     0.027 A 
HETATM    2  C5  UNL     1      24.926   3.127  49.497  1.00  0.00     0.033 A 
HETATM    3  C6  UNL     1      23.791   3.249  50.392  1.00  0.00     0.030 A 
HETATM    4  C7  UNL     1      22.660   2.891  51.099  1.00  0.00     0.112 A 
HETATM    5  N1  UNL     1      22.053   3.791  51.896  1.00  0.00    -0.234 NA
HETATM    6  C14 UNL     1      22.496   5.049  52.046  1.00  0.00     0.235 A 
HETATM    7  N2  UNL     1      23.595   5.411  51.364  1.00  0.00    -0.240 NA
HETATM    8  C15 UNL     1      24.248   4.563  50.552  1.00  0.00     0.084 A 
ENDROOT
BRANCH   4   9
HETATM    9  S1  UNL     1      22.106   1.207  50.869  1.00  0.00    -0.070 SA
BRANCH   9  10
HETATM   10  C8  UNL     1      22.369   0.301  52.401  1.00  0.00     0.008 A 
HETATM   11  C9  UNL     1      21.229  -0.237  52.995  1.00  0.00     0.019 A 
HETATM   12  C10 UNL     1      21.342  -0.953  54.180  1.00  0.00     0.003 A 
HETATM   13  C11 UNL     1      22.593  -1.109  54.740  1.00  0.00     0.024 A 
HETATM   14  C12 UNL     1      23.714  -0.569  54.138  1.00  0.00     0.035 A 
HETATM   15 CL1  UNL     1      25.311  -0.764  54.842  1.00  0.00    -0.084 Cl
HETATM   16  C13 UNL     1      23.635   0.146  52.961  1.00  0.00     0.042 A 
ENDBRANCH   9  10
ENDBRANCH   4   9
BRANCH   1  17
HETATM   17  C2  UNL     1      26.475   5.118  49.102  1.00  0.00     0.071 C 
HETATM   18  C1  UNL     1      26.265   6.408  48.851  1.00  0.00     0.051 C 
BRANCH  17  19
HETATM   19  O1  UNL     1      27.689   4.540  48.855  1.00  0.00    -0.356 OA
HETATM   20  C3  UNL     1      28.756   5.241  48.292  1.00  0.00     0.210 C 
ENDBRANCH  17  19
ENDBRANCH   1  17
TORSDOF 4
ENDMDL
MODEL 8
REMARK VINA RESULT:      -6.5      3.444      4.512
REMARK  4 active torsions:
REMARK  status: ('A' for Active; 'I' for Inactive)
REMARK    1  A    between atoms: C2_2  and  O1_3 
REMARK    2  A    between atoms: C2_2  and  C4_5 
REMARK    3  A    between atoms: C7_8  and  S1_9 
REMARK    4  A    between atoms: S1_9  and  C8_10 
ROOT
HETATM    1  C4  UNL     1      27.043   1.436  53.387  1.00  0.00     0.027 A 
HETATM    2  C5  UNL     1      25.804   1.694  53.781  1.00  0.00     0.033 A 
HETATM    3  C6  UNL     1      25.416   2.469  52.617  1.00  0.00     0.030 A 
HETATM    4  C7  UNL     1      24.625   3.223  51.774  1.00  0.00     0.112 A 
HETATM    5  N1  UNL     1      25.121   3.666  50.603  1.00  0.00    -0.234 NA
HETATM    6  C14 UNL     1      26.375   3.408  50.198  1.00  0.00     0.235 A 
HETATM    7  N2  UNL     1      27.156   2.675  51.009  1.00  0.00    -0.240 NA
HETATM    8  C15 UNL     1      26.722   2.203  52.189  1.00  0.00     0.084 A 
ENDROOT
BRANCH   4   9
HETATM    9  S1  UNL     1      22.963   3.542  52.353  1.00  0.00    -0.070 SA
BRANCH   9  10
HETATM   10  C8  UNL     1      22.019   2.013  52.260  1.00  0.00     0.008 A 
HETATM   11  C9  UNL     1      21.287   1.818  51.090  1.00  0.00     0.019 A 
HETATM   12  C10 UNL     1      20.530   0.663  50.935  1.00  0.00     0.003 A 
HETATM   13  C11 UNL     1      20.526  -0.265  51.956  1.00  0.00     0.024 A 
HETATM   14  C12 UNL     1      21.258  -0.056  53.110  1.00  0.00     0.035 A 
HETATM   15 CL1  UNL     1      21.260  -1.232  54.414  1.00  0.00    -0.084 Cl
HETATM   16  C13 UNL     1      22.019   1.079  53.294  1.00  0.00     0.042 A 
ENDBRANCH   9  10
ENDBRANCH   4   9
BRANCH   1  17
HETATM   17  C2  UNL     1      28.154   0.712  53.949  1.00  0.00     0.071 C 
HETATM   18  C1  UNL     1      29.198   1.429  54.358  1.00  0.00     0.051 C 
BRANCH  17  19
HETATM   19  O1  UNL     1      28.147  -0.650  54.062  1.00  0.00    -0.356 OA
HETATM   20  C3  UNL     1      29.071  -1.466  53.406  1.00  0.00     0.210 C 
ENDBRANCH  17  19
ENDBRANCH   1  17
TORSDOF 4
ENDMDL
MODEL 9
REMARK VINA RESULT:      -6.4      3.648      6.739
REMARK  4 active torsions:
REMARK  status: ('A' for Active; 'I' for Inactive)
REMARK    1  A    between atoms: C2_2  and  O1_3 
REMARK    2  A    between atoms: C2_2  and  C4_5 
REMARK    3  A    between atoms: C7_8  and  S1_9 
REMARK    4  A    between atoms: S1_9  and  C8_10 
ROOT
HETATM    1  C4  UNL     1      20.963   0.488  51.942  1.00  0.00     0.027 A 
HETATM    2  C5  UNL     1      21.579  -0.263  52.843  1.00  0.00     0.033 A 
HETATM    3  C6  UNL     1      22.907   0.283  52.638  1.00  0.00     0.030 A 
HETATM    4  C7  UNL     1      24.266   0.468  52.799  1.00  0.00     0.112 A 
HETATM    5  N1  UNL     1      24.912   1.386  52.053  1.00  0.00    -0.234 NA
HETATM    6  C14 UNL     1      24.294   2.150  51.140  1.00  0.00     0.235 A 
HETATM    7  N2  UNL     1      22.972   1.980  50.973  1.00  0.00    -0.240 NA
HETATM    8  C15 UNL     1      22.268   1.084  51.683  1.00  0.00     0.084 A 
ENDROOT
BRANCH   4   9
HETATM    9  S1  UNL     1      25.047  -0.570  54.026  1.00  0.00    -0.070 SA
BRANCH   9  10
HETATM   10  C8  UNL     1      26.832  -0.399  53.871  1.00  0.00     0.008 A 
HETATM   11  C9  UNL     1      27.494  -1.455  53.249  1.00  0.00     0.019 A 
HETATM   12  C10 UNL     1      28.873  -1.404  53.087  1.00  0.00     0.003 A 
HETATM   13  C11 UNL     1      29.552  -0.297  53.555  1.00  0.00     0.024 A 
HETATM   14  C12 UNL     1      28.879   0.742  54.170  1.00  0.00     0.035 A 
HETATM   15 CL1  UNL     1      29.734   2.155  54.767  1.00  0.00    -0.084 Cl
HETATM   16  C13 UNL     1      27.512   0.721  54.345  1.00  0.00     0.042 A 
ENDBRANCH   9  10
ENDBRANCH   4   9
BRANCH   1  17
HETATM   17  C2  UNL     1      19.603   0.606  51.481  1.00  0.00     0.071 C 
HETATM   18  C1  UNL     1      18.726  -0.278  51.951  1.00  0.00     0.051 C 
BRANCH  17  19
HETATM   19  O1  UNL     1      19.219   1.578  50.600  1.00  0.00    -0.356 OA
HETATM   20  C3  UNL     1      19.700   1.642  49.291  1.00  0.00     0.210 C 
ENDBRANCH  17  19
ENDBRANCH   1  17
TORSDOF 4
ENDMDL
