MODEL 1
REMARK VINA RESULT:      -6.9      0.000      0.000
REMARK  4 active torsions:
REMARK  status: ('A' for Active; 'I' for Inactive)
REMARK    1  A    between atoms: O1_2  and  C2_3 
REMARK    2  A    between atoms: C3_4  and  C4_5 
REMARK    3  A    between atoms: C8_10  and  O2_11 
REMARK    4  A    between atoms: C15_19  and  O3_20 
ROOT
HETATM    1  C4  UNL     1      26.676   0.779  52.639  1.00  0.00     0.036 C 
HETATM    2  C5  UNL     1      25.437   1.203  52.802  1.00  0.00     0.071 C 
HETATM    3  C6  UNL     1      24.923   2.533  53.298  1.00  0.00     0.212 C 
HETATM    4  N1  UNL     1      24.069   3.133  52.360  1.00  0.00    -0.296 NA
HETATM    5  C7  UNL     1      24.452   3.620  51.255  1.00  0.00     0.120 C 
HETATM    6  C8  UNL     1      23.107   4.082  50.743  1.00  0.00     0.190 C 
HETATM    7  C10 UNL     1      22.182   2.893  50.646  1.00  0.00    -0.041 C 
HETATM    8  C11 UNL     1      21.793   2.048  49.672  1.00  0.00     0.008 C 
HETATM    9  C12 UNL     1      21.466   0.763  50.340  1.00  0.00     0.025 C 
HETATM   10  C13 UNL     1      21.673   0.904  51.662  1.00  0.00     0.013 C 
HETATM   11  C14 UNL     1      21.432   2.384  51.840  1.00  0.00     0.094 C 
HETATM   12  N2  UNL     1      22.029  -0.172  52.566  1.00  0.00    -0.345 N 
HETATM   13  C15 UNL     1      23.223   0.162  53.339  1.00  0.00     0.375 C 
HETATM   14  O4  UNL     1      24.294   0.493  52.535  1.00  0.00    -0.305 OA
HETATM   15  H18 UNL     1      21.387  -0.995  52.521  1.00  0.00     0.164 HD
ENDROOT
BRANCH   1  16
HETATM   16  C3  UNL     1      27.801   1.636  52.952  1.00  0.00     0.026 C 
HETATM   17  C2  UNL     1      28.796   1.224  53.710  1.00  0.00     0.134 C 
BRANCH  17  18
HETATM   18  O1  UNL     1      29.233   0.121  54.423  1.00  0.00    -0.368 OA
HETATM   19  C1  UNL     1      29.891  -0.886  53.639  1.00  0.00     0.208 C 
ENDBRANCH  17  18
ENDBRANCH   1  16
BRANCH  13  20
HETATM   20  O3  UNL     1      23.471  -0.924  54.180  1.00  0.00    -0.349 OA
HETATM   21  C16 UNL     1      22.391  -1.274  54.976  1.00  0.00     0.206 C 
ENDBRANCH  13  20
BRANCH   6  22
HETATM   22  O2  UNL     1      22.537   5.020  51.558  1.00  0.00    -0.381 OA
HETATM   23  C9  UNL     1      21.859   5.966  50.778  1.00  0.00     0.202 C 
ENDBRANCH   6  22
TORSDOF 4
ENDMDL
MODEL 2
REMARK VINA RESULT:      -6.7      1.935      3.929
REMARK  4 active torsions:
REMARK  status: ('A' for Active; 'I' for Inactive)
REMARK    1  A    between atoms: O1_2  and  C2_3 
REMARK    2  A    between atoms: C3_4  and  C4_5 
REMARK    3  A    between atoms: C8_10  and  O2_11 
REMARK    4  A    between atoms: C15_19  and  O3_20 
ROOT
HETATM    1  C4  UNL     1      26.579   1.820  53.860  1.00  0.00     0.036 C 
HETATM    2  C5  UNL     1      25.783   1.798  52.807  1.00  0.00     0.071 C 
HETATM    3  C6  UNL     1      24.994   0.659  52.210  1.00  0.00     0.212 C 
HETATM    4  N1  UNL     1      23.627   0.967  52.136  1.00  0.00    -0.296 NA
HETATM    5  C7  UNL     1      22.861   1.057  53.140  1.00  0.00     0.120 C 
HETATM    6  C8  UNL     1      21.583   1.402  52.408  1.00  0.00     0.190 C 
HETATM    7  C10 UNL     1      21.790   2.679  51.629  1.00  0.00    -0.041 C 
HETATM    8  C11 UNL     1      21.534   3.986  51.830  1.00  0.00     0.008 C 
HETATM    9  C12 UNL     1      22.563   4.735  51.065  1.00  0.00     0.025 C 
HETATM   10  C13 UNL     1      23.371   3.849  50.454  1.00  0.00     0.013 C 
HETATM   11  C14 UNL     1      22.438   2.676  50.278  1.00  0.00     0.094 C 
HETATM   12  N2  UNL     1      24.759   4.090  50.112  1.00  0.00    -0.345 N 
HETATM   13  C15 UNL     1      25.622   3.032  50.634  1.00  0.00     0.375 C 
HETATM   14  O4  UNL     1      25.482   2.862  51.995  1.00  0.00    -0.305 OA
HETATM   15  H18 UNL     1      24.915   4.962  49.560  1.00  0.00     0.164 HD
ENDROOT
BRANCH   1  16
HETATM   16  C3  UNL     1      26.808   0.622  54.642  1.00  0.00     0.026 C 
HETATM   17  C2  UNL     1      28.004   0.079  54.743  1.00  0.00     0.134 C 
BRANCH  17  18
HETATM   18  O1  UNL     1      29.311   0.246  54.322  1.00  0.00    -0.368 OA
HETATM   19  C1  UNL     1      29.864  -0.869  53.606  1.00  0.00     0.208 C 
ENDBRANCH  17  18
ENDBRANCH   1  16
BRANCH  13  20
HETATM   20  O3  UNL     1      26.923   3.349  50.241  1.00  0.00    -0.349 OA
HETATM   21  C16 UNL     1      26.988   4.256  49.195  1.00  0.00     0.206 C 
ENDBRANCH  13  20
BRANCH   6  22
HETATM   22  O2  UNL     1      21.199   0.415  51.543  1.00  0.00    -0.381 OA
HETATM   23  C9  UNL     1      19.800   0.355  51.497  1.00  0.00     0.202 C 
ENDBRANCH   6  22
TORSDOF 4
ENDMDL
MODEL 3
REMARK VINA RESULT:      -6.7      2.339      4.438
REMARK  4 active torsions:
REMARK  status: ('A' for Active; 'I' for Inactive)
REMARK    1  A    between atoms: O1_2  and  C2_3 
REMARK    2  A    between atoms: C3_4  and  C4_5 
REMARK    3  A    between atoms: C8_10  and  O2_11 
REMARK    4  A    between atoms: C15_19  and  O3_20 
ROOT
HETATM    1  C4  UNL     1      27.978   2.143  52.811  1.00  0.00     0.036 C 
HETATM    2  C5  UNL     1      26.945   2.120  51.991  1.00  0.00     0.071 C 
HETATM    3  C6  UNL     1      26.067   0.968  51.567  1.00  0.00     0.212 C 
HETATM    4  N1  UNL     1      24.717   1.223  51.849  1.00  0.00    -0.296 NA
HETATM    5  C7  UNL     1      24.225   1.253  53.015  1.00  0.00     0.120 C 
HETATM    6  C8  UNL     1      22.794   1.567  52.640  1.00  0.00     0.190 C 
HETATM    7  C10 UNL     1      22.759   2.874  51.884  1.00  0.00    -0.041 C 
HETATM    8  C11 UNL     1      22.520   4.163  52.192  1.00  0.00     0.008 C 
HETATM    9  C12 UNL     1      23.299   4.975  51.224  1.00  0.00     0.025 C 
HETATM   10  C13 UNL     1      23.955   4.140  50.397  1.00  0.00     0.013 C 
HETATM   11  C14 UNL     1      23.045   2.936  50.414  1.00  0.00     0.094 C 
HETATM   12  N2  UNL     1      25.204   4.446  49.728  1.00  0.00    -0.345 N 
HETATM   13  C15 UNL     1      26.204   3.410  49.976  1.00  0.00     0.375 C 
HETATM   14  O4  UNL     1      26.416   3.194  51.322  1.00  0.00    -0.305 OA
HETATM   15  H18 UNL     1      25.189   5.340  49.187  1.00  0.00     0.164 HD
ENDROOT
BRANCH   1  16
HETATM   16  C3  UNL     1      28.435   0.933  53.465  1.00  0.00     0.026 C 
HETATM   17  C2  UNL     1      27.809   0.432  54.510  1.00  0.00     0.134 C 
BRANCH  17  18
HETATM   18  O1  UNL     1      26.724   0.660  55.337  1.00  0.00    -0.368 OA
HETATM   19  C1  UNL     1      25.829  -0.453  55.482  1.00  0.00     0.208 C 
ENDBRANCH  17  18
ENDBRANCH   1  16
BRANCH  13  20
HETATM   20  O3  UNL     1      27.354   3.789  49.282  1.00  0.00    -0.349 OA
HETATM   21  C16 UNL     1      27.281   5.057  48.727  1.00  0.00     0.206 C 
ENDBRANCH  13  20
BRANCH   6  22
HETATM   22  O2  UNL     1      22.236   0.591  51.862  1.00  0.00    -0.381 OA
HETATM   23  C9  UNL     1      21.248  -0.081  52.594  1.00  0.00     0.202 C 
ENDBRANCH   6  22
TORSDOF 4
ENDMDL
MODEL 4
REMARK VINA RESULT:      -6.6      1.343      1.370
REMARK  4 active torsions:
REMARK  status: ('A' for Active; 'I' for Inactive)
REMARK    1  A    between atoms: O1_2  and  C2_3 
REMARK    2  A    between atoms: C3_4  and  C4_5 
REMARK    3  A    between atoms: C8_10  and  O2_11 
REMARK    4  A    between atoms: C15_19  and  O3_20 
ROOT
HETATM    1  C4  UNL     1      25.441   0.491  53.491  1.00  0.00     0.036 C 
HETATM    2  C5  UNL     1      24.402   1.202  53.094  1.00  0.00     0.071 C 
HETATM    3  C6  UNL     1      24.237   2.698  52.978  1.00  0.00     0.212 C 
HETATM    4  N1  UNL     1      23.874   3.072  51.675  1.00  0.00    -0.296 NA
HETATM    5  C7  UNL     1      24.648   3.014  50.674  1.00  0.00     0.120 C 
HETATM    6  C8  UNL     1      23.687   3.530  49.626  1.00  0.00     0.190 C 
HETATM    7  C10 UNL     1      22.483   2.621  49.572  1.00  0.00    -0.041 C 
HETATM    8  C11 UNL     1      22.091   1.578  48.815  1.00  0.00     0.008 C 
HETATM    9  C12 UNL     1      21.219   0.741  49.677  1.00  0.00     0.025 C 
HETATM   10  C13 UNL     1      21.134   1.319  50.889  1.00  0.00     0.013 C 
HETATM   11  C14 UNL     1      21.344   2.771  50.536  1.00  0.00     0.094 C 
HETATM   12  N2  UNL     1      20.897   0.610  52.131  1.00  0.00    -0.345 N 
HETATM   13  C15 UNL     1      21.911   0.943  53.130  1.00  0.00     0.375 C 
HETATM   14  O4  UNL     1      23.193   0.709  52.676  1.00  0.00    -0.305 OA
HETATM   15  H18 UNL     1      20.057  -0.010  52.114  1.00  0.00     0.164 HD
ENDROOT
BRANCH   1  16
HETATM   16  C3  UNL     1      26.670   1.138  53.902  1.00  0.00     0.026 C 
HETATM   17  C2  UNL     1      27.750   0.446  54.203  1.00  0.00     0.134 C 
BRANCH  17  18
HETATM   18  O1  UNL     1      28.218  -0.853  54.286  1.00  0.00    -0.368 OA
HETATM   19  C1  UNL     1      29.442  -1.102  53.577  1.00  0.00     0.208 C 
ENDBRANCH  17  18
ENDBRANCH   1  16
BRANCH  13  20
HETATM   20  O3  UNL     1      21.587   0.226  54.283  1.00  0.00    -0.349 OA
HETATM   21  C16 UNL     1      21.639  -1.150  54.121  1.00  0.00     0.206 C 
ENDBRANCH  13  20
BRANCH   6  22
HETATM   22  O2  UNL     1      23.268   4.804  49.890  1.00  0.00    -0.381 OA
HETATM   23  C9  UNL     1      23.211   5.533  48.695  1.00  0.00     0.202 C 
ENDBRANCH   6  22
TORSDOF 4
ENDMDL
MODEL 5
REMARK VINA RESULT:      -6.4      2.671      6.734
REMARK  4 active torsions:
REMARK  status: ('A' for Active; 'I' for Inactive)
REMARK    1  A    between atoms: O1_2  and  C2_3 
REMARK    2  A    between atoms: C3_4  and  C4_5 
REMARK    3  A    between atoms: C8_10  and  O2_11 
REMARK    4  A    between atoms: C15_19  and  O3_20 
ROOT
HETATM    1  C4  UNL     1      23.067   2.895  48.161  1.00  0.00     0.036 C 
HETATM    2  C5  UNL     1      23.418   2.978  49.430  1.00  0.00     0.071 C 
HETATM    3  C6  UNL     1      22.565   3.138  50.665  1.00  0.00     0.212 C 
HETATM    4  N1  UNL     1      22.795   2.101  51.582  1.00  0.00    -0.296 NA
HETATM    5  C7  UNL     1      22.432   0.901  51.408  1.00  0.00     0.120 C 
HETATM    6  C8  UNL     1      22.962   0.323  52.701  1.00  0.00     0.190 C 
HETATM    7  C10 UNL     1      24.453   0.550  52.767  1.00  0.00    -0.041 C 
HETATM    8  C11 UNL     1      25.555  -0.170  52.481  1.00  0.00     0.008 C 
HETATM    9  C12 UNL     1      26.606   0.807  52.103  1.00  0.00     0.025 C 
HETATM   10  C13 UNL     1      26.087   2.046  52.181  1.00  0.00     0.013 C 
HETATM   11  C14 UNL     1      25.027   1.853  53.238  1.00  0.00     0.094 C 
HETATM   12  N2  UNL     1      26.527   3.181  51.394  1.00  0.00    -0.345 N 
HETATM   13  C15 UNL     1      25.403   3.815  50.708  1.00  0.00     0.375 C 
HETATM   14  O4  UNL     1      24.697   2.927  49.923  1.00  0.00    -0.305 OA
HETATM   15  H18 UNL     1      27.554   3.360  51.443  1.00  0.00     0.164 HD
ENDROOT
BRANCH   1  16
HETATM   16  C3  UNL     1      21.673   2.955  47.770  1.00  0.00     0.026 C 
HETATM   17  C2  UNL     1      21.308   3.324  46.559  1.00  0.00     0.134 C 
BRANCH  17  18
HETATM   18  O1  UNL     1      21.830   3.734  45.346  1.00  0.00    -0.368 OA
HETATM   19  C1  UNL     1      21.959   5.156  45.192  1.00  0.00     0.208 C 
ENDBRANCH  17  18
ENDBRANCH   1  16
BRANCH  13  20
HETATM   20  O3  UNL     1      25.927   4.896  49.997  1.00  0.00    -0.349 OA
HETATM   21  C16 UNL     1      26.871   4.537  49.048  1.00  0.00     0.206 C 
ENDBRANCH  13  20
BRANCH   6  22
HETATM   22  O2  UNL     1      22.379   0.891  53.799  1.00  0.00    -0.381 OA
HETATM   23  C9  UNL     1      21.598  -0.066  54.460  1.00  0.00     0.202 C 
ENDBRANCH   6  22
TORSDOF 4
ENDMDL
MODEL 6
REMARK VINA RESULT:      -6.4      2.108      5.651
REMARK  4 active torsions:
REMARK  status: ('A' for Active; 'I' for Inactive)
REMARK    1  A    between atoms: O1_2  and  C2_3 
REMARK    2  A    between atoms: C3_4  and  C4_5 
REMARK    3  A    between atoms: C8_10  and  O2_11 
REMARK    4  A    between atoms: C15_19  and  O3_20 
ROOT
HETATM    1  C4  UNL     1      22.427   4.284  52.353  1.00  0.00     0.036 C 
HETATM    2  C5  UNL     1      22.446   2.983  52.136  1.00  0.00     0.071 C 
HETATM    3  C6  UNL     1      23.481   2.129  51.445  1.00  0.00     0.212 C 
HETATM    4  N1  UNL     1      23.942   1.105  52.286  1.00  0.00    -0.296 NA
HETATM    5  C7  UNL     1      24.678   1.291  53.299  1.00  0.00     0.120 C 
HETATM    6  C8  UNL     1      24.804  -0.149  53.744  1.00  0.00     0.190 C 
HETATM    7  C10 UNL     1      23.427  -0.698  54.031  1.00  0.00    -0.041 C 
HETATM    8  C11 UNL     1      22.661  -0.865  55.126  1.00  0.00     0.008 C 
HETATM    9  C12 UNL     1      21.252  -0.786  54.666  1.00  0.00     0.025 C 
HETATM   10  C13 UNL     1      21.247  -0.578  53.336  1.00  0.00     0.013 C 
HETATM   11  C14 UNL     1      22.551  -1.225  52.935  1.00  0.00     0.094 C 
HETATM   12  N2  UNL     1      20.197   0.104  52.606  1.00  0.00    -0.345 N 
HETATM   13  C15 UNL     1      20.742   1.182  51.782  1.00  0.00     0.375 C 
HETATM   14  O4  UNL     1      21.484   2.082  52.517  1.00  0.00    -0.305 OA
HETATM   15  H18 UNL     1      19.241  -0.276  52.782  1.00  0.00     0.164 HD
ENDROOT
BRANCH   1  16
HETATM   16  C3  UNL     1      23.515   5.129  51.903  1.00  0.00     0.026 C 
HETATM   17  C2  UNL     1      23.534   5.648  50.693  1.00  0.00     0.134 C 
BRANCH  17  18
HETATM   18  O1  UNL     1      22.800   5.697  49.521  1.00  0.00    -0.368 OA
HETATM   19  C1  UNL     1      23.249   4.807  48.488  1.00  0.00     0.208 C 
ENDBRANCH  17  18
ENDBRANCH   1  16
BRANCH  13  20
HETATM   20  O3  UNL     1      19.661   1.760  51.116  1.00  0.00    -0.349 OA
HETATM   21  C16 UNL     1      18.821   0.841  50.507  1.00  0.00     0.206 C 
ENDBRANCH  13  20
BRANCH   6  22
HETATM   22  O2  UNL     1      25.405  -0.932  52.798  1.00  0.00    -0.381 OA
HETATM   23  C9  UNL     1      26.764  -1.074  53.105  1.00  0.00     0.202 C 
ENDBRANCH   6  22
TORSDOF 4
ENDMDL
MODEL 7
REMARK VINA RESULT:      -6.3      2.805      3.992
REMARK  4 active torsions:
REMARK  status: ('A' for Active; 'I' for Inactive)
REMARK    1  A    between atoms: O1_2  and  C2_3 
REMARK    2  A    between atoms: C3_4  and  C4_5 
REMARK    3  A    between atoms: C8_10  and  O2_11 
REMARK    4  A    between atoms: C15_19  and  O3_20 
ROOT
HETATM    1  C4  UNL     1      26.215   3.630  49.811  1.00  0.00     0.036 C 
HETATM    2  C5  UNL     1      25.271   3.503  50.723  1.00  0.00     0.071 C 
HETATM    3  C6  UNL     1      24.214   4.484  51.170  1.00  0.00     0.212 C 
HETATM    4  N1  UNL     1      22.926   3.945  51.032  1.00  0.00    -0.296 NA
HETATM    5  C7  UNL     1      22.355   3.737  49.921  1.00  0.00     0.120 C 
HETATM    6  C8  UNL     1      21.055   3.171  50.448  1.00  0.00     0.190 C 
HETATM    7  C10 UNL     1      21.352   1.939  51.269  1.00  0.00    -0.041 C 
HETATM    8  C11 UNL     1      21.358   0.610  51.051  1.00  0.00     0.008 C 
HETATM    9  C12 UNL     1      22.365   0.039  51.981  1.00  0.00     0.025 C 
HETATM   10  C13 UNL     1      22.903   1.043  52.698  1.00  0.00     0.013 C 
HETATM   11  C14 UNL     1      21.767   2.037  52.706  1.00  0.00     0.094 C 
HETATM   12  N2  UNL     1      24.239   1.039  53.259  1.00  0.00    -0.345 N 
HETATM   13  C15 UNL     1      24.981   2.235  52.864  1.00  0.00     0.375 C 
HETATM   14  O4  UNL     1      25.031   2.395  51.495  1.00  0.00    -0.305 OA
HETATM   15  H18 UNL     1      24.453   0.201  53.843  1.00  0.00     0.164 HD
ENDROOT
BRANCH   1  16
HETATM   16  C3  UNL     1      26.358   4.858  49.055  1.00  0.00     0.026 C 
HETATM   17  C2  UNL     1      27.524   5.250  48.583  1.00  0.00     0.134 C 
BRANCH  17  18
HETATM   18  O1  UNL     1      28.854   4.875  48.529  1.00  0.00    -0.368 OA
HETATM   19  C1  UNL     1      29.769   5.933  48.201  1.00  0.00     0.208 C 
ENDBRANCH  17  18
ENDBRANCH   1  16
BRANCH  13  20
HETATM   20  O3  UNL     1      26.238   2.142  53.462  1.00  0.00    -0.349 OA
HETATM   21  C16 UNL     1      26.818   0.887  53.356  1.00  0.00     0.206 C 
ENDBRANCH  13  20
BRANCH   6  22
HETATM   22  O2  UNL     1      20.377   4.067  51.224  1.00  0.00    -0.381 OA
HETATM   23  C9  UNL     1      19.018   4.044  50.884  1.00  0.00     0.202 C 
ENDBRANCH   6  22
TORSDOF 4
ENDMDL
MODEL 8
REMARK VINA RESULT:      -6.1      2.293      3.753
REMARK  4 active torsions:
REMARK  status: ('A' for Active; 'I' for Inactive)
REMARK    1  A    between atoms: O1_2  and  C2_3 
REMARK    2  A    between atoms: C3_4  and  C4_5 
REMARK    3  A    between atoms: C8_10  and  O2_11 
REMARK    4  A    between atoms: C15_19  and  O3_20 
ROOT
HETATM    1  C4  UNL     1      22.088  -0.987  53.066  1.00  0.00     0.036 C 
HETATM    2  C5  UNL     1      21.622   0.113  52.506  1.00  0.00     0.071 C 
HETATM    3  C6  UNL     1      21.622   1.536  53.010  1.00  0.00     0.212 C 
HETATM    4  N1  UNL     1      22.260   2.399  52.106  1.00  0.00    -0.296 NA
HETATM    5  C7  UNL     1      23.506   2.408  51.886  1.00  0.00     0.120 C 
HETATM    6  C8  UNL     1      23.538   3.514  50.855  1.00  0.00     0.190 C 
HETATM    7  C10 UNL     1      22.673   3.118  49.683  1.00  0.00    -0.041 C 
HETATM    8  C11 UNL     1      22.877   2.558  48.476  1.00  0.00     0.008 C 
HETATM    9  C12 UNL     1      21.629   1.829  48.137  1.00  0.00     0.025 C 
HETATM   10  C13 UNL     1      20.753   1.989  49.146  1.00  0.00     0.013 C 
HETATM   11  C14 UNL     1      21.188   3.323  49.701  1.00  0.00     0.094 C 
HETATM   12  N2  UNL     1      19.711   1.045  49.498  1.00  0.00    -0.345 N 
HETATM   13  C15 UNL     1      19.776   0.692  50.915  1.00  0.00     0.375 C 
HETATM   14  O4  UNL     1      21.013   0.204  51.280  1.00  0.00    -0.305 OA
HETATM   15  H18 UNL     1      19.094   0.775  48.700  1.00  0.00     0.164 HD
ENDROOT
BRANCH   1  16
HETATM   16  C3  UNL     1      22.719  -0.946  54.369  1.00  0.00     0.026 C 
HETATM   17  C2  UNL     1      24.028  -0.885  54.504  1.00  0.00     0.134 C 
BRANCH  17  18
HETATM   18  O1  UNL     1      25.194  -0.840  53.761  1.00  0.00    -0.368 OA
HETATM   19  C1  UNL     1      25.936   0.385  53.871  1.00  0.00     0.208 C 
ENDBRANCH  17  18
ENDBRANCH   1  16
BRANCH  13  20
HETATM   20  O3  UNL     1      18.731  -0.202  51.152  1.00  0.00    -0.349 OA
HETATM   21  C16 UNL     1      17.564   0.105  50.469  1.00  0.00     0.206 C 
ENDBRANCH  13  20
BRANCH   6  22
HETATM   22  O2  UNL     1      23.086   4.702  51.357  1.00  0.00    -0.381 OA
HETATM   23  C9  UNL     1      23.953   5.732  50.967  1.00  0.00     0.202 C 
ENDBRANCH   6  22
TORSDOF 4
ENDMDL
MODEL 9
REMARK VINA RESULT:      -6.0      3.310      5.641
REMARK  4 active torsions:
REMARK  status: ('A' for Active; 'I' for Inactive)
REMARK    1  A    between atoms: O1_2  and  C2_3 
REMARK    2  A    between atoms: C3_4  and  C4_5 
REMARK    3  A    between atoms: C8_10  and  O2_11 
REMARK    4  A    between atoms: C15_19  and  O3_20 
ROOT
HETATM    1  C4  UNL     1      26.641   2.408  51.326  1.00  0.00     0.036 C 
HETATM    2  C5  UNL     1      26.120   3.236  50.440  1.00  0.00     0.071 C 
HETATM    3  C6  UNL     1      24.891   3.087  49.577  1.00  0.00     0.212 C 
HETATM    4  N1  UNL     1      23.991   4.143  49.784  1.00  0.00    -0.296 NA
HETATM    5  C7  UNL     1      23.310   4.303  50.840  1.00  0.00     0.120 C 
HETATM    6  C8  UNL     1      22.581   5.567  50.439  1.00  0.00     0.190 C 
HETATM    7  C10 UNL     1      23.595   6.647  50.148  1.00  0.00    -0.041 C 
HETATM    8  C11 UNL     1      24.136   7.675  50.830  1.00  0.00     0.008 C 
HETATM    9  C12 UNL     1      25.492   7.884  50.263  1.00  0.00     0.025 C 
HETATM   10  C13 UNL     1      25.689   6.982  49.283  1.00  0.00     0.013 C 
HETATM   11  C14 UNL     1      24.274   6.745  48.815  1.00  0.00     0.094 C 
HETATM   12  N2  UNL     1      26.981   6.461  48.883  1.00  0.00    -0.345 N 
HETATM   13  C15 UNL     1      26.984   4.999  48.885  1.00  0.00     0.375 C 
HETATM   14  O4  UNL     1      26.606   4.474  50.103  1.00  0.00    -0.305 OA
HETATM   15  H18 UNL     1      27.688   7.198  48.662  1.00  0.00     0.164 HD
ENDROOT
BRANCH   1  16
HETATM   16  C3  UNL     1      26.023   1.126  51.597  1.00  0.00     0.026 C 
HETATM   17  C2  UNL     1      25.777   0.721  52.826  1.00  0.00     0.134 C 
BRANCH  17  18
HETATM   18  O1  UNL     1      25.906   1.117  54.145  1.00  0.00    -0.368 OA
HETATM   19  C1  UNL     1      26.552   0.164  55.003  1.00  0.00     0.208 C 
ENDBRANCH  17  18
ENDBRANCH   1  16
BRANCH  13  20
HETATM   20  O3  UNL     1      28.257   4.602  48.475  1.00  0.00    -0.349 OA
HETATM   21  C16 UNL     1      29.125   5.657  48.238  1.00  0.00     0.206 C 
ENDBRANCH  13  20
BRANCH   6  22
HETATM   22  O2  UNL     1      21.798   5.385  49.334  1.00  0.00    -0.381 OA
HETATM   23  C9  UNL     1      20.499   5.044  49.734  1.00  0.00     0.202 C 
ENDBRANCH   6  22
TORSDOF 4
ENDMDL
