MODEL 1
REMARK VINA RESULT:      -9.0      0.000      0.000
REMARK  6 active torsions:
REMARK  status: ('A' for Active; 'I' for Inactive)
REMARK    1  A    between atoms: C7_9  and  N3_10 
REMARK       I    between atoms: N3_10  and  C8_11 
REMARK    2  A    between atoms: C8_11  and  C9_13 
REMARK    3  A    between atoms: C10_14  and  C11_15 
REMARK    4  A    between atoms: C11_15  and  N4_16 
REMARK    5  A    between atoms: C17_22  and  N5_23 
REMARK    6  A    between atoms: N5_23  and  C18_24 
ROOT
HETATM    1  N1  UNL     1      21.606  -0.971  54.990  1.00  0.00    -0.191 NA
HETATM    2  C1  UNL     1      21.796  -0.424  53.989  1.00  0.00     0.103 C 
HETATM    3  C2  UNL     1      22.032   0.275  52.757  1.00  0.00     0.089 A 
HETATM    4  C3  UNL     1      21.085   0.069  51.762  1.00  0.00     0.142 A 
HETATM    5  N2  UNL     1      21.222   0.687  50.565  1.00  0.00    -0.259 NA
HETATM    6  C4  UNL     1      22.268   1.500  50.324  1.00  0.00     0.069 A 
HETATM    7  C5  UNL     1      22.405   2.133  49.099  1.00  0.00     0.035 A 
HETATM    8  C6  UNL     1      23.512   2.968  48.915  1.00  0.00     0.032 A 
HETATM    9  C7  UNL     1      24.450   3.164  49.916  1.00  0.00     0.036 A 
HETATM   10  C15 UNL     1      24.297   2.528  51.124  1.00  0.00     0.045 A 
HETATM   11  C16 UNL     1      23.208   1.703  51.312  1.00  0.00     0.023 A 
HETATM   12  C17 UNL     1      23.130   1.110  52.546  1.00  0.00     0.067 A 
ENDROOT
BRANCH  12  13
HETATM   13  N5  UNL     1      24.065   1.287  53.594  1.00  0.00    -0.354 N 
HETATM   14  H14 UNL     1      23.886   1.857  54.439  1.00  0.00     0.166 HD
BRANCH  13  15
HETATM   15  C18 UNL     1      25.330   0.631  53.460  1.00  0.00     0.033 A 
HETATM   16  C19 UNL     1      25.332  -0.654  52.930  1.00  0.00     0.029 A 
HETATM   17  C20 UNL     1      26.554  -1.318  52.792  1.00  0.00     0.004 A 
HETATM   18  C21 UNL     1      27.730  -0.724  53.168  1.00  0.00     0.019 A 
HETATM   19  C22 UNL     1      27.730   0.562  53.698  1.00  0.00     0.013 A 
HETATM   20 BR1  UNL     1      29.388   1.387  54.225  1.00  0.00    -0.051 Br
HETATM   21  C23 UNL     1      26.520   1.220  53.835  1.00  0.00     0.048 A 
ENDBRANCH  13  15
ENDBRANCH  12  13
BRANCH   9  22
HETATM   22  N3  UNL     1      25.451   4.055  49.450  1.00  0.00    -0.316 N 
HETATM   23  C8  UNL     1      25.625   5.434  49.152  1.00  0.00     0.301 C 
HETATM   24  O1  UNL     1      24.727   6.321  49.270  1.00  0.00    -0.258 OA
HETATM   25  H4  UNL     1      26.260   3.378  49.318  1.00  0.00     0.170 HD
BRANCH  23  26
HETATM   26  C9  UNL     1      26.940   5.817  48.684  1.00  0.00    -0.004 C 
HETATM   27  C10 UNL     1      28.054   6.122  48.282  1.00  0.00    -0.066 C 
BRANCH  27  28
HETATM   28  C11 UNL     1      29.385   6.500  47.807  1.00  0.00     0.366 C 
BRANCH  28  29
HETATM   29  N4  UNL     1      30.382   5.690  48.433  1.00  0.00     0.099 N 
HETATM   30  C12 UNL     1      31.432   6.331  49.160  1.00  0.00     0.275 C 
HETATM   31  C13 UNL     1      32.394   5.339  48.512  1.00  0.00     0.060 C 
HETATM   32  C14 UNL     1      31.257   4.935  47.584  1.00  0.00     0.275 C 
ENDBRANCH  28  29
ENDBRANCH  27  28
ENDBRANCH  23  26
ENDBRANCH   9  22
TORSDOF 6
ENDMDL
MODEL 2
REMARK VINA RESULT:      -8.9      0.930      1.157
REMARK  6 active torsions:
REMARK  status: ('A' for Active; 'I' for Inactive)
REMARK    1  A    between atoms: C7_9  and  N3_10 
REMARK       I    between atoms: N3_10  and  C8_11 
REMARK    2  A    between atoms: C8_11  and  C9_13 
REMARK    3  A    between atoms: C10_14  and  C11_15 
REMARK    4  A    between atoms: C11_15  and  N4_16 
REMARK    5  A    between atoms: C17_22  and  N5_23 
REMARK    6  A    between atoms: N5_23  and  C18_24 
ROOT
HETATM    1  N1  UNL     1      21.700  -1.184  54.952  1.00  0.00    -0.191 NA
HETATM    2  C1  UNL     1      21.866  -0.612  53.961  1.00  0.00     0.103 C 
HETATM    3  C2  UNL     1      22.072   0.118  52.742  1.00  0.00     0.089 A 
HETATM    4  C3  UNL     1      21.125  -0.098  51.749  1.00  0.00     0.142 A 
HETATM    5  N2  UNL     1      21.234   0.547  50.563  1.00  0.00    -0.259 NA
HETATM    6  C4  UNL     1      22.252   1.397  50.332  1.00  0.00     0.069 A 
HETATM    7  C5  UNL     1      22.362   2.058  49.119  1.00  0.00     0.035 A 
HETATM    8  C6  UNL     1      23.440   2.931  48.945  1.00  0.00     0.032 A 
HETATM    9  C7  UNL     1      24.379   3.137  49.944  1.00  0.00     0.036 A 
HETATM   10  C15 UNL     1      24.253   2.473  51.140  1.00  0.00     0.045 A 
HETATM   11  C16 UNL     1      23.192   1.611  51.318  1.00  0.00     0.023 A 
HETATM   12  C17 UNL     1      23.141   0.991  52.541  1.00  0.00     0.067 A 
ENDROOT
BRANCH  12  13
HETATM   13  N5  UNL     1      24.078   1.177  53.586  1.00  0.00    -0.354 N 
HETATM   14  H14 UNL     1      23.886   1.726  54.443  1.00  0.00     0.166 HD
BRANCH  13  15
HETATM   15  C18 UNL     1      25.361   0.563  53.433  1.00  0.00     0.033 A 
HETATM   16  C19 UNL     1      25.398  -0.712  52.880  1.00  0.00     0.029 A 
HETATM   17  C20 UNL     1      26.639  -1.336  52.722  1.00  0.00     0.004 A 
HETATM   18  C21 UNL     1      27.799  -0.713  53.102  1.00  0.00     0.019 A 
HETATM   19  C22 UNL     1      27.763   0.562  53.655  1.00  0.00     0.013 A 
HETATM   20 BR1  UNL     1      29.398   1.427  54.187  1.00  0.00    -0.051 Br
HETATM   21  C23 UNL     1      26.535   1.181  53.812  1.00  0.00     0.048 A 
ENDBRANCH  13  15
ENDBRANCH  12  13
BRANCH   9  22
HETATM   22  N3  UNL     1      25.348   4.068  49.489  1.00  0.00    -0.316 N 
HETATM   23  C8  UNL     1      25.688   5.441  49.633  1.00  0.00     0.301 C 
HETATM   24  O1  UNL     1      25.051   6.275  50.346  1.00  0.00    -0.258 OA
HETATM   25  H4  UNL     1      25.936   3.439  48.866  1.00  0.00     0.170 HD
BRANCH  23  26
HETATM   26  C9  UNL     1      26.852   5.883  48.898  1.00  0.00    -0.004 C 
HETATM   27  C10 UNL     1      27.847   6.258  48.293  1.00  0.00    -0.066 C 
BRANCH  27  28
HETATM   28  C11 UNL     1      29.029   6.707  47.557  1.00  0.00     0.366 C 
BRANCH  28  29
HETATM   29  N4  UNL     1      29.917   7.409  48.429  1.00  0.00     0.099 N 
HETATM   30  C12 UNL     1      29.513   8.680  48.943  1.00  0.00     0.275 C 
HETATM   31  C13 UNL     1      30.931   9.169  48.662  1.00  0.00     0.060 C 
HETATM   32  C14 UNL     1      31.155   7.881  47.880  1.00  0.00     0.275 C 
ENDBRANCH  28  29
ENDBRANCH  27  28
ENDBRANCH  23  26
ENDBRANCH   9  22
TORSDOF 6
ENDMDL
MODEL 3
REMARK VINA RESULT:      -8.6      4.499     10.077
REMARK  6 active torsions:
REMARK  status: ('A' for Active; 'I' for Inactive)
REMARK    1  A    between atoms: C7_9  and  N3_10 
REMARK       I    between atoms: N3_10  and  C8_11 
REMARK    2  A    between atoms: C8_11  and  C9_13 
REMARK    3  A    between atoms: C10_14  and  C11_15 
REMARK    4  A    between atoms: C11_15  and  N4_16 
REMARK    5  A    between atoms: C17_22  and  N5_23 
REMARK    6  A    between atoms: N5_23  and  C18_24 
ROOT
HETATM    1  N1  UNL     1      27.985   2.023  52.377  1.00  0.00    -0.191 NA
HETATM    2  C1  UNL     1      27.122   1.416  52.850  1.00  0.00     0.103 C 
HETATM    3  C2  UNL     1      26.037   0.684  53.439  1.00  0.00     0.089 A 
HETATM    4  C3  UNL     1      26.347  -0.013  54.601  1.00  0.00     0.142 A 
HETATM    5  N2  UNL     1      25.388  -0.734  55.229  1.00  0.00    -0.259 NA
HETATM    6  C4  UNL     1      24.134  -0.786  54.742  1.00  0.00     0.069 A 
HETATM    7  C5  UNL     1      23.153  -1.523  55.387  1.00  0.00     0.035 A 
HETATM    8  C6  UNL     1      21.871  -1.532  54.831  1.00  0.00     0.032 A 
HETATM    9  C7  UNL     1      21.574  -0.833  53.672  1.00  0.00     0.036 A 
HETATM   10  C15 UNL     1      22.559  -0.108  53.046  1.00  0.00     0.045 A 
HETATM   11  C16 UNL     1      23.827  -0.096  53.589  1.00  0.00     0.023 A 
HETATM   12  C17 UNL     1      24.749   0.654  52.903  1.00  0.00     0.067 A 
ENDROOT
BRANCH  12  13
HETATM   13  N5  UNL     1      24.485   1.382  51.718  1.00  0.00    -0.354 N 
HETATM   14  H14 UNL     1      24.835   1.110  50.782  1.00  0.00     0.166 HD
BRANCH  13  15
HETATM   15  C18 UNL     1      23.686   2.563  51.839  1.00  0.00     0.033 A 
HETATM   16  C19 UNL     1      24.148   3.565  52.684  1.00  0.00     0.029 A 
HETATM   17  C20 UNL     1      23.384   4.728  52.822  1.00  0.00     0.004 A 
HETATM   18  C21 UNL     1      22.204   4.886  52.144  1.00  0.00     0.019 A 
HETATM   19  C22 UNL     1      21.741   3.884  51.297  1.00  0.00     0.013 A 
HETATM   20 BR1  UNL     1      20.081   4.116  50.350  1.00  0.00    -0.051 Br
HETATM   21  C23 UNL     1      22.497   2.733  51.160  1.00  0.00     0.048 A 
ENDBRANCH  13  15
ENDBRANCH  12  13
BRANCH   9  22
HETATM   22  N3  UNL     1      20.206  -1.023  53.348  1.00  0.00    -0.316 N 
HETATM   23  C8  UNL     1      19.136  -0.340  52.707  1.00  0.00     0.301 C 
HETATM   24  O1  UNL     1      19.217   0.817  52.195  1.00  0.00    -0.258 OA
HETATM   25  H4  UNL     1      20.049  -1.993  53.754  1.00  0.00     0.170 HD
BRANCH  23  26
HETATM   26  C9  UNL     1      17.877  -1.051  52.654  1.00  0.00    -0.004 C 
HETATM   27  C10 UNL     1      16.809  -1.648  52.629  1.00  0.00    -0.066 C 
BRANCH  27  28
HETATM   28  C11 UNL     1      15.536  -2.366  52.584  1.00  0.00     0.366 C 
BRANCH  28  29
HETATM   29  N4  UNL     1      15.751  -3.765  52.777  1.00  0.00     0.099 N 
HETATM   30  C12 UNL     1      14.895  -4.475  53.674  1.00  0.00     0.275 C 
HETATM   31  C13 UNL     1      16.142  -5.182  54.198  1.00  0.00     0.060 C 
HETATM   32  C14 UNL     1      16.969  -4.171  53.415  1.00  0.00     0.275 C 
ENDBRANCH  28  29
ENDBRANCH  27  28
ENDBRANCH  23  26
ENDBRANCH   9  22
TORSDOF 6
ENDMDL
MODEL 4
REMARK VINA RESULT:      -8.4      2.579      4.415
REMARK  6 active torsions:
REMARK  status: ('A' for Active; 'I' for Inactive)
REMARK    1  A    between atoms: C7_9  and  N3_10 
REMARK       I    between atoms: N3_10  and  C8_11 
REMARK    2  A    between atoms: C8_11  and  C9_13 
REMARK    3  A    between atoms: C10_14  and  C11_15 
REMARK    4  A    between atoms: C11_15  and  N4_16 
REMARK    5  A    between atoms: C17_22  and  N5_23 
REMARK    6  A    between atoms: N5_23  and  C18_24 
ROOT
HETATM    1  N1  UNL     1      20.352  -0.030  54.327  1.00  0.00    -0.191 NA
HETATM    2  C1  UNL     1      21.438   0.135  53.969  1.00  0.00     0.103 C 
HETATM    3  C2  UNL     1      22.780   0.339  53.501  1.00  0.00     0.089 A 
HETATM    4  C3  UNL     1      23.713  -0.595  53.935  1.00  0.00     0.142 A 
HETATM    5  N2  UNL     1      25.005  -0.486  53.546  1.00  0.00    -0.259 NA
HETATM    6  C4  UNL     1      25.401   0.518  52.741  1.00  0.00     0.069 A 
HETATM    7  C5  UNL     1      26.723   0.627  52.342  1.00  0.00     0.035 A 
HETATM    8  C6  UNL     1      27.068   1.691  51.502  1.00  0.00     0.032 A 
HETATM    9  C7  UNL     1      26.127   2.616  51.076  1.00  0.00     0.036 A 
HETATM   10  C15 UNL     1      24.821   2.492  51.482  1.00  0.00     0.045 A 
HETATM   11  C16 UNL     1      24.475   1.445  52.311  1.00  0.00     0.023 A 
HETATM   12  C17 UNL     1      23.151   1.394  52.666  1.00  0.00     0.067 A 
ENDROOT
BRANCH  12  13
HETATM   13  N5  UNL     1      22.162   2.317  52.251  1.00  0.00    -0.354 N 
HETATM   14  H14 UNL     1      21.681   2.975  52.889  1.00  0.00     0.166 HD
BRANCH  13  15
HETATM   15  C18 UNL     1      21.816   2.327  50.863  1.00  0.00     0.033 A 
HETATM   16  C19 UNL     1      21.550   1.102  50.261  1.00  0.00     0.029 A 
HETATM   17  C20 UNL     1      21.213   1.084  48.904  1.00  0.00     0.004 A 
HETATM   18  C21 UNL     1      21.144   2.242  48.175  1.00  0.00     0.019 A 
HETATM   19  C22 UNL     1      21.410   3.467  48.776  1.00  0.00     0.013 A 
HETATM   20 BR1  UNL     1      21.311   5.088  47.742  1.00  0.00    -0.051 Br
HETATM   21  C23 UNL     1      21.743   3.487  50.119  1.00  0.00     0.048 A 
ENDBRANCH  13  15
ENDBRANCH  12  13
BRANCH   9  22
HETATM   22  N3  UNL     1      26.758   3.572  50.240  1.00  0.00    -0.316 N 
HETATM   23  C8  UNL     1      26.422   4.581  49.296  1.00  0.00     0.301 C 
HETATM   24  O1  UNL     1      25.241   4.882  48.946  1.00  0.00    -0.258 OA
HETATM   25  H4  UNL     1      27.778   3.383  50.473  1.00  0.00     0.170 HD
BRANCH  23  26
HETATM   26  C9  UNL     1      27.536   5.298  48.715  1.00  0.00    -0.004 C 
HETATM   27  C10 UNL     1      28.484   5.910  48.242  1.00  0.00    -0.066 C 
BRANCH  27  28
HETATM   28  C11 UNL     1      29.612   6.637  47.663  1.00  0.00     0.366 C 
BRANCH  28  29
HETATM   29  N4  UNL     1      30.177   7.525  48.630  1.00  0.00     0.099 N 
HETATM   30  C12 UNL     1      29.414   8.658  49.052  1.00  0.00     0.275 C 
HETATM   31  C13 UNL     1      30.700   9.474  48.955  1.00  0.00     0.060 C 
HETATM   32  C14 UNL     1      31.331   8.284  48.244  1.00  0.00     0.275 C 
ENDBRANCH  28  29
ENDBRANCH  27  28
ENDBRANCH  23  26
ENDBRANCH   9  22
TORSDOF 6
ENDMDL
MODEL 5
REMARK VINA RESULT:      -8.4      2.382      4.300
REMARK  6 active torsions:
REMARK  status: ('A' for Active; 'I' for Inactive)
REMARK    1  A    between atoms: C7_9  and  N3_10 
REMARK       I    between atoms: N3_10  and  C8_11 
REMARK    2  A    between atoms: C8_11  and  C9_13 
REMARK    3  A    between atoms: C10_14  and  C11_15 
REMARK    4  A    between atoms: C11_15  and  N4_16 
REMARK    5  A    between atoms: C17_22  and  N5_23 
REMARK    6  A    between atoms: N5_23  and  C18_24 
ROOT
HETATM    1  N1  UNL     1      21.561  -2.037  54.529  1.00  0.00    -0.191 NA
HETATM    2  C1  UNL     1      22.536  -1.435  54.378  1.00  0.00     0.103 C 
HETATM    3  C2  UNL     1      23.750  -0.698  54.169  1.00  0.00     0.089 A 
HETATM    4  C3  UNL     1      24.731  -0.876  55.137  1.00  0.00     0.142 A 
HETATM    5  N2  UNL     1      25.912  -0.222  55.026  1.00  0.00    -0.259 NA
HETATM    6  C4  UNL     1      26.149   0.602  53.988  1.00  0.00     0.069 A 
HETATM    7  C5  UNL     1      27.358   1.269  53.875  1.00  0.00     0.035 A 
HETATM    8  C6  UNL     1      27.543   2.106  52.771  1.00  0.00     0.032 A 
HETATM    9  C7  UNL     1      26.556   2.275  51.812  1.00  0.00     0.036 A 
HETATM   10  C15 UNL     1      25.363   1.606  51.941  1.00  0.00     0.045 A 
HETATM   11  C16 UNL     1      25.175   0.778  53.028  1.00  0.00     0.023 A 
HETATM   12  C17 UNL     1      23.958   0.147  53.079  1.00  0.00     0.067 A 
ENDROOT
BRANCH  12  13
HETATM   13  N5  UNL     1      22.927   0.292  52.120  1.00  0.00    -0.354 N 
HETATM   14  H14 UNL     1      22.715  -0.409  51.388  1.00  0.00     0.166 HD
BRANCH  13  15
HETATM   15  C18 UNL     1      22.139   1.485  52.180  1.00  0.00     0.033 A 
HETATM   16  C19 UNL     1      20.833   1.367  52.642  1.00  0.00     0.029 A 
HETATM   17  C20 UNL     1      20.042   2.517  52.708  1.00  0.00     0.004 A 
HETATM   18  C21 UNL     1      20.532   3.739  52.326  1.00  0.00     0.019 A 
HETATM   19  C22 UNL     1      21.838   3.858  51.864  1.00  0.00     0.013 A 
HETATM   20 BR1  UNL     1      22.517   5.578  51.328  1.00  0.00    -0.051 Br
HETATM   21  C23 UNL     1      22.623   2.720  51.799  1.00  0.00     0.048 A 
ENDBRANCH  13  15
ENDBRANCH  12  13
BRANCH   9  22
HETATM   22  N3  UNL     1      27.020   3.172  50.816  1.00  0.00    -0.316 N 
HETATM   23  C8  UNL     1      26.529   3.913  49.706  1.00  0.00     0.301 C 
HETATM   24  O1  UNL     1      25.325   3.910  49.307  1.00  0.00    -0.258 OA
HETATM   25  H4  UNL     1      28.048   3.231  51.079  1.00  0.00     0.170 HD
BRANCH  23  26
HETATM   26  C9  UNL     1      27.504   4.718  49.004  1.00  0.00    -0.004 C 
HETATM   27  C10 UNL     1      28.325   5.415  48.423  1.00  0.00    -0.066 C 
BRANCH  27  28
HETATM   28  C11 UNL     1      29.308   6.236  47.718  1.00  0.00     0.366 C 
BRANCH  28  29
HETATM   29  N4  UNL     1      30.319   6.683  48.624  1.00  0.00     0.099 N 
HETATM   30  C12 UNL     1      30.405   8.078  48.924  1.00  0.00     0.275 C 
HETATM   31  C13 UNL     1      31.920   7.942  48.800  1.00  0.00     0.060 C 
HETATM   32  C14 UNL     1      31.686   6.557  48.212  1.00  0.00     0.275 C 
ENDBRANCH  28  29
ENDBRANCH  27  28
ENDBRANCH  23  26
ENDBRANCH   9  22
TORSDOF 6
ENDMDL
MODEL 6
REMARK VINA RESULT:      -8.3      4.477      9.705
REMARK  6 active torsions:
REMARK  status: ('A' for Active; 'I' for Inactive)
REMARK    1  A    between atoms: C7_9  and  N3_10 
REMARK       I    between atoms: N3_10  and  C8_11 
REMARK    2  A    between atoms: C8_11  and  C9_13 
REMARK    3  A    between atoms: C10_14  and  C11_15 
REMARK    4  A    between atoms: C11_15  and  N4_16 
REMARK    5  A    between atoms: C17_22  and  N5_23 
REMARK    6  A    between atoms: N5_23  and  C18_24 
ROOT
HETATM    1  N1  UNL     1      28.251   1.779  52.686  1.00  0.00    -0.191 NA
HETATM    2  C1  UNL     1      27.325   1.226  53.100  1.00  0.00     0.103 C 
HETATM    3  C2  UNL     1      26.162   0.559  53.615  1.00  0.00     0.089 A 
HETATM    4  C3  UNL     1      26.360  -0.175  54.778  1.00  0.00     0.142 A 
HETATM    5  N2  UNL     1      25.322  -0.838  55.339  1.00  0.00    -0.259 NA
HETATM    6  C4  UNL     1      24.096  -0.798  54.784  1.00  0.00     0.069 A 
HETATM    7  C5  UNL     1      23.034  -1.476  55.361  1.00  0.00     0.035 A 
HETATM    8  C6  UNL     1      21.786  -1.390  54.736  1.00  0.00     0.032 A 
HETATM    9  C7  UNL     1      21.602  -0.655  53.576  1.00  0.00     0.036 A 
HETATM   10  C15 UNL     1      22.667   0.011  53.018  1.00  0.00     0.045 A 
HETATM   11  C16 UNL     1      23.900  -0.071  53.629  1.00  0.00     0.023 A 
HETATM   12  C17 UNL     1      24.907   0.625  53.009  1.00  0.00     0.067 A 
ENDROOT
BRANCH  12  13
HETATM   13  N5  UNL     1      24.759   1.388  51.826  1.00  0.00    -0.354 N 
HETATM   14  H14 UNL     1      25.193   1.139  50.919  1.00  0.00     0.166 HD
BRANCH  13  15
HETATM   15  C18 UNL     1      23.957   2.570  51.904  1.00  0.00     0.033 A 
HETATM   16  C19 UNL     1      24.258   3.481  52.911  1.00  0.00     0.029 A 
HETATM   17  C20 UNL     1      23.488   4.644  53.011  1.00  0.00     0.004 A 
HETATM   18  C21 UNL     1      22.458   4.889  52.142  1.00  0.00     0.019 A 
HETATM   19  C22 UNL     1      22.156   3.979  51.135  1.00  0.00     0.013 A 
HETATM   20 BR1  UNL     1      20.705   4.333  49.920  1.00  0.00    -0.051 Br
HETATM   21  C23 UNL     1      22.918   2.828  51.034  1.00  0.00     0.048 A 
ENDBRANCH  13  15
ENDBRANCH  12  13
BRANCH   9  22
HETATM   22  N3  UNL     1      20.245  -0.747  53.175  1.00  0.00    -0.316 N 
HETATM   23  C8  UNL     1      19.306  -0.067  52.350  1.00  0.00     0.301 C 
HETATM   24  O1  UNL     1      19.557   0.976  51.673  1.00  0.00    -0.258 OA
HETATM   25  H4  UNL     1      19.947  -1.614  53.712  1.00  0.00     0.170 HD
BRANCH  23  26
HETATM   26  C9  UNL     1      17.977  -0.637  52.305  1.00  0.00    -0.004 C 
HETATM   27  C10 UNL     1      16.851  -1.115  52.287  1.00  0.00    -0.066 C 
BRANCH  27  28
HETATM   28  C11 UNL     1      15.507  -1.690  52.250  1.00  0.00     0.366 C 
BRANCH  28  29
HETATM   29  N4  UNL     1      14.531  -0.655  52.114  1.00  0.00     0.099 N 
HETATM   30  C12 UNL     1      14.630   0.243  51.006  1.00  0.00     0.275 C 
HETATM   31  C13 UNL     1      14.300   1.372  51.979  1.00  0.00     0.060 C 
HETATM   32  C14 UNL     1      14.508   0.375  53.111  1.00  0.00     0.275 C 
ENDBRANCH  28  29
ENDBRANCH  27  28
ENDBRANCH  23  26
ENDBRANCH   9  22
TORSDOF 6
ENDMDL
MODEL 7
REMARK VINA RESULT:      -8.2      1.814      2.433
REMARK  6 active torsions:
REMARK  status: ('A' for Active; 'I' for Inactive)
REMARK    1  A    between atoms: C7_9  and  N3_10 
REMARK       I    between atoms: N3_10  and  C8_11 
REMARK    2  A    between atoms: C8_11  and  C9_13 
REMARK    3  A    between atoms: C10_14  and  C11_15 
REMARK    4  A    between atoms: C11_15  and  N4_16 
REMARK    5  A    between atoms: C17_22  and  N5_23 
REMARK    6  A    between atoms: N5_23  and  C18_24 
ROOT
HETATM    1  N1  UNL     1      20.848   0.469  53.150  1.00  0.00    -0.191 NA
HETATM    2  C1  UNL     1      21.370   1.406  52.719  1.00  0.00     0.103 C 
HETATM    3  C2  UNL     1      22.038   2.566  52.198  1.00  0.00     0.089 A 
HETATM    4  C3  UNL     1      21.346   3.764  52.332  1.00  0.00     0.142 A 
HETATM    5  N2  UNL     1      21.895   4.912  51.871  1.00  0.00    -0.259 NA
HETATM    6  C4  UNL     1      23.106   4.910  51.281  1.00  0.00     0.069 A 
HETATM    7  C5  UNL     1      23.667   6.087  50.812  1.00  0.00     0.035 A 
HETATM    8  C6  UNL     1      24.929   6.017  50.214  1.00  0.00     0.032 A 
HETATM    9  C7  UNL     1      25.608   4.815  50.087  1.00  0.00     0.036 A 
HETATM   10  C15 UNL     1      25.036   3.659  50.559  1.00  0.00     0.045 A 
HETATM   11  C16 UNL     1      23.791   3.721  51.149  1.00  0.00     0.023 A 
HETATM   12  C17 UNL     1      23.294   2.522  51.594  1.00  0.00     0.067 A 
ENDROOT
BRANCH  12  13
HETATM   13  N5  UNL     1      23.957   1.277  51.484  1.00  0.00    -0.354 N 
HETATM   14  H14 UNL     1      23.809   0.610  50.707  1.00  0.00     0.166 HD
BRANCH  13  15
HETATM   15  C18 UNL     1      24.884   0.935  52.519  1.00  0.00     0.033 A 
HETATM   16  C19 UNL     1      24.499  -0.049  53.423  1.00  0.00     0.029 A 
HETATM   17  C20 UNL     1      25.386  -0.400  54.446  1.00  0.00     0.004 A 
HETATM   18  C21 UNL     1      26.609   0.206  54.563  1.00  0.00     0.019 A 
HETATM   19  C22 UNL     1      26.995   1.189  53.658  1.00  0.00     0.013 A 
HETATM   20 BR1  UNL     1      28.716   2.035  53.833  1.00  0.00    -0.051 Br
HETATM   21  C23 UNL     1      26.119   1.538  52.646  1.00  0.00     0.048 A 
ENDBRANCH  13  15
ENDBRANCH  12  13
BRANCH   9  22
HETATM   22  N3  UNL     1      26.854   5.048  49.449  1.00  0.00    -0.316 N 
HETATM   23  C8  UNL     1      27.442   5.931  48.502  1.00  0.00     0.301 C 
HETATM   24  O1  UNL     1      26.834   6.881  47.922  1.00  0.00    -0.258 OA
HETATM   25  H4  UNL     1      27.438   4.274  49.886  1.00  0.00     0.170 HD
BRANCH  23  26
HETATM   26  C9  UNL     1      28.838   5.699  48.206  1.00  0.00    -0.004 C 
HETATM   27  C10 UNL     1      30.018   5.515  47.939  1.00  0.00    -0.066 C 
BRANCH  27  28
HETATM   28  C11 UNL     1      31.429   5.285  47.632  1.00  0.00     0.366 C 
BRANCH  28  29
HETATM   29  N4  UNL     1      32.257   6.068  48.494  1.00  0.00     0.099 N 
HETATM   30  C12 UNL     1      31.904   7.433  48.733  1.00  0.00     0.275 C 
HETATM   31  C13 UNL     1      33.384   7.772  48.579  1.00  0.00     0.060 C 
HETATM   32  C14 UNL     1      33.591   6.356  48.056  1.00  0.00     0.275 C 
ENDBRANCH  28  29
ENDBRANCH  27  28
ENDBRANCH  23  26
ENDBRANCH   9  22
TORSDOF 6
ENDMDL
MODEL 8
REMARK VINA RESULT:      -8.1      3.977      8.864
REMARK  6 active torsions:
REMARK  status: ('A' for Active; 'I' for Inactive)
REMARK    1  A    between atoms: C7_9  and  N3_10 
REMARK       I    between atoms: N3_10  and  C8_11 
REMARK    2  A    between atoms: C8_11  and  C9_13 
REMARK    3  A    between atoms: C10_14  and  C11_15 
REMARK    4  A    between atoms: C11_15  and  N4_16 
REMARK    5  A    between atoms: C17_22  and  N5_23 
REMARK    6  A    between atoms: N5_23  and  C18_24 
ROOT
HETATM    1  N1  UNL     1      28.380   2.516  54.060  1.00  0.00    -0.191 NA
HETATM    2  C1  UNL     1      27.387   1.944  53.902  1.00  0.00     0.103 C 
HETATM    3  C2  UNL     1      26.144   1.250  53.722  1.00  0.00     0.089 A 
HETATM    4  C3  UNL     1      26.165  -0.104  54.035  1.00  0.00     0.142 A 
HETATM    5  N2  UNL     1      25.039  -0.843  53.897  1.00  0.00    -0.259 NA
HETATM    6  C4  UNL     1      23.895  -0.284  53.458  1.00  0.00     0.069 A 
HETATM    7  C5  UNL     1      22.743  -1.042  53.320  1.00  0.00     0.035 A 
HETATM    8  C6  UNL     1      21.589  -0.399  52.863  1.00  0.00     0.032 A 
HETATM    9  C7  UNL     1      21.581   0.952  52.554  1.00  0.00     0.036 A 
HETATM   10  C15 UNL     1      22.733   1.687  52.698  1.00  0.00     0.045 A 
HETATM   11  C16 UNL     1      23.876   1.059  53.147  1.00  0.00     0.023 A 
HETATM   12  C17 UNL     1      24.979   1.866  53.264  1.00  0.00     0.067 A 
ENDROOT
BRANCH  12  13
HETATM   13  N5  UNL     1      25.011   3.248  52.961  1.00  0.00    -0.354 N 
HETATM   14  H14 UNL     1      24.945   3.998  53.672  1.00  0.00     0.166 HD
BRANCH  13  15
HETATM   15  C18 UNL     1      25.141   3.614  51.584  1.00  0.00     0.033 A 
HETATM   16  C19 UNL     1      26.211   3.075  50.877  1.00  0.00     0.029 A 
HETATM   17  C20 UNL     1      26.363   3.419  49.531  1.00  0.00     0.004 A 
HETATM   18  C21 UNL     1      25.483   4.268  48.912  1.00  0.00     0.019 A 
HETATM   19  C22 UNL     1      24.412   4.807  49.618  1.00  0.00     0.013 A 
HETATM   20 BR1  UNL     1      23.183   5.999  48.739  1.00  0.00    -0.051 Br
HETATM   21  C23 UNL     1      24.261   4.467  50.951  1.00  0.00     0.048 A 
ENDBRANCH  13  15
ENDBRANCH  12  13
BRANCH   9  22
HETATM   22  N3  UNL     1      20.283   1.325  52.123  1.00  0.00    -0.316 N 
HETATM   23  C8  UNL     1      19.474   2.488  51.990  1.00  0.00     0.301 C 
HETATM   24  O1  UNL     1      19.836   3.663  52.299  1.00  0.00    -0.258 OA
HETATM   25  H4  UNL     1      19.896   0.376  51.842  1.00  0.00     0.170 HD
BRANCH  23  26
HETATM   26  C9  UNL     1      18.146   2.274  51.457  1.00  0.00    -0.004 C 
HETATM   27  C10 UNL     1      17.031   2.094  50.988  1.00  0.00    -0.066 C 
BRANCH  27  28
HETATM   28  C11 UNL     1      15.691   1.879  50.442  1.00  0.00     0.366 C 
BRANCH  28  29
HETATM   29  N4  UNL     1      14.713   2.510  51.270  1.00  0.00     0.099 N 
HETATM   30  C12 UNL     1      14.810   3.917  51.501  1.00  0.00     0.275 C 
HETATM   31  C13 UNL     1      14.479   3.633  52.963  1.00  0.00     0.060 C 
HETATM   32  C14 UNL     1      14.688   2.155  52.660  1.00  0.00     0.275 C 
ENDBRANCH  28  29
ENDBRANCH  27  28
ENDBRANCH  23  26
ENDBRANCH   9  22
TORSDOF 6
ENDMDL
MODEL 9
REMARK VINA RESULT:      -7.9      3.279      7.846
REMARK  6 active torsions:
REMARK  status: ('A' for Active; 'I' for Inactive)
REMARK    1  A    between atoms: C7_9  and  N3_10 
REMARK       I    between atoms: N3_10  and  C8_11 
REMARK    2  A    between atoms: C8_11  and  C9_13 
REMARK    3  A    between atoms: C10_14  and  C11_15 
REMARK    4  A    between atoms: C11_15  and  N4_16 
REMARK    5  A    between atoms: C17_22  and  N5_23 
REMARK    6  A    between atoms: N5_23  and  C18_24 
ROOT
HETATM    1  N1  UNL     1      24.583  10.200  47.632  1.00  0.00    -0.191 NA
HETATM    2  C1  UNL     1      24.277   9.094  47.771  1.00  0.00     0.103 C 
HETATM    3  C2  UNL     1      23.920   7.713  47.938  1.00  0.00     0.089 A 
HETATM    4  C3  UNL     1      22.923   7.247  47.090  1.00  0.00     0.142 A 
HETATM    5  N2  UNL     1      22.519   5.957  47.173  1.00  0.00    -0.259 NA
HETATM    6  C4  UNL     1      23.070   5.117  48.070  1.00  0.00     0.069 A 
HETATM    7  C5  UNL     1      22.657   3.797  48.152  1.00  0.00     0.035 A 
HETATM    8  C6  UNL     1      23.273   2.977  49.102  1.00  0.00     0.032 A 
HETATM    9  C7  UNL     1      24.266   3.455  49.942  1.00  0.00     0.036 A 
HETATM   10  C15 UNL     1      24.663   4.767  49.846  1.00  0.00     0.045 A 
HETATM   11  C16 UNL     1      24.059   5.581  48.911  1.00  0.00     0.023 A 
HETATM   12  C17 UNL     1      24.516   6.874  48.880  1.00  0.00     0.067 A 
ENDROOT
BRANCH  12  13
HETATM   13  N5  UNL     1      25.528   7.399  49.719  1.00  0.00    -0.354 N 
HETATM   14  H14 UNL     1      25.365   7.723  50.689  1.00  0.00     0.166 HD
BRANCH  13  15
HETATM   15  C18 UNL     1      26.850   7.481  49.179  1.00  0.00     0.033 A 
HETATM   16  C19 UNL     1      27.302   6.402  48.428  1.00  0.00     0.029 A 
HETATM   17  C20 UNL     1      28.592   6.455  47.891  1.00  0.00     0.004 A 
HETATM   18  C21 UNL     1      29.401   7.542  48.095  1.00  0.00     0.019 A 
HETATM   19  C22 UNL     1      28.949   8.622  48.846  1.00  0.00     0.013 A 
HETATM   20 BR1  UNL     1      30.094  10.144  49.128  1.00  0.00    -0.051 Br
HETATM   21  C23 UNL     1      27.673   8.571  49.378  1.00  0.00     0.048 A 
ENDBRANCH  13  15
ENDBRANCH  12  13
BRANCH   9  22
HETATM   22  N3  UNL     1      24.704   2.407  50.792  1.00  0.00    -0.316 N 
HETATM   23  C8  UNL     1      24.372   1.807  52.038  1.00  0.00     0.301 C 
HETATM   24  O1  UNL     1      23.418   2.175  52.788  1.00  0.00    -0.258 OA
HETATM   25  H4  UNL     1      25.525   2.036  50.228  1.00  0.00     0.170 HD
BRANCH  23  26
HETATM   26  C9  UNL     1      25.205   0.697  52.446  1.00  0.00    -0.004 C 
HETATM   27  C10 UNL     1      25.903  -0.252  52.774  1.00  0.00    -0.066 C 
BRANCH  27  28
HETATM   28  C11 UNL     1      26.742  -1.379  53.180  1.00  0.00     0.366 C 
BRANCH  28  29
HETATM   29  N4  UNL     1      28.119  -1.085  52.930  1.00  0.00     0.099 N 
HETATM   30  C12 UNL     1      29.093  -2.104  53.167  1.00  0.00     0.275 C 
HETATM   31  C13 UNL     1      29.965  -1.026  53.806  1.00  0.00     0.060 C 
HETATM   32  C14 UNL     1      28.753  -0.106  53.764  1.00  0.00     0.275 C 
ENDBRANCH  28  29
ENDBRANCH  27  28
ENDBRANCH  23  26
ENDBRANCH   9  22
TORSDOF 6
ENDMDL
