MODEL 1
REMARK VINA RESULT:      -8.1      0.000      0.000
REMARK  7 active torsions:
REMARK  status: ('A' for Active; 'I' for Inactive)
REMARK    1  A    between atoms: O1_2  and  C2_3 
REMARK    2  A    between atoms: C6_9  and  N3_10 
REMARK    3  A    between atoms: N3_10  and  C7_11 
REMARK    4  A    between atoms: C15_20  and  C16_21 
REMARK    5  A    between atoms: C16_21  and  C17_22 
REMARK    6  A    between atoms: C17_22  and  O2_23 
REMARK    7  A    between atoms: O2_23  and  O3_24 
ROOT
HETATM    1  C2  UNL     1      19.251   0.040  51.974  1.00  0.00     0.071 C 
HETATM    2  C3  UNL     1      19.694  -0.329  53.196  1.00  0.00     0.067 C 
HETATM    3  C4  UNL     1      21.103  -0.455  53.653  1.00  0.00     0.073 A 
HETATM    4  N1  UNL     1      21.281  -1.333  54.678  1.00  0.00    -0.241 NA
HETATM    5  C5  UNL     1      22.519  -1.557  55.149  1.00  0.00     0.235 A 
HETATM    6  N2  UNL     1      23.526  -0.897  54.578  1.00  0.00    -0.224 NA
HETATM    7  C6  UNL     1      23.367  -0.032  53.572  1.00  0.00     0.140 A 
HETATM    8  C14 UNL     1      22.139   0.264  53.024  1.00  0.00     0.045 A 
HETATM    9  C15 UNL     1      22.191   1.273  51.951  1.00  0.00     0.163 C 
HETATM   10  O4  UNL     1      20.934   1.460  51.381  1.00  0.00    -0.374 OA
HETATM   11  C18 UNL     1      20.275   0.380  50.896  1.00  0.00     0.233 C 
ENDROOT
BRANCH   7  12
HETATM   12  N3  UNL     1      24.569   0.543  53.096  1.00  0.00    -0.340 N 
HETATM   13  H6  UNL     1      24.596   1.407  52.507  1.00  0.00     0.167 HD
BRANCH  12  14
HETATM   14  C7  UNL     1      25.908   0.108  53.271  1.00  0.00     0.036 A 
HETATM   15  C8  UNL     1      26.499  -0.962  52.608  1.00  0.00     0.030 A 
HETATM   16  C9  UNL     1      27.781  -1.380  52.756  1.00  0.00     0.012 A 
HETATM   17  C10 UNL     1      28.594  -0.713  53.629  1.00  0.00    -0.023 A 
HETATM   18  C11 UNL     1      29.991  -1.195  53.769  1.00  0.00     0.051 C 
HETATM   19  C12 UNL     1      28.093   0.359  54.328  1.00  0.00     0.124 A 
HETATM   20  F1  UNL     1      28.968   0.958  55.169  1.00  0.00    -0.205 F 
HETATM   21  C13 UNL     1      26.783   0.739  54.136  1.00  0.00     0.072 A 
ENDBRANCH  12  14
ENDBRANCH   7  12
BRANCH   9  22
HETATM   22  C16 UNL     1      22.450   2.678  52.557  1.00  0.00     0.066 C 
BRANCH  22  23
HETATM   23  C17 UNL     1      23.329   3.393  51.559  1.00  0.00     0.212 C 
BRANCH  23  24
HETATM   24  O2  UNL     1      24.627   3.347  52.025  1.00  0.00    -0.243 OA
BRANCH  24  25
HETATM   25  O3  UNL     1      24.735   3.457  53.328  1.00  0.00    -0.251 OA
HETATM   26  H18 UNL     1      24.693   2.570  53.791  1.00  0.00     0.253 HD
ENDBRANCH  24  25
ENDBRANCH  23  24
ENDBRANCH  22  23
ENDBRANCH   9  22
BRANCH   1  27
HETATM   27  O1  UNL     1      17.844   0.011  52.027  1.00  0.00    -0.358 OA
HETATM   28  C1  UNL     1      17.191  -0.971  52.803  1.00  0.00     0.209 C 
ENDBRANCH   1  27
TORSDOF 7
ENDMDL
MODEL 2
REMARK VINA RESULT:      -7.7      2.212      3.511
REMARK  7 active torsions:
REMARK  status: ('A' for Active; 'I' for Inactive)
REMARK    1  A    between atoms: O1_2  and  C2_3 
REMARK    2  A    between atoms: C6_9  and  N3_10 
REMARK    3  A    between atoms: N3_10  and  C7_11 
REMARK    4  A    between atoms: C15_20  and  C16_21 
REMARK    5  A    between atoms: C16_21  and  C17_22 
REMARK    6  A    between atoms: C17_22  and  O2_23 
REMARK    7  A    between atoms: O2_23  and  O3_24 
ROOT
HETATM    1  C2  UNL     1      19.539   0.989  50.967  1.00  0.00     0.071 C 
HETATM    2  C3  UNL     1      20.553   1.181  50.094  1.00  0.00     0.067 C 
HETATM    3  C4  UNL     1      21.945   1.602  50.396  1.00  0.00     0.073 A 
HETATM    4  N1  UNL     1      22.573   2.236  49.368  1.00  0.00    -0.241 NA
HETATM    5  C5  UNL     1      23.824   2.696  49.538  1.00  0.00     0.235 A 
HETATM    6  N2  UNL     1      24.395   2.504  50.727  1.00  0.00    -0.224 NA
HETATM    7  C6  UNL     1      23.793   1.885  51.745  1.00  0.00     0.140 A 
HETATM    8  C14 UNL     1      22.515   1.378  51.667  1.00  0.00     0.045 A 
HETATM    9  C15 UNL     1      22.062   0.701  52.894  1.00  0.00     0.163 C 
HETATM   10  O4  UNL     1      20.736   0.293  52.779  1.00  0.00    -0.374 OA
HETATM   11  C18 UNL     1      19.799   1.216  52.453  1.00  0.00     0.233 C 
ENDROOT
BRANCH   7  12
HETATM   12  N3  UNL     1      24.568   1.808  52.927  1.00  0.00    -0.340 N 
HETATM   13  H6  UNL     1      24.225   2.139  53.858  1.00  0.00     0.167 HD
BRANCH  12  14
HETATM   14  C7  UNL     1      25.888   1.324  53.110  1.00  0.00     0.036 A 
HETATM   15  C8  UNL     1      26.305   0.019  52.871  1.00  0.00     0.030 A 
HETATM   16  C9  UNL     1      27.567  -0.454  53.029  1.00  0.00     0.012 A 
HETATM   17  C10 UNL     1      28.541   0.400  53.462  1.00  0.00    -0.023 A 
HETATM   18  C11 UNL     1      29.911  -0.147  53.626  1.00  0.00     0.051 C 
HETATM   19  C12 UNL     1      28.218   1.710  53.724  1.00  0.00     0.124 A 
HETATM   20  F1  UNL     1      29.244   2.484  54.149  1.00  0.00    -0.205 F 
HETATM   21  C13 UNL     1      26.920   2.135  53.544  1.00  0.00     0.072 A 
ENDBRANCH  12  14
ENDBRANCH   7  12
BRANCH   9  22
HETATM   22  C16 UNL     1      22.779  -0.668  53.038  1.00  0.00     0.066 C 
BRANCH  22  23
HETATM   23  C17 UNL     1      22.873  -0.920  54.525  1.00  0.00     0.212 C 
BRANCH  23  24
HETATM   24  O2  UNL     1      22.063  -1.996  54.826  1.00  0.00    -0.243 OA
BRANCH  24  25
HETATM   25  O3  UNL     1      20.788  -1.700  54.918  1.00  0.00    -0.251 OA
HETATM   26  H18 UNL     1      20.359  -2.104  55.726  1.00  0.00     0.253 HD
ENDBRANCH  24  25
ENDBRANCH  23  24
ENDBRANCH  22  23
ENDBRANCH   9  22
BRANCH   1  27
HETATM   27  O1  UNL     1      18.420   0.596  50.208  1.00  0.00    -0.358 OA
HETATM   28  C1  UNL     1      17.406  -0.185  50.805  1.00  0.00     0.209 C 
ENDBRANCH   1  27
TORSDOF 7
ENDMDL
MODEL 3
REMARK VINA RESULT:      -7.6      3.894      7.240
REMARK  7 active torsions:
REMARK  status: ('A' for Active; 'I' for Inactive)
REMARK    1  A    between atoms: O1_2  and  C2_3 
REMARK    2  A    between atoms: C6_9  and  N3_10 
REMARK    3  A    between atoms: N3_10  and  C7_11 
REMARK    4  A    between atoms: C15_20  and  C16_21 
REMARK    5  A    between atoms: C16_21  and  C17_22 
REMARK    6  A    between atoms: C17_22  and  O2_23 
REMARK    7  A    between atoms: O2_23  and  O3_24 
ROOT
HETATM    1  C2  UNL     1      28.918   0.785  53.645  1.00  0.00     0.071 C 
HETATM    2  C3  UNL     1      27.933  -0.141  53.650  1.00  0.00     0.067 C 
HETATM    3  C4  UNL     1      26.468   0.091  53.560  1.00  0.00     0.073 A 
HETATM    4  N1  UNL     1      25.712  -0.891  54.124  1.00  0.00    -0.241 NA
HETATM    5  C5  UNL     1      24.374  -0.772  54.136  1.00  0.00     0.235 A 
HETATM    6  N2  UNL     1      23.847   0.321  53.585  1.00  0.00    -0.224 NA
HETATM    7  C6  UNL     1      24.574   1.293  53.028  1.00  0.00     0.140 A 
HETATM    8  C14 UNL     1      25.950   1.259  52.966  1.00  0.00     0.045 A 
HETATM    9  C15 UNL     1      26.546   2.415  52.274  1.00  0.00     0.163 C 
HETATM   10  O4  UNL     1      27.937   2.365  52.325  1.00  0.00    -0.374 OA
HETATM   11  C18 UNL     1      28.538   2.258  53.534  1.00  0.00     0.233 C 
ENDROOT
BRANCH   7  12
HETATM   12  N3  UNL     1      23.819   2.377  52.522  1.00  0.00    -0.340 N 
HETATM   13  H6  UNL     1      24.020   3.375  52.760  1.00  0.00     0.167 HD
BRANCH  12  14
HETATM   14  C7  UNL     1      22.691   2.366  51.662  1.00  0.00     0.036 A 
HETATM   15  C8  UNL     1      21.551   3.147  51.822  1.00  0.00     0.030 A 
HETATM   16  C9  UNL     1      20.471   3.157  51.001  1.00  0.00     0.012 A 
HETATM   17  C10 UNL     1      20.468   2.337  49.908  1.00  0.00    -0.023 A 
HETATM   18  C11 UNL     1      19.273   2.369  49.029  1.00  0.00     0.051 C 
HETATM   19  C12 UNL     1      21.555   1.529  49.671  1.00  0.00     0.124 A 
HETATM   20  F1  UNL     1      21.465   0.750  48.568  1.00  0.00    -0.205 F 
HETATM   21  C13 UNL     1      22.624   1.562  50.539  1.00  0.00     0.072 A 
ENDBRANCH  12  14
ENDBRANCH   7  12
BRANCH   9  22
HETATM   22  C16 UNL     1      26.304   2.299  50.745  1.00  0.00     0.066 C 
BRANCH  22  23
HETATM   23  C17 UNL     1      26.291   3.719  50.229  1.00  0.00     0.212 C 
BRANCH  23  24
HETATM   24  O2  UNL     1      27.259   3.826  49.252  1.00  0.00    -0.243 OA
BRANCH  24  25
HETATM   25  O3  UNL     1      28.036   4.876  49.376  1.00  0.00    -0.251 OA
HETATM   26  H18 UNL     1      28.183   5.132  50.333  1.00  0.00     0.253 HD
ENDBRANCH  24  25
ENDBRANCH  23  24
ENDBRANCH  22  23
ENDBRANCH   9  22
BRANCH   1  27
HETATM   27  O1  UNL     1      30.134   0.083  53.749  1.00  0.00    -0.358 OA
HETATM   28  C1  UNL     1      30.131  -1.329  53.760  1.00  0.00     0.209 C 
ENDBRANCH   1  27
TORSDOF 7
ENDMDL
MODEL 4
REMARK VINA RESULT:      -7.5      2.099      2.477
REMARK  7 active torsions:
REMARK  status: ('A' for Active; 'I' for Inactive)
REMARK    1  A    between atoms: O1_2  and  C2_3 
REMARK    2  A    between atoms: C6_9  and  N3_10 
REMARK    3  A    between atoms: N3_10  and  C7_11 
REMARK    4  A    between atoms: C15_20  and  C16_21 
REMARK    5  A    between atoms: C16_21  and  C17_22 
REMARK    6  A    between atoms: C17_22  and  O2_23 
REMARK    7  A    between atoms: O2_23  and  O3_24 
ROOT
HETATM    1  C2  UNL     1      19.828   2.862  51.686  1.00  0.00     0.071 C 
HETATM    2  C3  UNL     1      20.193   2.145  52.772  1.00  0.00     0.067 C 
HETATM    3  C4  UNL     1      21.442   1.363  52.967  1.00  0.00     0.073 A 
HETATM    4  N1  UNL     1      21.325   0.335  53.852  1.00  0.00    -0.241 NA
HETATM    5  C5  UNL     1      22.380  -0.464  54.082  1.00  0.00     0.235 A 
HETATM    6  N2  UNL     1      23.506  -0.205  53.418  1.00  0.00    -0.224 NA
HETATM    7  C6  UNL     1      23.637   0.799  52.548  1.00  0.00     0.140 A 
HETATM    8  C14 UNL     1      22.614   1.672  52.248  1.00  0.00     0.045 A 
HETATM    9  C15 UNL     1      22.989   2.727  51.291  1.00  0.00     0.163 C 
HETATM   10  O4  UNL     1      21.890   3.518  50.964  1.00  0.00    -0.374 OA
HETATM   11  C18 UNL     1      20.774   2.913  50.490  1.00  0.00     0.233 C 
ENDROOT
BRANCH   7  12
HETATM   12  N3  UNL     1      24.910   0.884  51.935  1.00  0.00    -0.340 N 
HETATM   13  H6  UNL     1      25.067   1.328  51.001  1.00  0.00     0.167 HD
BRANCH  12  14
HETATM   14  C7  UNL     1      26.165   0.410  52.394  1.00  0.00     0.036 A 
HETATM   15  C8  UNL     1      27.186   1.205  52.904  1.00  0.00     0.030 A 
HETATM   16  C9  UNL     1      28.386   0.764  53.359  1.00  0.00     0.012 A 
HETATM   17  C10 UNL     1      28.650  -0.577  53.327  1.00  0.00    -0.023 A 
HETATM   18  C11 UNL     1      29.970  -1.029  53.832  1.00  0.00     0.051 C 
HETATM   19  C12 UNL     1      27.695  -1.438  52.839  1.00  0.00     0.124 A 
HETATM   20  F1  UNL     1      28.042  -2.746  52.846  1.00  0.00    -0.205 F 
HETATM   21  C13 UNL     1      26.494  -0.933  52.392  1.00  0.00     0.072 A 
ENDBRANCH  12  14
ENDBRANCH   7  12
BRANCH   9  22
HETATM   22  C16 UNL     1      23.905   3.770  51.984  1.00  0.00     0.066 C 
BRANCH  22  23
HETATM   23  C17 UNL     1      23.038   4.989  52.200  1.00  0.00     0.212 C 
BRANCH  23  24
HETATM   24  O2  UNL     1      23.677   6.071  51.631  1.00  0.00    -0.243 OA
BRANCH  24  25
HETATM   25  O3  UNL     1      24.464   6.725  52.452  1.00  0.00    -0.251 OA
HETATM   26  H18 UNL     1      24.852   7.548  52.036  1.00  0.00     0.253 HD
ENDBRANCH  24  25
ENDBRANCH  23  24
ENDBRANCH  22  23
ENDBRANCH   9  22
BRANCH   1  27
HETATM   27  O1  UNL     1      18.568   3.420  51.975  1.00  0.00    -0.358 OA
HETATM   28  C1  UNL     1      17.852   4.098  50.964  1.00  0.00     0.209 C 
ENDBRANCH   1  27
TORSDOF 7
ENDMDL
MODEL 5
REMARK VINA RESULT:      -7.3      3.343      7.551
REMARK  7 active torsions:
REMARK  status: ('A' for Active; 'I' for Inactive)
REMARK    1  A    between atoms: O1_2  and  C2_3 
REMARK    2  A    between atoms: C6_9  and  N3_10 
REMARK    3  A    between atoms: N3_10  and  C7_11 
REMARK    4  A    between atoms: C15_20  and  C16_21 
REMARK    5  A    between atoms: C16_21  and  C17_22 
REMARK    6  A    between atoms: C17_22  and  O2_23 
REMARK    7  A    between atoms: O2_23  and  O3_24 
ROOT
HETATM    1  C2  UNL     1      26.650   1.079  53.721  1.00  0.00     0.071 C 
HETATM    2  C3  UNL     1      25.765   2.095  53.824  1.00  0.00     0.067 C 
HETATM    3  C4  UNL     1      24.500   2.278  53.066  1.00  0.00     0.073 A 
HETATM    4  N1  UNL     1      24.104   3.576  52.945  1.00  0.00    -0.241 NA
HETATM    5  C5  UNL     1      22.992   3.866  52.248  1.00  0.00     0.235 A 
HETATM    6  N2  UNL     1      22.324   2.851  51.702  1.00  0.00    -0.224 NA
HETATM    7  C6  UNL     1      22.699   1.574  51.811  1.00  0.00     0.140 A 
HETATM    8  C14 UNL     1      23.820   1.177  52.506  1.00  0.00     0.045 A 
HETATM    9  C15 UNL     1      24.025  -0.281  52.530  1.00  0.00     0.163 C 
HETATM   10  O4  UNL     1      25.219  -0.608  53.169  1.00  0.00    -0.374 OA
HETATM   11  C18 UNL     1      26.367  -0.042  52.726  1.00  0.00     0.233 C 
ENDROOT
BRANCH   7  12
HETATM   12  N3  UNL     1      21.862   0.655  51.135  1.00  0.00    -0.340 N 
HETATM   13  H6  UNL     1      22.221  -0.051  50.451  1.00  0.00     0.167 HD
BRANCH  12  14
HETATM   14  C7  UNL     1      20.454   0.500  51.202  1.00  0.00     0.036 A 
HETATM   15  C8  UNL     1      19.553   0.920  50.229  1.00  0.00     0.030 A 
HETATM   16  C9  UNL     1      18.205   0.767  50.274  1.00  0.00     0.012 A 
HETATM   17  C10 UNL     1      17.648   0.150  51.359  1.00  0.00    -0.023 A 
HETATM   18  C11 UNL     1      16.172  -0.002  51.379  1.00  0.00     0.051 C 
HETATM   19  C12 UNL     1      18.465  -0.297  52.370  1.00  0.00     0.124 A 
HETATM   20  F1  UNL     1      17.829  -0.895  53.404  1.00  0.00    -0.205 F 
HETATM   21  C13 UNL     1      19.827  -0.115  52.269  1.00  0.00     0.072 A 
ENDBRANCH  12  14
ENDBRANCH   7  12
BRANCH   9  22
HETATM   22  C16 UNL     1      22.992  -0.944  53.482  1.00  0.00     0.066 C 
BRANCH  22  23
HETATM   23  C17 UNL     1      23.657  -0.978  54.838  1.00  0.00     0.212 C 
BRANCH  23  24
HETATM   24  O2  UNL     1      22.838  -1.685  55.695  1.00  0.00    -0.243 OA
BRANCH  24  25
HETATM   25  O3  UNL     1      21.673  -2.007  55.184  1.00  0.00    -0.251 OA
HETATM   26  H18 UNL     1      21.573  -2.994  55.052  1.00  0.00     0.253 HD
ENDBRANCH  24  25
ENDBRANCH  23  24
ENDBRANCH  22  23
ENDBRANCH   9  22
BRANCH   1  27
HETATM   27  O1  UNL     1      27.684   1.349  54.639  1.00  0.00    -0.358 OA
HETATM   28  C1  UNL     1      28.665   0.368  54.899  1.00  0.00     0.209 C 
ENDBRANCH   1  27
TORSDOF 7
ENDMDL
MODEL 6
REMARK VINA RESULT:      -7.2      3.648      5.369
REMARK  7 active torsions:
REMARK  status: ('A' for Active; 'I' for Inactive)
REMARK    1  A    between atoms: O1_2  and  C2_3 
REMARK    2  A    between atoms: C6_9  and  N3_10 
REMARK    3  A    between atoms: N3_10  and  C7_11 
REMARK    4  A    between atoms: C15_20  and  C16_21 
REMARK    5  A    between atoms: C16_21  and  C17_22 
REMARK    6  A    between atoms: C17_22  and  O2_23 
REMARK    7  A    between atoms: O2_23  and  O3_24 
ROOT
HETATM    1  C2  UNL     1      20.500   0.305  52.439  1.00  0.00     0.071 C 
HETATM    2  C3  UNL     1      20.824   0.262  51.127  1.00  0.00     0.067 C 
HETATM    3  C4  UNL     1      21.786   1.130  50.400  1.00  0.00     0.073 A 
HETATM    4  N1  UNL     1      21.527   1.258  49.069  1.00  0.00    -0.241 NA
HETATM    5  C5  UNL     1      22.309   2.050  48.316  1.00  0.00     0.235 A 
HETATM    6  N2  UNL     1      23.315   2.679  48.922  1.00  0.00    -0.224 NA
HETATM    7  C6  UNL     1      23.582   2.565  50.225  1.00  0.00     0.140 A 
HETATM    8  C14 UNL     1      22.840   1.777  51.077  1.00  0.00     0.045 A 
HETATM    9  C15 UNL     1      23.333   1.767  52.465  1.00  0.00     0.163 C 
HETATM   10  O4  UNL     1      22.489   1.026  53.290  1.00  0.00    -0.374 OA
HETATM   11  C18 UNL     1      21.173   1.347  53.326  1.00  0.00     0.233 C 
ENDROOT
BRANCH   7  12
HETATM   12  N3  UNL     1      24.681   3.337  50.671  1.00  0.00    -0.340 N 
HETATM   13  H6  UNL     1      25.042   3.305  51.652  1.00  0.00     0.167 HD
BRANCH  12  14
HETATM   14  C7  UNL     1      25.472   4.274  49.959  1.00  0.00     0.036 A 
HETATM   15  C8  UNL     1      25.154   5.614  49.770  1.00  0.00     0.030 A 
HETATM   16  C9  UNL     1      25.907   6.524  49.102  1.00  0.00     0.012 A 
HETATM   17  C10 UNL     1      27.092   6.122  48.552  1.00  0.00    -0.023 A 
HETATM   18  C11 UNL     1      27.893   7.140  47.829  1.00  0.00     0.051 C 
HETATM   19  C12 UNL     1      27.486   4.813  48.691  1.00  0.00     0.124 A 
HETATM   20  F1  UNL     1      28.671   4.504  48.115  1.00  0.00    -0.205 F 
HETATM   21  C13 UNL     1      26.681   3.933  49.380  1.00  0.00     0.072 A 
ENDBRANCH  12  14
ENDBRANCH   7  12
BRANCH   9  22
HETATM   22  C16 UNL     1      24.639   0.932  52.557  1.00  0.00     0.066 C 
BRANCH  22  23
HETATM   23  C17 UNL     1      25.452   1.573  53.656  1.00  0.00     0.212 C 
BRANCH  23  24
HETATM   24  O2  UNL     1      26.514   2.231  53.071  1.00  0.00    -0.243 OA
BRANCH  24  25
HETATM   25  O3  UNL     1      27.391   2.705  53.924  1.00  0.00    -0.251 OA
HETATM   26  H18 UNL     1      27.701   2.014  54.578  1.00  0.00     0.253 HD
ENDBRANCH  24  25
ENDBRANCH  23  24
ENDBRANCH  22  23
ENDBRANCH   9  22
BRANCH   1  27
HETATM   27  O1  UNL     1      19.550  -0.712  52.655  1.00  0.00    -0.358 OA
HETATM   28  C1  UNL     1      18.204  -0.504  52.284  1.00  0.00     0.209 C 
ENDBRANCH   1  27
TORSDOF 7
ENDMDL
MODEL 7
REMARK VINA RESULT:      -7.1      2.951      4.605
REMARK  7 active torsions:
REMARK  status: ('A' for Active; 'I' for Inactive)
REMARK    1  A    between atoms: O1_2  and  C2_3 
REMARK    2  A    between atoms: C6_9  and  N3_10 
REMARK    3  A    between atoms: N3_10  and  C7_11 
REMARK    4  A    between atoms: C15_20  and  C16_21 
REMARK    5  A    between atoms: C16_21  and  C17_22 
REMARK    6  A    between atoms: C17_22  and  O2_23 
REMARK    7  A    between atoms: O2_23  and  O3_24 
ROOT
HETATM    1  C2  UNL     1      21.767   4.082  50.140  1.00  0.00     0.071 C 
HETATM    2  C3  UNL     1      22.894   3.869  49.425  1.00  0.00     0.067 C 
HETATM    3  C4  UNL     1      24.255   3.569  49.942  1.00  0.00     0.073 A 
HETATM    4  N1  UNL     1      25.264   3.939  49.106  1.00  0.00    -0.241 NA
HETATM    5  C5  UNL     1      26.539   3.751  49.484  1.00  0.00     0.235 A 
HETATM    6  N2  UNL     1      26.754   3.203  50.679  1.00  0.00    -0.224 NA
HETATM    7  C6  UNL     1      25.776   2.835  51.511  1.00  0.00     0.140 A 
HETATM    8  C14 UNL     1      24.440   2.985  51.212  1.00  0.00     0.045 A 
HETATM    9  C15 UNL     1      23.532   2.477  52.255  1.00  0.00     0.163 C 
HETATM   10  O4  UNL     1      22.203   2.740  51.932  1.00  0.00    -0.374 OA
HETATM   11  C18 UNL     1      21.842   4.018  51.662  1.00  0.00     0.233 C 
ENDROOT
BRANCH   7  12
HETATM   12  N3  UNL     1      26.222   2.295  52.741  1.00  0.00    -0.340 N 
HETATM   13  H6  UNL     1      25.865   2.617  53.670  1.00  0.00     0.167 HD
BRANCH  12  14
HETATM   14  C7  UNL     1      27.191   1.289  52.985  1.00  0.00     0.036 A 
HETATM   15  C8  UNL     1      28.474   1.512  53.474  1.00  0.00     0.030 A 
HETATM   16  C9  UNL     1      29.406   0.559  53.725  1.00  0.00     0.012 A 
HETATM   17  C10 UNL     1      29.092  -0.749  53.486  1.00  0.00    -0.023 A 
HETATM   18  C11 UNL     1      30.132  -1.768  53.770  1.00  0.00     0.051 C 
HETATM   19  C12 UNL     1      27.844  -1.062  53.001  1.00  0.00     0.124 A 
HETATM   20  F1  UNL     1      27.620  -2.381  52.794  1.00  0.00    -0.205 F 
HETATM   21  C13 UNL     1      26.937  -0.052  52.766  1.00  0.00     0.072 A 
ENDBRANCH  12  14
ENDBRANCH   7  12
BRANCH   9  22
HETATM   22  C16 UNL     1      23.534   0.925  52.248  1.00  0.00     0.066 C 
BRANCH  22  23
HETATM   23  C17 UNL     1      22.736   0.514  53.463  1.00  0.00     0.212 C 
BRANCH  23  24
HETATM   24  O2  UNL     1      23.401  -0.527  54.077  1.00  0.00    -0.243 OA
BRANCH  24  25
HETATM   25  O3  UNL     1      22.664  -1.217  54.914  1.00  0.00    -0.251 OA
HETATM   26  H18 UNL     1      23.034  -2.131  55.087  1.00  0.00     0.253 HD
ENDBRANCH  24  25
ENDBRANCH  23  24
ENDBRANCH  22  23
ENDBRANCH   9  22
BRANCH   1  27
HETATM   27  O1  UNL     1      20.738   4.325  49.210  1.00  0.00    -0.358 OA
HETATM   28  C1  UNL     1      19.587   3.506  49.206  1.00  0.00     0.209 C 
ENDBRANCH   1  27
TORSDOF 7
ENDMDL
MODEL 8
REMARK VINA RESULT:      -7.0      3.834      7.069
REMARK  7 active torsions:
REMARK  status: ('A' for Active; 'I' for Inactive)
REMARK    1  A    between atoms: O1_2  and  C2_3 
REMARK    2  A    between atoms: C6_9  and  N3_10 
REMARK    3  A    between atoms: N3_10  and  C7_11 
REMARK    4  A    between atoms: C15_20  and  C16_21 
REMARK    5  A    between atoms: C16_21  and  C17_22 
REMARK    6  A    between atoms: C17_22  and  O2_23 
REMARK    7  A    between atoms: O2_23  and  O3_24 
ROOT
HETATM    1  C2  UNL     1      27.380   0.424  54.006  1.00  0.00     0.071 C 
HETATM    2  C3  UNL     1      26.310  -0.309  53.626  1.00  0.00     0.067 C 
HETATM    3  C4  UNL     1      25.027   0.182  53.058  1.00  0.00     0.073 A 
HETATM    4  N1  UNL     1      23.967  -0.643  53.278  1.00  0.00    -0.241 NA
HETATM    5  C5  UNL     1      22.748  -0.285  52.842  1.00  0.00     0.235 A 
HETATM    6  N2  UNL     1      22.638   0.881  52.206  1.00  0.00    -0.224 NA
HETATM    7  C6  UNL     1      23.668   1.701  51.982  1.00  0.00     0.140 A 
HETATM    8  C14 UNL     1      24.954   1.420  52.388  1.00  0.00     0.045 A 
HETATM    9  C15 UNL     1      25.940   2.444  52.004  1.00  0.00     0.163 C 
HETATM   10  O4  UNL     1      27.199   2.145  52.521  1.00  0.00    -0.374 OA
HETATM   11  C18 UNL     1      27.320   1.941  53.854  1.00  0.00     0.233 C 
ENDROOT
BRANCH   7  12
HETATM   12  N3  UNL     1      23.330   2.900  51.310  1.00  0.00    -0.340 N 
HETATM   13  H6  UNL     1      23.307   3.833  51.782  1.00  0.00     0.167 HD
BRANCH  12  14
HETATM   14  C7  UNL     1      22.954   3.100  49.957  1.00  0.00     0.036 A 
HETATM   15  C8  UNL     1      22.662   2.089  49.047  1.00  0.00     0.030 A 
HETATM   16  C9  UNL     1      22.289   2.266  47.755  1.00  0.00     0.012 A 
HETATM   17  C10 UNL     1      22.180   3.539  47.269  1.00  0.00    -0.023 A 
HETATM   18  C11 UNL     1      21.770   3.700  45.852  1.00  0.00     0.051 C 
HETATM   19  C12 UNL     1      22.450   4.600  48.100  1.00  0.00     0.124 A 
HETATM   20  F1  UNL     1      22.317   5.823  47.535  1.00  0.00    -0.205 F 
HETATM   21  C13 UNL     1      22.824   4.360  49.404  1.00  0.00     0.072 A 
ENDBRANCH  12  14
ENDBRANCH   7  12
BRANCH   9  22
HETATM   22  C16 UNL     1      26.222   2.362  50.480  1.00  0.00     0.066 C 
BRANCH  22  23
HETATM   23  C17 UNL     1      26.404   3.791  50.025  1.00  0.00     0.212 C 
BRANCH  23  24
HETATM   24  O2  UNL     1      27.498   3.835  49.186  1.00  0.00    -0.243 OA
BRANCH  24  25
HETATM   25  O3  UNL     1      28.204   4.936  49.278  1.00  0.00    -0.251 OA
HETATM   26  H18 UNL     1      27.740   5.724  48.870  1.00  0.00     0.253 HD
ENDBRANCH  24  25
ENDBRANCH  23  24
ENDBRANCH  22  23
ENDBRANCH   9  22
BRANCH   1  27
HETATM   27  O1  UNL     1      28.346  -0.485  54.479  1.00  0.00    -0.358 OA
HETATM   28  C1  UNL     1      29.468  -0.795  53.680  1.00  0.00     0.209 C 
ENDBRANCH   1  27
TORSDOF 7
ENDMDL
MODEL 9
REMARK VINA RESULT:      -7.0      2.501      3.342
REMARK  7 active torsions:
REMARK  status: ('A' for Active; 'I' for Inactive)
REMARK    1  A    between atoms: O1_2  and  C2_3 
REMARK    2  A    between atoms: C6_9  and  N3_10 
REMARK    3  A    between atoms: N3_10  and  C7_11 
REMARK    4  A    between atoms: C15_20  and  C16_21 
REMARK    5  A    between atoms: C16_21  and  C17_22 
REMARK    6  A    between atoms: C17_22  and  O2_23 
REMARK    7  A    between atoms: O2_23  and  O3_24 
ROOT
HETATM    1  C2  UNL     1      21.400   2.186  48.700  1.00  0.00     0.071 C 
HETATM    2  C3  UNL     1      21.053   1.665  49.898  1.00  0.00     0.067 C 
HETATM    3  C4  UNL     1      21.946   1.336  51.039  1.00  0.00     0.073 A 
HETATM    4  N1  UNL     1      21.468   0.359  51.859  1.00  0.00    -0.241 NA
HETATM    5  C5  UNL     1      22.207  -0.049  52.904  1.00  0.00     0.235 A 
HETATM    6  N2  UNL     1      23.391   0.534  53.086  1.00  0.00    -0.224 NA
HETATM    7  C6  UNL     1      23.875   1.493  52.292  1.00  0.00     0.140 A 
HETATM    8  C14 UNL     1      23.191   1.978  51.199  1.00  0.00     0.045 A 
HETATM    9  C15 UNL     1      23.892   3.060  50.486  1.00  0.00     0.163 C 
HETATM   10  O4  UNL     1      23.191   3.441  49.345  1.00  0.00    -0.374 OA
HETATM   11  C18 UNL     1      22.871   2.492  48.433  1.00  0.00     0.233 C 
ENDROOT
BRANCH   7  12
HETATM   12  N3  UNL     1      25.162   1.960  52.650  1.00  0.00    -0.340 N 
HETATM   13  H6  UNL     1      25.390   2.974  52.767  1.00  0.00     0.167 HD
BRANCH  12  14
HETATM   14  C7  UNL     1      26.351   1.227  52.892  1.00  0.00     0.036 A 
HETATM   15  C8  UNL     1      27.541   1.764  53.372  1.00  0.00     0.030 A 
HETATM   16  C9  UNL     1      28.682   1.073  53.621  1.00  0.00     0.012 A 
HETATM   17  C10 UNL     1      28.700  -0.273  53.389  1.00  0.00    -0.023 A 
HETATM   18  C11 UNL     1      29.963  -1.001  53.671  1.00  0.00     0.051 C 
HETATM   19  C12 UNL     1      27.567  -0.889  52.914  1.00  0.00     0.124 A 
HETATM   20  F1  UNL     1      27.675  -2.222  52.713  1.00  0.00    -0.205 F 
HETATM   21  C13 UNL     1      26.436  -0.136  52.681  1.00  0.00     0.072 A 
ENDBRANCH  12  14
ENDBRANCH   7  12
BRANCH   9  22
HETATM   22  C16 UNL     1      23.831   4.368  51.319  1.00  0.00     0.066 C 
BRANCH  22  23
HETATM   23  C17 UNL     1      24.000   5.490  50.322  1.00  0.00     0.212 C 
BRANCH  23  24
HETATM   24  O2  UNL     1      24.668   6.521  50.950  1.00  0.00    -0.243 OA
BRANCH  24  25
HETATM   25  O3  UNL     1      24.327   6.698  52.204  1.00  0.00    -0.251 OA
HETATM   26  H18 UNL     1      25.069   6.474  52.838  1.00  0.00     0.253 HD
ENDBRANCH  24  25
ENDBRANCH  23  24
ENDBRANCH  22  23
ENDBRANCH   9  22
BRANCH   1  27
HETATM   27  O1  UNL     1      20.212   2.318  47.956  1.00  0.00    -0.358 OA
HETATM   28  C1  UNL     1      20.110   3.322  46.969  1.00  0.00     0.209 C 
ENDBRANCH   1  27
TORSDOF 7
ENDMDL
