MODEL 1
REMARK VINA RESULT:      -8.2      0.000      0.000
REMARK  3 active torsions:
REMARK  status: ('A' for Active; 'I' for Inactive)
REMARK    1  A    between atoms: S1_2  and  C2_3 
REMARK    2  A    between atoms: C2_3  and  C3_4 
REMARK    3  A    between atoms: C8_10  and  C9_11 
ROOT
HETATM    1  C9  UNL     1      24.601   0.045  53.045  1.00  0.00     0.036 C 
HETATM    2  C10 UNL     1      25.696   0.694  53.341  1.00  0.00     0.046 A 
HETATM    3  C11 UNL     1      25.942   2.072  53.709  1.00  0.00     0.257 A 
HETATM    4  O1  UNL     1      25.128   3.019  53.836  1.00  0.00    -0.267 OA
HETATM    5  N1  UNL     1      27.308   2.363  53.954  1.00  0.00    -0.322 N 
HETATM    6  C12 UNL     1      27.943   1.113  53.729  1.00  0.00     0.046 A 
HETATM    7  C13 UNL     1      29.291   0.749  53.812  1.00  0.00     0.030 A 
HETATM    8  C14 UNL     1      29.763  -0.518  53.563  1.00  0.00     0.002 A 
HETATM    9  C15 UNL     1      28.889  -1.506  53.211  1.00  0.00     0.001 A 
HETATM   10  C16 UNL     1      27.564  -1.153  53.128  1.00  0.00     0.015 A 
HETATM   11  C17 UNL     1      27.059   0.127  53.376  1.00  0.00     0.006 A 
HETATM   12  H14 UNL     1      27.793   3.238  54.229  1.00  0.00     0.169 HD
ENDROOT
BRANCH   1  13
HETATM   13  C8  UNL     1      23.226   0.425  52.964  1.00  0.00     0.002 C 
HETATM   14  S2  UNL     1      22.003  -0.062  54.167  1.00  0.00    -0.130 SA
HETATM   15  C7  UNL     1      20.434  -0.506  53.496  1.00  0.00     0.083 C 
HETATM   16  C6  UNL     1      20.105  -0.180  52.103  1.00  0.00     0.045 C 
HETATM   17  C4  UNL     1      20.471   1.125  51.569  1.00  0.00    -0.076 C 
HETATM   18  C3  UNL     1      21.641   1.781  51.437  1.00  0.00    -0.046 C 
HETATM   19  C5  UNL     1      19.354   1.978  51.015  1.00  0.00     0.044 C 
HETATM   20  C18 UNL     1      22.903   1.191  51.893  1.00  0.00     0.026 C 
BRANCH  18  21
HETATM   21  C2  UNL     1      21.755   3.141  50.828  1.00  0.00     0.112 C 
BRANCH  21  22
HETATM   22  S1  UNL     1      22.183   4.355  52.108  1.00  0.00    -0.169 SA
HETATM   23  C1  UNL     1      23.486   5.479  51.490  1.00  0.00     0.090 C 
ENDBRANCH  21  22
ENDBRANCH  18  21
ENDBRANCH   1  13
TORSDOF 3
ENDMDL
MODEL 2
REMARK VINA RESULT:      -8.2      2.758      5.468
REMARK  3 active torsions:
REMARK  status: ('A' for Active; 'I' for Inactive)
REMARK    1  A    between atoms: S1_2  and  C2_3 
REMARK    2  A    between atoms: C2_3  and  C3_4 
REMARK    3  A    between atoms: C8_10  and  C9_11 
ROOT
HETATM    1  C9  UNL     1      24.252   2.796  50.748  1.00  0.00     0.036 C 
HETATM    2  C10 UNL     1      24.339   4.090  50.912  1.00  0.00     0.046 A 
HETATM    3  C11 UNL     1      23.644   5.008  51.790  1.00  0.00     0.257 A 
HETATM    4  O1  UNL     1      22.753   4.774  52.641  1.00  0.00    -0.267 OA
HETATM    5  N1  UNL     1      24.053   6.358  51.642  1.00  0.00    -0.322 N 
HETATM    6  C12 UNL     1      25.044   6.280  50.629  1.00  0.00     0.046 A 
HETATM    7  C13 UNL     1      25.824   7.280  50.039  1.00  0.00     0.030 A 
HETATM    8  C14 UNL     1      26.757   7.049  49.055  1.00  0.00     0.002 A 
HETATM    9  C15 UNL     1      26.959   5.777  48.603  1.00  0.00     0.001 A 
HETATM   10  C16 UNL     1      26.196   4.791  49.179  1.00  0.00     0.015 A 
HETATM   11  C17 UNL     1      25.242   5.000  50.180  1.00  0.00     0.006 A 
HETATM   12  H14 UNL     1      23.752   7.230  52.116  1.00  0.00     0.169 HD
ENDROOT
BRANCH   1  13
HETATM   13  C8  UNL     1      23.452   1.780  51.357  1.00  0.00     0.002 C 
HETATM   14  S2  UNL     1      21.898   1.223  50.682  1.00  0.00    -0.130 SA
HETATM   15  C7  UNL     1      20.635   0.920  51.875  1.00  0.00     0.083 C 
HETATM   16  C6  UNL     1      20.970   0.834  53.302  1.00  0.00     0.045 C 
HETATM   17  C4  UNL     1      22.162   0.106  53.714  1.00  0.00    -0.076 C 
HETATM   18  C3  UNL     1      23.473   0.228  53.424  1.00  0.00    -0.046 C 
HETATM   19  C5  UNL     1      21.969  -1.037  54.683  1.00  0.00     0.044 C 
HETATM   20  C18 UNL     1      23.958   1.259  52.502  1.00  0.00     0.026 C 
BRANCH  18  21
HETATM   21  C2  UNL     1      24.527  -0.659  54.002  1.00  0.00     0.112 C 
BRANCH  21  22
HETATM   22  S1  UNL     1      26.150  -0.206  53.328  1.00  0.00    -0.169 SA
HETATM   23  C1  UNL     1      27.286   0.248  54.687  1.00  0.00     0.090 C 
ENDBRANCH  21  22
ENDBRANCH  18  21
ENDBRANCH   1  13
TORSDOF 3
ENDMDL
MODEL 3
REMARK VINA RESULT:      -7.7      3.591      5.886
REMARK  3 active torsions:
REMARK  status: ('A' for Active; 'I' for Inactive)
REMARK    1  A    between atoms: S1_2  and  C2_3 
REMARK    2  A    between atoms: C2_3  and  C3_4 
REMARK    3  A    between atoms: C8_10  and  C9_11 
ROOT
HETATM    1  C9  UNL     1      25.346   3.265  50.047  1.00  0.00     0.036 C 
HETATM    2  C10 UNL     1      25.412   4.563  49.911  1.00  0.00     0.046 A 
HETATM    3  C11 UNL     1      24.522   5.630  50.320  1.00  0.00     0.257 A 
HETATM    4  O1  UNL     1      23.426   5.564  50.927  1.00  0.00    -0.267 OA
HETATM    5  N1  UNL     1      24.985   6.925  49.969  1.00  0.00    -0.322 N 
HETATM    6  C12 UNL     1      26.214   6.654  49.313  1.00  0.00     0.046 A 
HETATM    7  C13 UNL     1      27.148   7.521  48.736  1.00  0.00     0.030 A 
HETATM    8  C14 UNL     1      28.310   7.107  48.128  1.00  0.00     0.002 A 
HETATM    9  C15 UNL     1      28.602   5.775  48.067  1.00  0.00     0.001 A 
HETATM   10  C16 UNL     1      27.688   4.919  48.633  1.00  0.00     0.015 A 
HETATM   11  C17 UNL     1      26.500   5.315  49.256  1.00  0.00     0.006 A 
HETATM   12  H14 UNL     1      24.584   7.869  50.119  1.00  0.00     0.169 HD
ENDROOT
BRANCH   1  13
HETATM   13  C8  UNL     1      24.388   2.386  50.640  1.00  0.00     0.002 C 
HETATM   14  S2  UNL     1      22.741   2.155  49.997  1.00  0.00    -0.130 SA
HETATM   15  C7  UNL     1      21.475   2.035  51.217  1.00  0.00     0.083 C 
HETATM   16  C6  UNL     1      21.824   1.823  52.628  1.00  0.00     0.045 C 
HETATM   17  C4  UNL     1      22.871   0.871  52.970  1.00  0.00    -0.076 C 
HETATM   18  C3  UNL     1      24.174   0.764  52.641  1.00  0.00    -0.046 C 
HETATM   19  C5  UNL     1      22.495  -0.260  53.898  1.00  0.00     0.044 C 
HETATM   20  C18 UNL     1      24.818   1.730  51.746  1.00  0.00     0.026 C 
BRANCH  18  21
HETATM   21  C2  UNL     1      25.061  -0.327  53.148  1.00  0.00     0.112 C 
BRANCH  21  22
HETATM   22  S1  UNL     1      26.660  -0.268  52.291  1.00  0.00    -0.169 SA
HETATM   23  C1  UNL     1      28.008  -0.677  53.457  1.00  0.00     0.090 C 
ENDBRANCH  21  22
ENDBRANCH  18  21
ENDBRANCH   1  13
TORSDOF 3
ENDMDL
MODEL 4
REMARK VINA RESULT:      -7.6      1.373      3.280
REMARK  3 active torsions:
REMARK  status: ('A' for Active; 'I' for Inactive)
REMARK    1  A    between atoms: S1_2  and  C2_3 
REMARK    2  A    between atoms: C2_3  and  C3_4 
REMARK    3  A    between atoms: C8_10  and  C9_11 
ROOT
HETATM    1  C9  UNL     1      24.022   0.934  51.811  1.00  0.00     0.036 C 
HETATM    2  C10 UNL     1      25.006   1.280  52.598  1.00  0.00     0.046 A 
HETATM    3  C11 UNL     1      25.246   2.466  53.392  1.00  0.00     0.257 A 
HETATM    4  O1  UNL     1      24.538   3.494  53.521  1.00  0.00    -0.267 OA
HETATM    5  N1  UNL     1      26.466   2.431  54.116  1.00  0.00    -0.322 N 
HETATM    6  C12 UNL     1      27.009   1.169  53.759  1.00  0.00     0.046 A 
HETATM    7  C13 UNL     1      28.201   0.549  54.148  1.00  0.00     0.030 A 
HETATM    8  C14 UNL     1      28.600  -0.693  53.714  1.00  0.00     0.002 A 
HETATM    9  C15 UNL     1      27.808  -1.391  52.849  1.00  0.00     0.001 A 
HETATM   10  C16 UNL     1      26.636  -0.787  52.464  1.00  0.00     0.015 A 
HETATM   11  C17 UNL     1      26.208   0.474  52.891  1.00  0.00     0.006 A 
HETATM   12  H14 UNL     1      26.910   3.112  54.759  1.00  0.00     0.169 HD
ENDROOT
BRANCH   1  13
HETATM   13  C8  UNL     1      22.805   1.574  51.420  1.00  0.00     0.002 C 
HETATM   14  S2  UNL     1      22.751   3.014  50.369  1.00  0.00    -0.130 SA
HETATM   15  C7  UNL     1      21.562   4.230  50.834  1.00  0.00     0.083 C 
HETATM   16  C6  UNL     1      20.511   3.905  51.807  1.00  0.00     0.045 C 
HETATM   17  C4  UNL     1      19.832   2.619  51.722  1.00  0.00    -0.076 C 
HETATM   18  C3  UNL     1      20.254   1.339  51.764  1.00  0.00    -0.046 C 
HETATM   19  C5  UNL     1      18.330   2.644  51.565  1.00  0.00     0.044 C 
HETATM   20  C18 UNL     1      21.675   1.009  51.910  1.00  0.00     0.026 C 
BRANCH  18  21
HETATM   21  C2  UNL     1      19.332   0.168  51.667  1.00  0.00     0.112 C 
BRANCH  21  22
HETATM   22  S1  UNL     1      19.277  -0.707  53.257  1.00  0.00    -0.169 SA
HETATM   23  C1  UNL     1      17.744  -1.696  53.373  1.00  0.00     0.090 C 
ENDBRANCH  21  22
ENDBRANCH  18  21
ENDBRANCH   1  13
TORSDOF 3
ENDMDL
MODEL 5
REMARK VINA RESULT:      -7.3      2.061      2.545
REMARK  3 active torsions:
REMARK  status: ('A' for Active; 'I' for Inactive)
REMARK    1  A    between atoms: S1_2  and  C2_3 
REMARK    2  A    between atoms: C2_3  and  C3_4 
REMARK    3  A    between atoms: C8_10  and  C9_11 
ROOT
HETATM    1  C9  UNL     1      24.853   2.022  52.177  1.00  0.00     0.036 C 
HETATM    2  C10 UNL     1      25.488   1.117  52.873  1.00  0.00     0.046 A 
HETATM    3  C11 UNL     1      25.109  -0.205  53.328  1.00  0.00     0.257 A 
HETATM    4  O1  UNL     1      24.032  -0.826  53.157  1.00  0.00    -0.267 OA
HETATM    5  N1  UNL     1      26.121  -0.865  54.070  1.00  0.00    -0.322 N 
HETATM    6  C12 UNL     1      27.177   0.083  54.080  1.00  0.00     0.046 A 
HETATM    7  C13 UNL     1      28.451   0.021  54.654  1.00  0.00     0.030 A 
HETATM    8  C14 UNL     1      29.379   1.033  54.579  1.00  0.00     0.002 A 
HETATM    9  C15 UNL     1      29.071   2.183  53.911  1.00  0.00     0.001 A 
HETATM   10  C16 UNL     1      27.821   2.249  53.345  1.00  0.00     0.015 A 
HETATM   11  C17 UNL     1      26.860   1.235  53.407  1.00  0.00     0.006 A 
HETATM   12  H14 UNL     1      26.154  -1.799  54.520  1.00  0.00     0.169 HD
ENDROOT
BRANCH   1  13
HETATM   13  C8  UNL     1      23.550   2.077  51.592  1.00  0.00     0.002 C 
HETATM   14  S2  UNL     1      22.051   1.782  52.512  1.00  0.00    -0.130 SA
HETATM   15  C7  UNL     1      20.827   0.843  51.659  1.00  0.00     0.083 C 
HETATM   16  C6  UNL     1      20.938   0.622  50.211  1.00  0.00     0.045 C 
HETATM   17  C4  UNL     1      21.344   1.724  49.349  1.00  0.00    -0.076 C 
HETATM   18  C3  UNL     1      22.433   2.517  49.303  1.00  0.00    -0.046 C 
HETATM   19  C5  UNL     1      20.397   2.111  48.238  1.00  0.00     0.044 C 
HETATM   20  C18 UNL     1      23.526   2.369  50.269  1.00  0.00     0.026 C 
BRANCH  18  21
HETATM   21  C2  UNL     1      22.620   3.595  48.286  1.00  0.00     0.112 C 
BRANCH  21  22
HETATM   22  S1  UNL     1      22.890   5.186  49.118  1.00  0.00    -0.169 SA
HETATM   23  C1  UNL     1      21.578   5.471  50.359  1.00  0.00     0.090 C 
ENDBRANCH  21  22
ENDBRANCH  18  21
ENDBRANCH   1  13
TORSDOF 3
ENDMDL
MODEL 6
REMARK VINA RESULT:      -7.3      3.206      5.998
REMARK  3 active torsions:
REMARK  status: ('A' for Active; 'I' for Inactive)
REMARK    1  A    between atoms: S1_2  and  C2_3 
REMARK    2  A    between atoms: C2_3  and  C3_4 
REMARK    3  A    between atoms: C8_10  and  C9_11 
ROOT
HETATM    1  C9  UNL     1      23.894   3.546  49.958  1.00  0.00     0.036 C 
HETATM    2  C10 UNL     1      25.073   4.017  49.651  1.00  0.00     0.046 A 
HETATM    3  C11 UNL     1      26.410   3.493  49.841  1.00  0.00     0.257 A 
HETATM    4  O1  UNL     1      26.774   2.415  50.370  1.00  0.00    -0.267 OA
HETATM    5  N1  UNL     1      27.432   4.344  49.348  1.00  0.00    -0.322 N 
HETATM    6  C12 UNL     1      26.702   5.446  48.828  1.00  0.00     0.046 A 
HETATM    7  C13 UNL     1      27.145   6.617  48.205  1.00  0.00     0.030 A 
HETATM    8  C14 UNL     1      26.308   7.609  47.747  1.00  0.00     0.002 A 
HETATM    9  C15 UNL     1      24.958   7.473  47.895  1.00  0.00     0.001 A 
HETATM   10  C16 UNL     1      24.519   6.324  48.507  1.00  0.00     0.015 A 
HETATM   11  C17 UNL     1      25.348   5.302  48.980  1.00  0.00     0.006 A 
HETATM   12  H14 UNL     1      28.464   4.252  49.335  1.00  0.00     0.169 HD
ENDROOT
BRANCH   1  13
HETATM   13  C8  UNL     1      23.450   2.345  50.595  1.00  0.00     0.002 C 
HETATM   14  S2  UNL     1      21.991   1.452  50.091  1.00  0.00    -0.130 SA
HETATM   15  C7  UNL     1      21.017   0.811  51.413  1.00  0.00     0.083 C 
HETATM   16  C6  UNL     1      21.561   0.758  52.776  1.00  0.00     0.045 C 
HETATM   17  C4  UNL     1      22.937   0.328  52.980  1.00  0.00    -0.076 C 
HETATM   18  C3  UNL     1      24.128   0.774  52.532  1.00  0.00    -0.046 C 
HETATM   19  C5  UNL     1      23.158  -0.861  53.886  1.00  0.00     0.044 C 
HETATM   20  C18 UNL     1      24.221   1.923  51.627  1.00  0.00     0.026 C 
BRANCH  18  21
HETATM   21  C2  UNL     1      25.432   0.150  52.908  1.00  0.00     0.112 C 
BRANCH  21  22
HETATM   22  S1  UNL     1      26.388   1.296  53.941  1.00  0.00    -0.169 SA
HETATM   23  C1  UNL     1      27.792   0.416  54.715  1.00  0.00     0.090 C 
ENDBRANCH  21  22
ENDBRANCH  18  21
ENDBRANCH   1  13
TORSDOF 3
ENDMDL
MODEL 7
REMARK VINA RESULT:      -7.2      3.990      5.485
REMARK  3 active torsions:
REMARK  status: ('A' for Active; 'I' for Inactive)
REMARK    1  A    between atoms: S1_2  and  C2_3 
REMARK    2  A    between atoms: C2_3  and  C3_4 
REMARK    3  A    between atoms: C8_10  and  C9_11 
ROOT
HETATM    1  C9  UNL     1      25.022   3.649  50.051  1.00  0.00     0.036 C 
HETATM    2  C10 UNL     1      25.234   4.841  49.559  1.00  0.00     0.046 A 
HETATM    3  C11 UNL     1      24.388   6.011  49.446  1.00  0.00     0.257 A 
HETATM    4  O1  UNL     1      23.197   6.170  49.807  1.00  0.00    -0.267 OA
HETATM    5  N1  UNL     1      25.027   7.121  48.835  1.00  0.00    -0.322 N 
HETATM    6  C12 UNL     1      26.326   6.622  48.555  1.00  0.00     0.046 A 
HETATM    7  C13 UNL     1      27.428   7.240  47.955  1.00  0.00     0.030 A 
HETATM    8  C14 UNL     1      28.640   6.622  47.748  1.00  0.00     0.002 A 
HETATM    9  C15 UNL     1      28.811   5.326  48.140  1.00  0.00     0.001 A 
HETATM   10  C16 UNL     1      27.732   4.714  48.730  1.00  0.00     0.015 A 
HETATM   11  C17 UNL     1      26.491   5.321  48.952  1.00  0.00     0.006 A 
HETATM   12  H14 UNL     1      24.695   8.079  48.617  1.00  0.00     0.169 HD
ENDROOT
BRANCH   1  13
HETATM   13  C8  UNL     1      23.892   3.026  50.665  1.00  0.00     0.002 C 
HETATM   14  S2  UNL     1      23.670   2.924  52.432  1.00  0.00    -0.130 SA
HETATM   15  C7  UNL     1      23.025   1.390  53.013  1.00  0.00     0.083 C 
HETATM   16  C6  UNL     1      22.432   0.431  52.072  1.00  0.00     0.045 C 
HETATM   17  C4  UNL     1      21.558   0.916  51.013  1.00  0.00    -0.076 C 
HETATM   18  C3  UNL     1      21.718   1.794  50.003  1.00  0.00    -0.046 C 
HETATM   19  C5  UNL     1      20.158   0.349  50.965  1.00  0.00     0.044 C 
HETATM   20  C18 UNL     1      22.985   2.505  49.803  1.00  0.00     0.026 C 
BRANCH  18  21
HETATM   21  C2  UNL     1      20.642   2.117  49.018  1.00  0.00     0.112 C 
BRANCH  21  22
HETATM   22  S1  UNL     1      20.155   3.858  49.187  1.00  0.00    -0.169 SA
HETATM   23  C1  UNL     1      19.944   4.278  50.954  1.00  0.00     0.090 C 
ENDBRANCH  21  22
ENDBRANCH  18  21
ENDBRANCH   1  13
TORSDOF 3
ENDMDL
MODEL 8
REMARK VINA RESULT:      -7.2      6.854      8.766
REMARK  3 active torsions:
REMARK  status: ('A' for Active; 'I' for Inactive)
REMARK    1  A    between atoms: S1_2  and  C2_3 
REMARK    2  A    between atoms: C2_3  and  C3_4 
REMARK    3  A    between atoms: C8_10  and  C9_11 
ROOT
HETATM    1  C9  UNL     1      29.966   5.388  47.699  1.00  0.00     0.036 C 
HETATM    2  C10 UNL     1      31.206   5.555  48.075  1.00  0.00     0.046 A 
HETATM    3  C11 UNL     1      31.849   6.563  48.892  1.00  0.00     0.257 A 
HETATM    4  O1  UNL     1      31.349   7.563  49.460  1.00  0.00    -0.267 OA
HETATM    5  N1  UNL     1      33.244   6.361  49.054  1.00  0.00    -0.322 N 
HETATM    6  C12 UNL     1      33.482   5.178  48.307  1.00  0.00     0.046 A 
HETATM    7  C13 UNL     1      34.665   4.467  48.081  1.00  0.00     0.030 A 
HETATM    8  C14 UNL     1      34.742   3.321  47.325  1.00  0.00     0.002 A 
HETATM    9  C15 UNL     1      33.613   2.819  46.745  1.00  0.00     0.001 A 
HETATM   10  C16 UNL     1      32.448   3.514  46.963  1.00  0.00     0.015 A 
HETATM   11  C17 UNL     1      32.344   4.680  47.728  1.00  0.00     0.006 A 
HETATM   12  H14 UNL     1      33.966   6.897  49.570  1.00  0.00     0.169 HD
ENDROOT
BRANCH   1  13
HETATM   13  C8  UNL     1      28.761   6.120  47.936  1.00  0.00     0.002 C 
HETATM   14  S2  UNL     1      28.467   7.757  47.292  1.00  0.00    -0.130 SA
HETATM   15  C7  UNL     1      27.660   8.861  48.405  1.00  0.00     0.083 C 
HETATM   16  C6  UNL     1      27.015   8.347  49.620  1.00  0.00     0.045 C 
HETATM   17  C4  UNL     1      26.228   7.124  49.550  1.00  0.00    -0.076 C 
HETATM   18  C3  UNL     1      26.506   5.859  49.174  1.00  0.00    -0.046 C 
HETATM   19  C5  UNL     1      24.785   7.209  49.986  1.00  0.00     0.044 C 
HETATM   20  C18 UNL     1      27.840   5.480  48.699  1.00  0.00     0.026 C 
BRANCH  18  21
HETATM   21  C2  UNL     1      25.502   4.754  49.206  1.00  0.00     0.112 C 
BRANCH  21  22
HETATM   22  S1  UNL     1      26.242   3.270  49.945  1.00  0.00    -0.169 SA
HETATM   23  C1  UNL     1      25.166   2.634  51.279  1.00  0.00     0.090 C 
ENDBRANCH  21  22
ENDBRANCH  18  21
ENDBRANCH   1  13
TORSDOF 3
ENDMDL
MODEL 9
REMARK VINA RESULT:      -7.1      2.916      5.911
REMARK  3 active torsions:
REMARK  status: ('A' for Active; 'I' for Inactive)
REMARK    1  A    between atoms: S1_2  and  C2_3 
REMARK    2  A    between atoms: C2_3  and  C3_4 
REMARK    3  A    between atoms: C8_10  and  C9_11 
ROOT
HETATM    1  C9  UNL     1      24.292   3.911  51.481  1.00  0.00     0.036 C 
HETATM    2  C10 UNL     1      25.226   4.245  50.631  1.00  0.00     0.046 A 
HETATM    3  C11 UNL     1      26.460   3.596  50.237  1.00  0.00     0.257 A 
HETATM    4  O1  UNL     1      26.950   2.512  50.634  1.00  0.00    -0.267 OA
HETATM    5  N1  UNL     1      27.196   4.315  49.260  1.00  0.00    -0.322 N 
HETATM    6  C12 UNL     1      26.388   5.460  49.035  1.00  0.00     0.046 A 
HETATM    7  C13 UNL     1      26.574   6.551  48.179  1.00  0.00     0.030 A 
HETATM    8  C14 UNL     1      25.692   7.601  48.067  1.00  0.00     0.002 A 
HETATM    9  C15 UNL     1      24.557   7.611  48.824  1.00  0.00     0.001 A 
HETATM   10  C16 UNL     1      24.369   6.542  49.667  1.00  0.00     0.015 A 
HETATM   11  C17 UNL     1      25.250   5.463  49.799  1.00  0.00     0.006 A 
HETATM   12  H14 UNL     1      28.097   4.117  48.787  1.00  0.00     0.169 HD
ENDROOT
BRANCH   1  13
HETATM   13  C8  UNL     1      24.109   2.793  52.352  1.00  0.00     0.002 C 
HETATM   14  S2  UNL     1      25.288   2.326  53.606  1.00  0.00    -0.130 SA
HETATM   15  C7  UNL     1      25.545   0.591  53.777  1.00  0.00     0.083 C 
HETATM   16  C6  UNL     1      24.616  -0.361  53.153  1.00  0.00     0.045 C 
HETATM   17  C4  UNL     1      23.184  -0.108  53.218  1.00  0.00    -0.076 C 
HETATM   18  C3  UNL     1      22.399   0.910  52.812  1.00  0.00    -0.046 C 
HETATM   19  C5  UNL     1      22.326  -1.178  53.853  1.00  0.00     0.044 C 
HETATM   20  C18 UNL     1      22.963   2.095  52.159  1.00  0.00     0.026 C 
BRANCH  18  21
HETATM   21  C2  UNL     1      20.915   0.923  52.988  1.00  0.00     0.112 C 
BRANCH  21  22
HETATM   22  S1  UNL     1      20.103   0.644  51.389  1.00  0.00    -0.169 SA
HETATM   23  C1  UNL     1      18.491  -0.181  51.644  1.00  0.00     0.090 C 
ENDBRANCH  21  22
ENDBRANCH  18  21
ENDBRANCH   1  13
TORSDOF 3
ENDMDL
