MODEL 1
REMARK VINA RESULT:      -8.2      0.000      0.000
REMARK  8 active torsions:
REMARK  status: ('A' for Active; 'I' for Inactive)
REMARK    1  A    between atoms: C2_2  and  N1_3 
REMARK    2  A    between atoms: N1_3  and  C3_4 
REMARK    3  A    between atoms: N1_3  and  C5_6 
REMARK    4  A    between atoms: C5_6  and  C6_7 
REMARK    5  A    between atoms: C6_7  and  C7_8 
REMARK    6  A    between atoms: C13_17  and  N4_18 
REMARK    7  A    between atoms: N4_18  and  C14_19 
REMARK    8  A    between atoms: C21_28  and  O2_29 
ROOT
HETATM    1  C7  UNL     1      24.714   0.362  53.042  1.00  0.00     0.186 C 
HETATM    2  O1  UNL     1      25.098   1.644  53.418  1.00  0.00    -0.351 OA
HETATM    3  C8  UNL     1      24.934   2.975  53.497  1.00  0.00     0.137 C 
HETATM    4  C9  UNL     1      23.945   3.708  53.025  1.00  0.00     0.041 C 
HETATM    5  C10 UNL     1      22.711   3.401  52.278  1.00  0.00     0.041 A 
HETATM    6  C11 UNL     1      22.002   2.193  52.199  1.00  0.00     0.074 A 
HETATM    7  N2  UNL     1      20.876   2.201  51.470  1.00  0.00    -0.241 NA
HETATM    8  C12 UNL     1      20.476   3.339  50.854  1.00  0.00     0.236 A 
HETATM    9  N3  UNL     1      21.181   4.476  50.950  1.00  0.00    -0.224 NA
HETATM   10  C13 UNL     1      22.313   4.561  51.655  1.00  0.00     0.142 A 
HETATM   11  C20 UNL     1      22.215   0.838  52.761  1.00  0.00     0.067 C 
HETATM   12  C21 UNL     1      23.283   0.101  53.100  1.00  0.00     0.077 C 
ENDROOT
BRANCH  10  13
HETATM   13  N4  UNL     1      23.083   5.751  51.692  1.00  0.00    -0.340 N 
HETATM   14  H19 UNL     1      23.262   6.529  52.353  1.00  0.00     0.167 HD
BRANCH  13  15
HETATM   15  C14 UNL     1      23.919   6.116  50.600  1.00  0.00     0.035 A 
HETATM   16  C15 UNL     1      23.559   7.243  49.845  1.00  0.00     0.032 A 
HETATM   17  C16 UNL     1      24.298   7.667  48.762  1.00  0.00     0.046 A 
HETATM   18  C17 UNL     1      25.442   6.991  48.365  1.00  0.00     0.138 A 
HETATM   19  F1  UNL     1      26.222   7.339  47.315  1.00  0.00    -0.204 F 
HETATM   20  C18 UNL     1      25.829   5.878  49.079  1.00  0.00     0.074 A 
HETATM   21 CL1  UNL     1      27.257   4.947  48.676  1.00  0.00    -0.081 Cl
HETATM   22  C19 UNL     1      25.051   5.521  50.135  1.00  0.00     0.056 A 
ENDBRANCH  13  15
ENDBRANCH  10  13
BRANCH  12  23
HETATM   23  O2  UNL     1      22.657  -1.069  53.560  1.00  0.00    -0.357 OA
HETATM   24  C22 UNL     1      21.897  -0.917  54.759  1.00  0.00     0.209 C 
ENDBRANCH  12  23
BRANCH   1  25
HETATM   25  C6  UNL     1      25.563  -0.556  53.867  1.00  0.00     0.069 C 
BRANCH  25  26
HETATM   26  C5  UNL     1      26.730  -0.015  54.574  1.00  0.00     0.275 C 
BRANCH  26  27
HETATM   27  N1  UNL     1      27.836   0.178  53.659  1.00  0.00     0.087 N 
BRANCH  27  28
HETATM   28  C2  UNL     1      28.808   1.065  54.246  1.00  0.00     0.268 C 
HETATM   29  C1  UNL     1      28.628   2.437  53.604  1.00  0.00     0.037 C 
ENDBRANCH  27  28
BRANCH  27  30
HETATM   30  C3  UNL     1      28.478  -1.040  53.290  1.00  0.00     0.268 C 
HETATM   31  C4  UNL     1      29.937  -1.141  53.665  1.00  0.00     0.037 C 
ENDBRANCH  27  30
ENDBRANCH  26  27
ENDBRANCH  25  26
ENDBRANCH   1  25
TORSDOF 8
ENDMDL
MODEL 2
REMARK VINA RESULT:      -7.8      4.788      8.523
REMARK  8 active torsions:
REMARK  status: ('A' for Active; 'I' for Inactive)
REMARK    1  A    between atoms: C2_2  and  N1_3 
REMARK    2  A    between atoms: N1_3  and  C3_4 
REMARK    3  A    between atoms: N1_3  and  C5_6 
REMARK    4  A    between atoms: C5_6  and  C6_7 
REMARK    5  A    between atoms: C6_7  and  C7_8 
REMARK    6  A    between atoms: C13_17  and  N4_18 
REMARK    7  A    between atoms: N4_18  and  C14_19 
REMARK    8  A    between atoms: C21_28  and  O2_29 
ROOT
HETATM    1  C7  UNL     1      18.965   0.768  52.142  1.00  0.00     0.186 C 
HETATM    2  O1  UNL     1      20.060   0.869  51.290  1.00  0.00    -0.351 OA
HETATM    3  C8  UNL     1      21.353   0.696  50.966  1.00  0.00     0.137 C 
HETATM    4  C9  UNL     1      22.317   0.169  51.694  1.00  0.00     0.041 C 
HETATM    5  C10 UNL     1      22.376  -0.403  53.053  1.00  0.00     0.041 A 
HETATM    6  C11 UNL     1      21.340  -0.942  53.832  1.00  0.00     0.074 A 
HETATM    7  N2  UNL     1      21.683  -1.435  55.031  1.00  0.00    -0.241 NA
HETATM    8  C12 UNL     1      22.975  -1.397  55.436  1.00  0.00     0.236 A 
HETATM    9  N3  UNL     1      23.938  -0.873  54.664  1.00  0.00    -0.224 NA
HETATM   10  C13 UNL     1      23.691  -0.360  53.456  1.00  0.00     0.142 A 
HETATM   11  C20 UNL     1      19.881  -1.101  53.632  1.00  0.00     0.067 C 
HETATM   12  C21 UNL     1      18.929  -0.432  52.965  1.00  0.00     0.077 C 
ENDROOT
BRANCH  10  13
HETATM   13  N4  UNL     1      24.708   0.252  52.680  1.00  0.00    -0.340 N 
HETATM   14  H19 UNL     1      24.773   0.910  51.882  1.00  0.00     0.167 HD
BRANCH  13  15
HETATM   15  C14 UNL     1      26.083   0.016  52.959  1.00  0.00     0.035 A 
HETATM   16  C15 UNL     1      26.597  -1.261  52.691  1.00  0.00     0.032 A 
HETATM   17  C16 UNL     1      27.913  -1.590  52.940  1.00  0.00     0.046 A 
HETATM   18  C17 UNL     1      28.795  -0.662  53.473  1.00  0.00     0.138 A 
HETATM   19  F1  UNL     1      30.098  -0.903  53.748  1.00  0.00    -0.204 F 
HETATM   20  C18 UNL     1      28.328   0.604  53.753  1.00  0.00     0.074 A 
HETATM   21 CL1  UNL     1      29.349   1.860  54.423  1.00  0.00    -0.081 Cl
HETATM   22  C19 UNL     1      27.020   0.854  53.480  1.00  0.00     0.056 A 
ENDBRANCH  13  15
ENDBRANCH  10  13
BRANCH  12  23
HETATM   23  O2  UNL     1      17.801  -1.216  53.264  1.00  0.00    -0.357 OA
HETATM   24  C22 UNL     1      18.086  -2.548  53.687  1.00  0.00     0.209 C 
ENDBRANCH  12  23
BRANCH   1  25
HETATM   25  C6  UNL     1      17.770   0.975  51.263  1.00  0.00     0.069 C 
BRANCH  25  26
HETATM   26  C5  UNL     1      17.133   2.297  51.215  1.00  0.00     0.275 C 
BRANCH  26  27
HETATM   27  N1  UNL     1      15.926   2.310  52.016  1.00  0.00     0.087 N 
BRANCH  27  28
HETATM   28  C2  UNL     1      15.252   3.574  51.862  1.00  0.00     0.268 C 
HETATM   29  C1  UNL     1      15.010   4.141  53.257  1.00  0.00     0.037 C 
ENDBRANCH  27  28
BRANCH  27  30
HETATM   30  C3  UNL     1      15.024   1.255  51.690  1.00  0.00     0.268 C 
HETATM   31  C4  UNL     1      14.009   1.582  50.622  1.00  0.00     0.037 C 
ENDBRANCH  27  30
ENDBRANCH  26  27
ENDBRANCH  25  26
ENDBRANCH   1  25
TORSDOF 8
ENDMDL
MODEL 3
REMARK VINA RESULT:      -7.7      2.110      2.612
REMARK  8 active torsions:
REMARK  status: ('A' for Active; 'I' for Inactive)
REMARK    1  A    between atoms: C2_2  and  N1_3 
REMARK    2  A    between atoms: N1_3  and  C3_4 
REMARK    3  A    between atoms: N1_3  and  C5_6 
REMARK    4  A    between atoms: C5_6  and  C6_7 
REMARK    5  A    between atoms: C6_7  and  C7_8 
REMARK    6  A    between atoms: C13_17  and  N4_18 
REMARK    7  A    between atoms: N4_18  and  C14_19 
REMARK    8  A    between atoms: C21_28  and  O2_29 
ROOT
HETATM    1  C7  UNL     1      25.139  -0.378  53.005  1.00  0.00     0.186 C 
HETATM    2  O1  UNL     1      25.598   0.798  52.423  1.00  0.00    -0.351 OA
HETATM    3  C8  UNL     1      25.456   1.908  51.678  1.00  0.00     0.137 C 
HETATM    4  C9  UNL     1      24.388   2.329  51.030  1.00  0.00     0.041 C 
HETATM    5  C10 UNL     1      23.020   1.804  50.864  1.00  0.00     0.041 A 
HETATM    6  C11 UNL     1      22.310   0.911  51.682  1.00  0.00     0.074 A 
HETATM    7  N2  UNL     1      21.050   0.629  51.315  1.00  0.00    -0.241 NA
HETATM    8  C12 UNL     1      20.526   1.196  50.202  1.00  0.00     0.236 A 
HETATM    9  N3  UNL     1      21.236   2.044  49.444  1.00  0.00    -0.224 NA
HETATM   10  C13 UNL     1      22.495   2.384  49.732  1.00  0.00     0.142 A 
HETATM   11  C20 UNL     1      22.640   0.167  52.920  1.00  0.00     0.067 C 
HETATM   12  C21 UNL     1      23.755  -0.348  53.456  1.00  0.00     0.077 C 
ENDROOT
BRANCH  10  13
HETATM   13  N4  UNL     1      23.256   3.229  48.885  1.00  0.00    -0.340 N 
HETATM   14  H19 UNL     1      23.851   3.134  48.042  1.00  0.00     0.167 HD
BRANCH  13  15
HETATM   15  C14 UNL     1      23.304   4.633  49.104  1.00  0.00     0.035 A 
HETATM   16  C15 UNL     1      24.492   5.308  48.782  1.00  0.00     0.032 A 
HETATM   17  C16 UNL     1      24.639   6.665  48.971  1.00  0.00     0.046 A 
HETATM   18  C17 UNL     1      23.609   7.433  49.494  1.00  0.00     0.138 A 
HETATM   19  F1  UNL     1      23.672   8.767  49.713  1.00  0.00    -0.204 F 
HETATM   20  C18 UNL     1      22.426   6.807  49.826  1.00  0.00     0.074 A 
HETATM   21 CL1  UNL     1      21.055   7.672  50.489  1.00  0.00    -0.081 Cl
HETATM   22  C19 UNL     1      22.355   5.467  49.610  1.00  0.00     0.056 A 
ENDBRANCH  13  15
ENDBRANCH  10  13
BRANCH  12  23
HETATM   23  O2  UNL     1      23.245  -0.894  54.647  1.00  0.00    -0.357 OA
HETATM   24  C22 UNL     1      21.909  -1.387  54.561  1.00  0.00     0.209 C 
ENDBRANCH  12  23
BRANCH   1  25
HETATM   25  C6  UNL     1      26.148  -0.708  54.061  1.00  0.00     0.069 C 
BRANCH  25  26
HETATM   26  C5  UNL     1      26.872   0.379  54.730  1.00  0.00     0.275 C 
BRANCH  26  27
HETATM   27  N1  UNL     1      28.302   0.157  54.662  1.00  0.00     0.087 N 
BRANCH  27  28
HETATM   28  C2  UNL     1      28.623  -0.605  53.482  1.00  0.00     0.268 C 
HETATM   29  C1  UNL     1      30.000  -1.225  53.692  1.00  0.00     0.037 C 
ENDBRANCH  27  28
BRANCH  27  30
HETATM   30  C3  UNL     1      29.058   1.365  54.659  1.00  0.00     0.268 C 
HETATM   31  C4  UNL     1      28.667   2.369  53.601  1.00  0.00     0.037 C 
ENDBRANCH  27  30
ENDBRANCH  26  27
ENDBRANCH  25  26
ENDBRANCH   1  25
TORSDOF 8
ENDMDL
MODEL 4
REMARK VINA RESULT:      -7.6      3.927      7.628
REMARK  8 active torsions:
REMARK  status: ('A' for Active; 'I' for Inactive)
REMARK    1  A    between atoms: C2_2  and  N1_3 
REMARK    2  A    between atoms: N1_3  and  C3_4 
REMARK    3  A    between atoms: N1_3  and  C5_6 
REMARK    4  A    between atoms: C5_6  and  C6_7 
REMARK    5  A    between atoms: C6_7  and  C7_8 
REMARK    6  A    between atoms: C13_17  and  N4_18 
REMARK    7  A    between atoms: N4_18  and  C14_19 
REMARK    8  A    between atoms: C21_28  and  O2_29 
ROOT
HETATM    1  C7  UNL     1      21.232   1.864  50.246  1.00  0.00     0.186 C 
HETATM    2  O1  UNL     1      21.641   1.936  51.573  1.00  0.00    -0.351 OA
HETATM    3  C8  UNL     1      22.533   2.186  52.547  1.00  0.00     0.137 C 
HETATM    4  C9  UNL     1      23.783   2.589  52.428  1.00  0.00     0.041 C 
HETATM    5  C10 UNL     1      24.650   2.909  51.278  1.00  0.00     0.041 A 
HETATM    6  C11 UNL     1      24.288   3.281  49.974  1.00  0.00     0.074 A 
HETATM    7  N2  UNL     1      25.291   3.556  49.127  1.00  0.00    -0.241 NA
HETATM    8  C12 UNL     1      26.576   3.467  49.545  1.00  0.00     0.236 A 
HETATM    9  N3  UNL     1      26.883   3.107  50.800  1.00  0.00    -0.224 NA
HETATM   10  C13 UNL     1      25.952   2.816  51.712  1.00  0.00     0.142 A 
HETATM   11  C20 UNL     1      22.992   3.449  49.276  1.00  0.00     0.067 C 
HETATM   12  C21 UNL     1      21.775   2.895  49.374  1.00  0.00     0.077 C 
ENDROOT
BRANCH  10  13
HETATM   13  N4  UNL     1      26.293   2.371  53.015  1.00  0.00    -0.340 N 
HETATM   14  H19 UNL     1      26.022   2.581  53.992  1.00  0.00     0.167 HD
BRANCH  13  15
HETATM   15  C14 UNL     1      27.245   1.331  53.207  1.00  0.00     0.035 A 
HETATM   16  C15 UNL     1      28.499   1.679  53.731  1.00  0.00     0.032 A 
HETATM   17  C16 UNL     1      29.492   0.745  53.941  1.00  0.00     0.046 A 
HETATM   18  C17 UNL     1      29.292  -0.593  53.639  1.00  0.00     0.138 A 
HETATM   19  F1  UNL     1      30.212  -1.571  53.812  1.00  0.00    -0.204 F 
HETATM   20  C18 UNL     1      28.074  -0.975  53.119  1.00  0.00     0.074 A 
HETATM   21 CL1  UNL     1      27.705  -2.637  52.703  1.00  0.00    -0.081 Cl
HETATM   22  C19 UNL     1      27.146   0.000  52.941  1.00  0.00     0.056 A 
ENDBRANCH  13  15
ENDBRANCH  10  13
BRANCH  12  23
HETATM   23  O2  UNL     1      21.089   3.593  48.365  1.00  0.00    -0.357 OA
HETATM   24  C22 UNL     1      21.488   3.276  47.032  1.00  0.00     0.209 C 
ENDBRANCH  12  23
BRANCH   1  25
HETATM   25  C6  UNL     1      19.737   1.798  50.303  1.00  0.00     0.069 C 
BRANCH  25  26
HETATM   26  C5  UNL     1      19.084   1.310  51.524  1.00  0.00     0.275 C 
BRANCH  26  27
HETATM   27  N1  UNL     1      18.663  -0.067  51.361  1.00  0.00     0.087 N 
BRANCH  27  28
HETATM   28  C2  UNL     1      18.492  -0.682  52.653  1.00  0.00     0.268 C 
HETATM   29  C1  UNL     1      19.783  -0.475  53.438  1.00  0.00     0.037 C 
ENDBRANCH  27  28
BRANCH  27  30
HETATM   30  C3  UNL     1      17.456  -0.201  50.615  1.00  0.00     0.268 C 
HETATM   31  C4  UNL     1      16.287   0.604  51.130  1.00  0.00     0.037 C 
ENDBRANCH  27  30
ENDBRANCH  26  27
ENDBRANCH  25  26
ENDBRANCH   1  25
TORSDOF 8
ENDMDL
MODEL 5
REMARK VINA RESULT:      -7.6      4.755      8.556
REMARK  8 active torsions:
REMARK  status: ('A' for Active; 'I' for Inactive)
REMARK    1  A    between atoms: C2_2  and  N1_3 
REMARK    2  A    between atoms: N1_3  and  C3_4 
REMARK    3  A    between atoms: N1_3  and  C5_6 
REMARK    4  A    between atoms: C5_6  and  C6_7 
REMARK    5  A    between atoms: C6_7  and  C7_8 
REMARK    6  A    between atoms: C13_17  and  N4_18 
REMARK    7  A    between atoms: N4_18  and  C14_19 
REMARK    8  A    between atoms: C21_28  and  O2_29 
ROOT
HETATM    1  C7  UNL     1      18.698   0.609  52.134  1.00  0.00     0.186 C 
HETATM    2  O1  UNL     1      19.763   0.705  51.245  1.00  0.00    -0.351 OA
HETATM    3  C8  UNL     1      21.048   0.549  50.885  1.00  0.00     0.137 C 
HETATM    4  C9  UNL     1      22.046   0.067  51.600  1.00  0.00     0.041 C 
HETATM    5  C10 UNL     1      22.161  -0.457  52.974  1.00  0.00     0.041 A 
HETATM    6  C11 UNL     1      21.162  -0.991  53.803  1.00  0.00     0.074 A 
HETATM    7  N2  UNL     1      21.553  -1.435  55.007  1.00  0.00    -0.241 NA
HETATM    8  C12 UNL     1      22.856  -1.356  55.369  1.00  0.00     0.236 A 
HETATM    9  N3  UNL     1      23.783  -0.838  54.549  1.00  0.00    -0.224 NA
HETATM   10  C13 UNL     1      23.486  -0.371  53.333  1.00  0.00     0.142 A 
HETATM   11  C20 UNL     1      19.701  -1.188  53.655  1.00  0.00     0.067 C 
HETATM   12  C21 UNL     1      18.714  -0.563  52.998  1.00  0.00     0.077 C 
ENDROOT
BRANCH  10  13
HETATM   13  N4  UNL     1      24.464   0.235  52.505  1.00  0.00    -0.340 N 
HETATM   14  H19 UNL     1      24.493   0.771  51.619  1.00  0.00     0.167 HD
BRANCH  13  15
HETATM   15  C14 UNL     1      25.842   0.209  52.860  1.00  0.00     0.035 A 
HETATM   16  C15 UNL     1      26.430   1.406  53.295  1.00  0.00     0.032 A 
HETATM   17  C16 UNL     1      27.760   1.484  53.649  1.00  0.00     0.046 A 
HETATM   18  C17 UNL     1      28.584   0.371  53.589  1.00  0.00     0.138 A 
HETATM   19  F1  UNL     1      29.897   0.361  53.916  1.00  0.00    -0.204 F 
HETATM   20  C18 UNL     1      28.045  -0.825  53.165  1.00  0.00     0.074 A 
HETATM   21 CL1  UNL     1      28.986  -2.298  53.052  1.00  0.00    -0.081 Cl
HETATM   22  C19 UNL     1      26.727  -0.824  52.834  1.00  0.00     0.056 A 
ENDBRANCH  13  15
ENDBRANCH  10  13
BRANCH  12  23
HETATM   23  O2  UNL     1      17.614  -1.360  53.358  1.00  0.00    -0.357 OA
HETATM   24  C22 UNL     1      17.928  -2.715  53.676  1.00  0.00     0.209 C 
ENDBRANCH  12  23
BRANCH   1  25
HETATM   25  C6  UNL     1      17.471   0.761  51.287  1.00  0.00     0.069 C 
BRANCH  25  26
HETATM   26  C5  UNL     1      17.304  -0.090  50.103  1.00  0.00     0.275 C 
BRANCH  26  27
HETATM   27  N1  UNL     1      15.900  -0.225  49.768  1.00  0.00     0.087 N 
BRANCH  27  28
HETATM   28  C2  UNL     1      15.285  -1.205  50.627  1.00  0.00     0.268 C 
HETATM   29  C1  UNL     1      14.724  -2.311  49.739  1.00  0.00     0.037 C 
ENDBRANCH  27  28
BRANCH  27  30
HETATM   30  C3  UNL     1      15.180   1.001  49.864  1.00  0.00     0.268 C 
HETATM   31  C4  UNL     1      14.467   1.431  48.604  1.00  0.00     0.037 C 
ENDBRANCH  27  30
ENDBRANCH  26  27
ENDBRANCH  25  26
ENDBRANCH   1  25
TORSDOF 8
ENDMDL
MODEL 6
REMARK VINA RESULT:      -7.4      4.557      6.897
REMARK  8 active torsions:
REMARK  status: ('A' for Active; 'I' for Inactive)
REMARK    1  A    between atoms: C2_2  and  N1_3 
REMARK    2  A    between atoms: N1_3  and  C3_4 
REMARK    3  A    between atoms: N1_3  and  C5_6 
REMARK    4  A    between atoms: C5_6  and  C6_7 
REMARK    5  A    between atoms: C6_7  and  C7_8 
REMARK    6  A    between atoms: C13_17  and  N4_18 
REMARK    7  A    between atoms: N4_18  and  C14_19 
REMARK    8  A    between atoms: C21_28  and  O2_29 
ROOT
HETATM    1  C7  UNL     1      24.890   0.399  53.570  1.00  0.00     0.186 C 
HETATM    2  O1  UNL     1      23.956  -0.625  53.677  1.00  0.00    -0.351 OA
HETATM    3  C8  UNL     1      22.748  -1.179  53.477  1.00  0.00     0.137 C 
HETATM    4  C9  UNL     1      21.696  -0.656  52.878  1.00  0.00     0.041 C 
HETATM    5  C10 UNL     1      21.428   0.643  52.232  1.00  0.00     0.041 A 
HETATM    6  C11 UNL     1      22.336   1.565  51.689  1.00  0.00     0.074 A 
HETATM    7  N2  UNL     1      21.812   2.662  51.121  1.00  0.00    -0.241 NA
HETATM    8  C12 UNL     1      20.470   2.836  51.092  1.00  0.00     0.236 A 
HETATM    9  N3  UNL     1      19.632   1.932  51.622  1.00  0.00    -0.224 NA
HETATM   10  C13 UNL     1      20.063   0.811  52.207  1.00  0.00     0.142 A 
HETATM   11  C20 UNL     1      23.814   1.617  51.593  1.00  0.00     0.067 C 
HETATM   12  C21 UNL     1      24.836   1.160  52.329  1.00  0.00     0.077 C 
ENDROOT
BRANCH  10  13
HETATM   13  N4  UNL     1      19.170  -0.103  52.823  1.00  0.00    -0.340 N 
HETATM   14  H19 UNL     1      19.108  -0.636  53.709  1.00  0.00     0.167 HD
BRANCH  13  15
HETATM   15  C14 UNL     1      17.957  -0.483  52.184  1.00  0.00     0.035 A 
HETATM   16  C15 UNL     1      17.060  -1.288  52.903  1.00  0.00     0.032 A 
HETATM   17  C16 UNL     1      15.866  -1.718  52.366  1.00  0.00     0.046 A 
HETATM   18  C17 UNL     1      15.495  -1.371  51.075  1.00  0.00     0.138 A 
HETATM   19  F1  UNL     1      14.344  -1.751  50.472  1.00  0.00    -0.204 F 
HETATM   20  C18 UNL     1      16.349  -0.583  50.334  1.00  0.00     0.074 A 
HETATM   21 CL1  UNL     1      15.986  -0.077  48.697  1.00  0.00    -0.081 Cl
HETATM   22  C19 UNL     1      17.507  -0.197  50.932  1.00  0.00     0.056 A 
ENDBRANCH  13  15
ENDBRANCH  10  13
BRANCH  12  23
HETATM   23  O2  UNL     1      25.928   1.615  51.572  1.00  0.00    -0.357 OA
HETATM   24  C22 UNL     1      25.715   2.847  50.884  1.00  0.00     0.209 C 
ENDBRANCH  12  23
BRANCH   1  25
HETATM   25  C6  UNL     1      26.209  -0.246  53.866  1.00  0.00     0.069 C 
BRANCH  25  26
HETATM   26  C5  UNL     1      27.088   0.347  54.881  1.00  0.00     0.275 C 
BRANCH  26  27
HETATM   27  N1  UNL     1      28.478   0.084  54.567  1.00  0.00     0.087 N 
BRANCH  27  28
HETATM   28  C2  UNL     1      28.568  -0.672  53.343  1.00  0.00     0.268 C 
HETATM   29  C1  UNL     1      29.802  -1.562  53.440  1.00  0.00     0.037 C 
ENDBRANCH  27  28
BRANCH  27  30
HETATM   30  C3  UNL     1      29.260   1.270  54.443  1.00  0.00     0.268 C 
HETATM   31  C4  UNL     1      28.631   2.376  53.631  1.00  0.00     0.037 C 
ENDBRANCH  27  30
ENDBRANCH  26  27
ENDBRANCH  25  26
ENDBRANCH   1  25
TORSDOF 8
ENDMDL
MODEL 7
REMARK VINA RESULT:      -7.2      4.358      7.622
REMARK  8 active torsions:
REMARK  status: ('A' for Active; 'I' for Inactive)
REMARK    1  A    between atoms: C2_2  and  N1_3 
REMARK    2  A    between atoms: N1_3  and  C3_4 
REMARK    3  A    between atoms: N1_3  and  C5_6 
REMARK    4  A    between atoms: C5_6  and  C6_7 
REMARK    5  A    between atoms: C6_7  and  C7_8 
REMARK    6  A    between atoms: C13_17  and  N4_18 
REMARK    7  A    between atoms: N4_18  and  C14_19 
REMARK    8  A    between atoms: C21_28  and  O2_29 
ROOT
HETATM    1  C7  UNL     1      25.467   3.209  50.327  1.00  0.00     0.186 C 
HETATM    2  O1  UNL     1      24.260   3.803  50.679  1.00  0.00    -0.351 OA
HETATM    3  C8  UNL     1      23.096   3.860  51.348  1.00  0.00     0.137 C 
HETATM    4  C9  UNL     1      22.592   2.981  52.191  1.00  0.00     0.041 C 
HETATM    5  C10 UNL     1      23.054   1.680  52.709  1.00  0.00     0.041 A 
HETATM    6  C11 UNL     1      24.360   1.171  52.785  1.00  0.00     0.074 A 
HETATM    7  N2  UNL     1      24.503  -0.040  53.344  1.00  0.00    -0.241 NA
HETATM    8  C12 UNL     1      23.418  -0.708  53.802  1.00  0.00     0.236 A 
HETATM    9  N3  UNL     1      22.184  -0.190  53.711  1.00  0.00    -0.224 NA
HETATM   10  C13 UNL     1      21.946   1.008  53.171  1.00  0.00     0.142 A 
HETATM   11  C20 UNL     1      25.688   1.682  52.369  1.00  0.00     0.067 C 
HETATM   12  C21 UNL     1      26.140   2.489  51.399  1.00  0.00     0.077 C 
ENDROOT
BRANCH  10  13
HETATM   13  N4  UNL     1      20.629   1.514  53.020  1.00  0.00    -0.340 N 
HETATM   14  H19 UNL     1      20.149   2.429  53.078  1.00  0.00     0.167 HD
BRANCH  13  15
HETATM   15  C14 UNL     1      19.551   0.654  52.672  1.00  0.00     0.035 A 
HETATM   16  C15 UNL     1      18.754   1.012  51.574  1.00  0.00     0.032 A 
HETATM   17  C16 UNL     1      17.680   0.250  51.167  1.00  0.00     0.046 A 
HETATM   18  C17 UNL     1      17.335  -0.917  51.833  1.00  0.00     0.138 A 
HETATM   19  F1  UNL     1      16.297  -1.719  51.500  1.00  0.00    -0.204 F 
HETATM   20  C18 UNL     1      18.092  -1.302  52.918  1.00  0.00     0.074 A 
HETATM   21 CL1  UNL     1      17.756  -2.758  53.834  1.00  0.00    -0.081 Cl
HETATM   22  C19 UNL     1      19.135  -0.502  53.259  1.00  0.00     0.056 A 
ENDBRANCH  13  15
ENDBRANCH  10  13
BRANCH  12  23
HETATM   23  O2  UNL     1      27.518   2.483  51.675  1.00  0.00    -0.357 OA
HETATM   24  C22 UNL     1      27.863   2.154  53.020  1.00  0.00     0.209 C 
ENDBRANCH  12  23
BRANCH   1  25
HETATM   25  C6  UNL     1      26.269   4.303  49.692  1.00  0.00     0.069 C 
BRANCH  25  26
HETATM   26  C5  UNL     1      25.590   5.523  49.239  1.00  0.00     0.275 C 
BRANCH  26  27
HETATM   27  N1  UNL     1      26.396   6.692  49.527  1.00  0.00     0.087 N 
BRANCH  27  28
HETATM   28  C2  UNL     1      27.056   7.138  48.327  1.00  0.00     0.268 C 
HETATM   29  C1  UNL     1      28.102   8.171  48.732  1.00  0.00     0.037 C 
ENDBRANCH  27  28
BRANCH  27  30
HETATM   30  C3  UNL     1      25.644   7.770  50.077  1.00  0.00     0.268 C 
HETATM   31  C4  UNL     1      24.374   7.374  50.790  1.00  0.00     0.037 C 
ENDBRANCH  27  30
ENDBRANCH  26  27
ENDBRANCH  25  26
ENDBRANCH   1  25
TORSDOF 8
ENDMDL
MODEL 8
REMARK VINA RESULT:      -7.1      3.446      5.326
REMARK  8 active torsions:
REMARK  status: ('A' for Active; 'I' for Inactive)
REMARK    1  A    between atoms: C2_2  and  N1_3 
REMARK    2  A    between atoms: N1_3  and  C3_4 
REMARK    3  A    between atoms: N1_3  and  C5_6 
REMARK    4  A    between atoms: C5_6  and  C6_7 
REMARK    5  A    between atoms: C6_7  and  C7_8 
REMARK    6  A    between atoms: C13_17  and  N4_18 
REMARK    7  A    between atoms: N4_18  and  C14_19 
REMARK    8  A    between atoms: C21_28  and  O2_29 
ROOT
HETATM    1  C7  UNL     1      23.902   2.804  50.638  1.00  0.00     0.186 C 
HETATM    2  O1  UNL     1      25.256   2.777  50.322  1.00  0.00    -0.351 OA
HETATM    3  C8  UNL     1      26.409   3.336  49.919  1.00  0.00     0.137 C 
HETATM    4  C9  UNL     1      26.634   4.586  49.564  1.00  0.00     0.041 C 
HETATM    5  C10 UNL     1      25.787   5.789  49.468  1.00  0.00     0.041 A 
HETATM    6  C11 UNL     1      24.577   6.074  50.120  1.00  0.00     0.074 A 
HETATM    7  N2  UNL     1      24.031   7.276  49.878  1.00  0.00    -0.241 NA
HETATM    8  C12 UNL     1      24.646   8.144  49.040  1.00  0.00     0.236 A 
HETATM    9  N3  UNL     1      25.801   7.835  48.433  1.00  0.00    -0.224 NA
HETATM   10  C13 UNL     1      26.418   6.664  48.614  1.00  0.00     0.142 A 
HETATM   11  C20 UNL     1      23.715   5.321  51.062  1.00  0.00     0.067 C 
HETATM   12  C21 UNL     1      23.439   4.027  51.278  1.00  0.00     0.077 C 
ENDROOT
BRANCH  10  13
HETATM   13  N4  UNL     1      27.604   6.326  47.914  1.00  0.00    -0.340 N 
HETATM   14  H19 UNL     1      27.872   5.759  47.090  1.00  0.00     0.167 HD
BRANCH  13  15
HETATM   15  C14 UNL     1      28.865   6.848  48.315  1.00  0.00     0.035 A 
HETATM   16  C15 UNL     1      29.944   5.957  48.408  1.00  0.00     0.032 A 
HETATM   17  C16 UNL     1      31.201   6.366  48.801  1.00  0.00     0.046 A 
HETATM   18  C17 UNL     1      31.456   7.690  49.126  1.00  0.00     0.138 A 
HETATM   19  F1  UNL     1      32.657   8.172  49.521  1.00  0.00    -0.204 F 
HETATM   20  C18 UNL     1      30.421   8.596  49.050  1.00  0.00     0.074 A 
HETATM   21 CL1  UNL     1      30.623  10.294  49.431  1.00  0.00    -0.081 Cl
HETATM   22  C19 UNL     1      29.211   8.120  48.654  1.00  0.00     0.056 A 
ENDBRANCH  13  15
ENDBRANCH  10  13
BRANCH  12  23
HETATM   23  O2  UNL     1      22.533   4.129  52.347  1.00  0.00    -0.357 OA
HETATM   24  C22 UNL     1      21.156   4.152  51.971  1.00  0.00     0.209 C 
ENDBRANCH  12  23
BRANCH   1  25
HETATM   25  C6  UNL     1      23.659   1.547  51.415  1.00  0.00     0.069 C 
BRANCH  25  26
HETATM   26  C5  UNL     1      24.361   1.340  52.687  1.00  0.00     0.275 C 
BRANCH  26  27
HETATM   27  N1  UNL     1      24.473  -0.075  52.983  1.00  0.00     0.087 N 
BRANCH  27  28
HETATM   28  C2  UNL     1      25.804  -0.373  53.446  1.00  0.00     0.268 C 
HETATM   29  C1  UNL     1      26.697  -0.527  52.219  1.00  0.00     0.037 C 
ENDBRANCH  27  28
BRANCH  27  30
HETATM   30  C3  UNL     1      23.529  -0.522  53.953  1.00  0.00     0.268 C 
HETATM   31  C4  UNL     1      22.277  -1.153  53.392  1.00  0.00     0.037 C 
ENDBRANCH  27  30
ENDBRANCH  26  27
ENDBRANCH  25  26
ENDBRANCH   1  25
TORSDOF 8
ENDMDL
MODEL 9
REMARK VINA RESULT:      -7.1      2.799      4.470
REMARK  8 active torsions:
REMARK  status: ('A' for Active; 'I' for Inactive)
REMARK    1  A    between atoms: C2_2  and  N1_3 
REMARK    2  A    between atoms: N1_3  and  C3_4 
REMARK    3  A    between atoms: N1_3  and  C5_6 
REMARK    4  A    between atoms: C5_6  and  C6_7 
REMARK    5  A    between atoms: C6_7  and  C7_8 
REMARK    6  A    between atoms: C13_17  and  N4_18 
REMARK    7  A    between atoms: N4_18  and  C14_19 
REMARK    8  A    between atoms: C21_28  and  O2_29 
ROOT
HETATM    1  C7  UNL     1      21.713   2.229  51.080  1.00  0.00     0.186 C 
HETATM    2  O1  UNL     1      22.762   2.737  51.839  1.00  0.00    -0.351 OA
HETATM    3  C8  UNL     1      23.549   3.726  52.294  1.00  0.00     0.137 C 
HETATM    4  C9  UNL     1      23.509   5.009  51.994  1.00  0.00     0.041 C 
HETATM    5  C10 UNL     1      22.655   5.827  51.111  1.00  0.00     0.041 A 
HETATM    6  C11 UNL     1      21.361   5.560  50.637  1.00  0.00     0.074 A 
HETATM    7  N2  UNL     1      20.794   6.504  49.871  1.00  0.00    -0.241 NA
HETATM    8  C12 UNL     1      21.468   7.645  49.591  1.00  0.00     0.236 A 
HETATM    9  N3  UNL     1      22.705   7.864  50.061  1.00  0.00    -0.224 NA
HETATM   10  C13 UNL     1      23.348   6.982  50.831  1.00  0.00     0.142 A 
HETATM   11  C20 UNL     1      20.426   4.421  50.790  1.00  0.00     0.067 C 
HETATM   12  C21 UNL     1      20.551   3.098  50.966  1.00  0.00     0.077 C 
ENDROOT
BRANCH  10  13
HETATM   13  N4  UNL     1      24.680   7.198  51.265  1.00  0.00    -0.340 N 
HETATM   14  H19 UNL     1      25.185   7.314  52.162  1.00  0.00     0.167 HD
BRANCH  13  15
HETATM   15  C14 UNL     1      25.750   7.281  50.330  1.00  0.00     0.035 A 
HETATM   16  C15 UNL     1      25.980   6.176  49.497  1.00  0.00     0.032 A 
HETATM   17  C16 UNL     1      26.999   6.156  48.569  1.00  0.00     0.046 A 
HETATM   18  C17 UNL     1      27.851   7.240  48.417  1.00  0.00     0.138 A 
HETATM   19  F1  UNL     1      28.875   7.302  47.533  1.00  0.00    -0.204 F 
HETATM   20  C18 UNL     1      27.660   8.345  49.219  1.00  0.00     0.074 A 
HETATM   21 CL1  UNL     1      28.669   9.773  49.115  1.00  0.00    -0.081 Cl
HETATM   22  C19 UNL     1      26.635   8.291  50.109  1.00  0.00     0.056 A 
ENDBRANCH  13  15
ENDBRANCH  10  13
BRANCH  12  23
HETATM   23  O2  UNL     1      19.201   2.713  51.023  1.00  0.00    -0.357 OA
HETATM   24  C22 UNL     1      18.315   3.692  51.564  1.00  0.00     0.209 C 
ENDBRANCH  12  23
BRANCH   1  25
HETATM   25  C6  UNL     1      21.441   0.872  51.653  1.00  0.00     0.069 C 
BRANCH  25  26
HETATM   26  C5  UNL     1      21.031   0.752  53.058  1.00  0.00     0.275 C 
BRANCH  26  27
HETATM   27  N1  UNL     1      22.123   0.247  53.866  1.00  0.00     0.087 N 
BRANCH  27  28
HETATM   28  C2  UNL     1      21.603  -0.565  54.937  1.00  0.00     0.268 C 
HETATM   29  C1  UNL     1      21.451  -1.986  54.408  1.00  0.00     0.037 C 
ENDBRANCH  27  28
BRANCH  27  30
HETATM   30  C3  UNL     1      23.068  -0.514  53.118  1.00  0.00     0.268 C 
HETATM   31  C4  UNL     1      24.513  -0.126  53.320  1.00  0.00     0.037 C 
ENDBRANCH  27  30
ENDBRANCH  26  27
ENDBRANCH  25  26
ENDBRANCH   1  25
TORSDOF 8
ENDMDL
