MODEL 1
REMARK VINA RESULT:      -7.7      0.000      0.000
REMARK  8 active torsions:
REMARK  status: ('A' for Active; 'I' for Inactive)
REMARK    1  A    between atoms: C2_2  and  C3_3 
REMARK    2  A    between atoms: C3_3  and  C4_4 
REMARK    3  A    between atoms: C3_3  and  C5_6 
REMARK    4  A    between atoms: C9_13  and  N4_14 
REMARK       I    between atoms: N4_14  and  C10_15 
REMARK    5  A    between atoms: C10_15  and  C11_17 
REMARK    6  A    between atoms: C12_18  and  C13_19 
REMARK    7  A    between atoms: C13_19  and  C14_20 
REMARK    8  A    between atoms: C14_20  and  N5_21 
ROOT
HETATM    1  C5  UNL     1      24.455   0.015  53.451  1.00  0.00     0.079 A 
HETATM    2  N1  UNL     1      23.606  -0.937  53.832  1.00  0.00    -0.241 NA
HETATM    3  C6  UNL     1      22.281  -0.874  53.757  1.00  0.00     0.234 A 
HETATM    4  N2  UNL     1      21.680   0.214  53.264  1.00  0.00    -0.240 NA
HETATM    5  C7  UNL     1      22.417   1.256  52.843  1.00  0.00     0.088 A 
HETATM    6  C8  UNL     1      21.830   2.401  52.357  1.00  0.00     0.151 A 
HETATM    7  N3  UNL     1      22.588   3.464  51.962  1.00  0.00    -0.241 NA
HETATM    8  C9  UNL     1      23.948   3.355  52.064  1.00  0.00     0.131 A 
HETATM    9  C19 UNL     1      24.469   2.193  52.553  1.00  0.00     0.066 A 
HETATM   10  C20 UNL     1      23.776   1.085  52.967  1.00  0.00     0.027 A 
ENDROOT
BRANCH   8  11
HETATM   11  N4  UNL     1      24.691   4.508  51.641  1.00  0.00    -0.301 N 
HETATM   12  C10 UNL     1      25.297   4.120  50.415  1.00  0.00     0.302 C 
HETATM   13  O1  UNL     1      25.067   2.947  50.007  1.00  0.00    -0.258 OA
HETATM   14  H9  UNL     1      24.908   5.485  51.940  1.00  0.00     0.171 HD
BRANCH  12  15
HETATM   15  C11 UNL     1      26.154   4.922  49.579  1.00  0.00    -0.005 C 
HETATM   16  C12 UNL     1      26.855   5.592  48.864  1.00  0.00    -0.095 C 
BRANCH  16  17
HETATM   17  C13 UNL     1      27.716   6.428  47.998  1.00  0.00     0.114 C 
BRANCH  17  18
HETATM   18  C14 UNL     1      29.122   5.870  47.936  1.00  0.00     0.129 C 
BRANCH  18  19
HETATM   19  N5  UNL     1      30.082   6.674  48.611  1.00  0.00    -0.408 N 
HETATM   20  C15 UNL     1      31.441   6.351  48.339  1.00  0.00     0.143 C 
HETATM   21  C16 UNL     1      32.420   7.165  49.150  1.00  0.00     0.187 C 
HETATM   22  O2  UNL     1      31.798   8.204  49.834  1.00  0.00    -0.388 OA
HETATM   23  C17 UNL     1      30.920   8.919  49.054  1.00  0.00     0.187 C 
HETATM   24  C18 UNL     1      29.759   8.061  48.672  1.00  0.00     0.143 C 
ENDBRANCH  18  19
ENDBRANCH  17  18
ENDBRANCH  16  17
ENDBRANCH  12  15
ENDBRANCH   8  11
BRANCH   1  25
HETATM   25  C3  UNL     1      25.894  -0.170  53.586  1.00  0.00    -0.004 C 
BRANCH  25  26
HETATM   26  C2  UNL     1      26.914   0.180  54.390  1.00  0.00    -0.019 C 
HETATM   27  C1  UNL     1      28.231   0.207  55.006  1.00  0.00     0.036 C 
ENDBRANCH  25  26
BRANCH  25  28
HETATM   28  C4  UNL     1      26.341  -1.127  52.476  1.00  0.00     0.263 C 
HETATM   29  F1  UNL     1      26.780  -0.321  51.441  1.00  0.00    -0.251 F 
ENDBRANCH  25  28
ENDBRANCH   1  25
TORSDOF 8
ENDMDL
MODEL 2
REMARK VINA RESULT:      -7.7      1.370      1.768
REMARK  8 active torsions:
REMARK  status: ('A' for Active; 'I' for Inactive)
REMARK    1  A    between atoms: C2_2  and  C3_3 
REMARK    2  A    between atoms: C3_3  and  C4_4 
REMARK    3  A    between atoms: C3_3  and  C5_6 
REMARK    4  A    between atoms: C9_13  and  N4_14 
REMARK       I    between atoms: N4_14  and  C10_15 
REMARK    5  A    between atoms: C10_15  and  C11_17 
REMARK    6  A    between atoms: C12_18  and  C13_19 
REMARK    7  A    between atoms: C13_19  and  C14_20 
REMARK    8  A    between atoms: C14_20  and  N5_21 
ROOT
HETATM    1  C5  UNL     1      23.406  -0.169  53.471  1.00  0.00     0.079 A 
HETATM    2  N1  UNL     1      22.364  -0.946  53.754  1.00  0.00    -0.241 NA
HETATM    3  C6  UNL     1      21.085  -0.629  53.575  1.00  0.00     0.234 A 
HETATM    4  N2  UNL     1      20.746   0.561  53.068  1.00  0.00    -0.240 NA
HETATM    5  C7  UNL     1      21.699   1.448  52.739  1.00  0.00     0.088 A 
HETATM    6  C8  UNL     1      21.384   2.691  52.242  1.00  0.00     0.151 A 
HETATM    7  N3  UNL     1      22.360   3.595  51.941  1.00  0.00    -0.241 NA
HETATM    8  C9  UNL     1      23.661   3.226  52.148  1.00  0.00     0.131 A 
HETATM    9  C19 UNL     1      23.909   1.978  52.642  1.00  0.00     0.066 A 
HETATM   10  C20 UNL     1      22.986   1.018  52.966  1.00  0.00     0.027 A 
ENDROOT
BRANCH   8  11
HETATM   11  N4  UNL     1      24.642   4.221  51.820  1.00  0.00    -0.301 N 
HETATM   12  C10 UNL     1      25.062   3.897  50.501  1.00  0.00     0.302 C 
HETATM   13  O1  UNL     1      24.525   2.891  49.959  1.00  0.00    -0.258 OA
HETATM   14  H9  UNL     1      25.113   5.059  52.229  1.00  0.00     0.171 HD
BRANCH  12  15
HETATM   15  C11 UNL     1      26.043   4.594  49.707  1.00  0.00    -0.005 C 
HETATM   16  C12 UNL     1      26.847   5.179  49.028  1.00  0.00    -0.095 C 
BRANCH  16  17
HETATM   17  C13 UNL     1      27.838   5.909  48.206  1.00  0.00     0.114 C 
BRANCH  17  18
HETATM   18  C14 UNL     1      27.804   7.392  48.511  1.00  0.00     0.129 C 
BRANCH  18  19
HETATM   19  N5  UNL     1      29.091   7.995  48.536  1.00  0.00    -0.408 N 
HETATM   20  C15 UNL     1      29.201   9.155  49.353  1.00  0.00     0.143 C 
HETATM   21  C16 UNL     1      30.557   9.815  49.272  1.00  0.00     0.187 C 
HETATM   22  O2  UNL     1      31.479   9.034  48.584  1.00  0.00    -0.388 OA
HETATM   23  C17 UNL     1      31.473   7.715  48.973  1.00  0.00     0.187 C 
HETATM   24  C18 UNL     1      30.179   7.076  48.590  1.00  0.00     0.143 C 
ENDBRANCH  18  19
ENDBRANCH  17  18
ENDBRANCH  16  17
ENDBRANCH  12  15
ENDBRANCH   8  11
BRANCH   1  25
HETATM   25  C3  UNL     1      24.768  -0.628  53.715  1.00  0.00    -0.004 C 
BRANCH  25  26
HETATM   26  C2  UNL     1      25.929  -0.822  53.066  1.00  0.00    -0.019 C 
HETATM   27  C1  UNL     1      27.176  -1.433  52.634  1.00  0.00     0.036 C 
ENDBRANCH  25  26
BRANCH  25  28
HETATM   28  C4  UNL     1      24.895  -0.909  55.216  1.00  0.00     0.263 C 
HETATM   29  F1  UNL     1      26.057  -0.276  55.619  1.00  0.00    -0.251 F 
ENDBRANCH  25  28
ENDBRANCH   1  25
TORSDOF 8
ENDMDL
MODEL 3
REMARK VINA RESULT:      -7.2      2.288      3.751
REMARK  8 active torsions:
REMARK  status: ('A' for Active; 'I' for Inactive)
REMARK    1  A    between atoms: C2_2  and  C3_3 
REMARK    2  A    between atoms: C3_3  and  C4_4 
REMARK    3  A    between atoms: C3_3  and  C5_6 
REMARK    4  A    between atoms: C9_13  and  N4_14 
REMARK       I    between atoms: N4_14  and  C10_15 
REMARK    5  A    between atoms: C10_15  and  C11_17 
REMARK    6  A    between atoms: C12_18  and  C13_19 
REMARK    7  A    between atoms: C13_19  and  C14_20 
REMARK    8  A    between atoms: C14_20  and  N5_21 
ROOT
HETATM    1  C5  UNL     1      23.239  -0.305  53.682  1.00  0.00     0.079 A 
HETATM    2  N1  UNL     1      23.098  -1.029  54.790  1.00  0.00    -0.241 NA
HETATM    3  C6  UNL     1      24.079  -1.407  55.603  1.00  0.00     0.234 A 
HETATM    4  N2  UNL     1      25.345  -1.063  55.346  1.00  0.00    -0.240 NA
HETATM    5  C7  UNL     1      25.634  -0.333  54.256  1.00  0.00     0.088 A 
HETATM    6  C8  UNL     1      26.928   0.014  53.946  1.00  0.00     0.151 A 
HETATM    7  N3  UNL     1      27.212   0.729  52.820  1.00  0.00    -0.241 NA
HETATM    8  C9  UNL     1      26.171   1.090  52.009  1.00  0.00     0.131 A 
HETATM    9  C19 UNL     1      24.910   0.716  52.372  1.00  0.00     0.066 A 
HETATM   10  C20 UNL     1      24.545   0.002  53.484  1.00  0.00     0.027 A 
ENDROOT
BRANCH   8  11
HETATM   11  N4  UNL     1      26.533   1.834  50.836  1.00  0.00    -0.301 N 
HETATM   12  C10 UNL     1      25.888   3.092  50.990  1.00  0.00     0.302 C 
HETATM   13  O1  UNL     1      25.199   3.259  52.035  1.00  0.00    -0.258 OA
HETATM   14  H9  UNL     1      27.091   1.739  49.959  1.00  0.00     0.171 HD
BRANCH  12  15
HETATM   15  C11 UNL     1      25.933   4.207  50.078  1.00  0.00    -0.005 C 
HETATM   16  C12 UNL     1      25.990   5.142  49.322  1.00  0.00    -0.095 C 
BRANCH  16  17
HETATM   17  C13 UNL     1      26.059   6.282  48.380  1.00  0.00     0.114 C 
BRANCH  17  18
HETATM   18  C14 UNL     1      26.350   7.573  49.115  1.00  0.00     0.129 C 
BRANCH  18  19
HETATM   19  N5  UNL     1      27.733   7.902  49.159  1.00  0.00    -0.408 N 
HETATM   20  C15 UNL     1      28.488   7.495  48.023  1.00  0.00     0.143 C 
HETATM   21  C16 UNL     1      29.965   7.778  48.157  1.00  0.00     0.187 C 
HETATM   22  O2  UNL     1      30.248   8.567  49.267  1.00  0.00    -0.388 OA
HETATM   23  C17 UNL     1      29.413   9.652  49.390  1.00  0.00     0.187 C 
HETATM   24  C18 UNL     1      28.022   9.195  49.682  1.00  0.00     0.143 C 
ENDBRANCH  18  19
ENDBRANCH  17  18
ENDBRANCH  16  17
ENDBRANCH  12  15
ENDBRANCH   8  11
BRANCH   1  25
HETATM   25  C3  UNL     1      22.083   0.045  52.867  1.00  0.00    -0.004 C 
BRANCH  25  26
HETATM   26  C2  UNL     1      21.710   0.128  51.577  1.00  0.00    -0.019 C 
HETATM   27  C1  UNL     1      21.274   0.683  50.307  1.00  0.00     0.036 C 
ENDBRANCH  25  26
BRANCH  25  28
HETATM   28  C4  UNL     1      20.924   0.350  53.821  1.00  0.00     0.263 C 
HETATM   29  F1  UNL     1      20.476   1.613  53.476  1.00  0.00    -0.251 F 
ENDBRANCH  25  28
ENDBRANCH   1  25
TORSDOF 8
ENDMDL
MODEL 4
REMARK VINA RESULT:      -7.2      2.349      3.015
REMARK  8 active torsions:
REMARK  status: ('A' for Active; 'I' for Inactive)
REMARK    1  A    between atoms: C2_2  and  C3_3 
REMARK    2  A    between atoms: C3_3  and  C4_4 
REMARK    3  A    between atoms: C3_3  and  C5_6 
REMARK    4  A    between atoms: C9_13  and  N4_14 
REMARK       I    between atoms: N4_14  and  C10_15 
REMARK    5  A    between atoms: C10_15  and  C11_17 
REMARK    6  A    between atoms: C12_18  and  C13_19 
REMARK    7  A    between atoms: C13_19  and  C14_20 
REMARK    8  A    between atoms: C14_20  and  N5_21 
ROOT
HETATM    1  C5  UNL     1      23.274  -0.077  53.432  1.00  0.00     0.079 A 
HETATM    2  N1  UNL     1      22.193  -0.803  53.706  1.00  0.00    -0.241 NA
HETATM    3  C6  UNL     1      20.933  -0.430  53.504  1.00  0.00     0.234 A 
HETATM    4  N2  UNL     1      20.656   0.769  52.981  1.00  0.00    -0.240 NA
HETATM    5  C7  UNL     1      21.654   1.609  52.659  1.00  0.00     0.088 A 
HETATM    6  C8  UNL     1      21.403   2.859  52.145  1.00  0.00     0.151 A 
HETATM    7  N3  UNL     1      22.424   3.714  51.851  1.00  0.00    -0.241 NA
HETATM    8  C9  UNL     1      23.703   3.289  52.082  1.00  0.00     0.131 A 
HETATM    9  C19 UNL     1      23.887   2.036  52.591  1.00  0.00     0.066 A 
HETATM   10  C20 UNL     1      22.916   1.122  52.910  1.00  0.00     0.027 A 
ENDROOT
BRANCH   8  11
HETATM   11  N4  UNL     1      24.734   4.235  51.760  1.00  0.00    -0.301 N 
HETATM   12  C10 UNL     1      25.135   3.900  50.437  1.00  0.00     0.302 C 
HETATM   13  O1  UNL     1      24.546   2.927  49.888  1.00  0.00    -0.258 OA
HETATM   14  H9  UNL     1      25.247   5.045  52.175  1.00  0.00     0.171 HD
BRANCH  12  15
HETATM   15  C11 UNL     1      26.149   4.552  49.647  1.00  0.00    -0.005 C 
HETATM   16  C12 UNL     1      26.980   5.108  48.977  1.00  0.00    -0.095 C 
BRANCH  16  17
HETATM   17  C13 UNL     1      28.010   5.797  48.167  1.00  0.00     0.114 C 
BRANCH  17  18
HETATM   18  C14 UNL     1      28.119   7.255  48.559  1.00  0.00     0.129 C 
BRANCH  18  19
HETATM   19  N5  UNL     1      27.001   8.036  48.156  1.00  0.00    -0.408 N 
HETATM   20  C15 UNL     1      26.713   9.156  48.985  1.00  0.00     0.143 C 
HETATM   21  C16 UNL     1      25.464   9.897  48.574  1.00  0.00     0.187 C 
HETATM   22  O2  UNL     1      24.975   9.459  47.347  1.00  0.00    -0.388 OA
HETATM   23  C17 UNL     1      25.950   9.340  46.385  1.00  0.00     0.187 C 
HETATM   24  C18 UNL     1      26.897   8.245  46.750  1.00  0.00     0.143 C 
ENDBRANCH  18  19
ENDBRANCH  17  18
ENDBRANCH  16  17
ENDBRANCH  12  15
ENDBRANCH   8  11
BRANCH   1  25
HETATM   25  C3  UNL     1      24.609  -0.596  53.702  1.00  0.00    -0.004 C 
BRANCH  25  26
HETATM   26  C2  UNL     1      25.785  -0.806  53.084  1.00  0.00    -0.019 C 
HETATM   27  C1  UNL     1      27.000  -0.563  52.324  1.00  0.00     0.036 C 
ENDBRANCH  25  26
BRANCH  25  28
HETATM   28  C4  UNL     1      24.674  -0.942  55.193  1.00  0.00     0.263 C 
HETATM   29  F1  UNL     1      25.857  -0.392  55.654  1.00  0.00    -0.251 F 
ENDBRANCH  25  28
ENDBRANCH   1  25
TORSDOF 8
ENDMDL
MODEL 5
REMARK VINA RESULT:      -7.0      3.505      7.923
REMARK  8 active torsions:
REMARK  status: ('A' for Active; 'I' for Inactive)
REMARK    1  A    between atoms: C2_2  and  C3_3 
REMARK    2  A    between atoms: C3_3  and  C4_4 
REMARK    3  A    between atoms: C3_3  and  C5_6 
REMARK    4  A    between atoms: C9_13  and  N4_14 
REMARK       I    between atoms: N4_14  and  C10_15 
REMARK    5  A    between atoms: C10_15  and  C11_17 
REMARK    6  A    between atoms: C12_18  and  C13_19 
REMARK    7  A    between atoms: C13_19  and  C14_20 
REMARK    8  A    between atoms: C14_20  and  N5_21 
ROOT
HETATM    1  C5  UNL     1      24.838   7.365  49.080  1.00  0.00     0.079 A 
HETATM    2  N1  UNL     1      24.285   8.144  48.154  1.00  0.00    -0.241 NA
HETATM    3  C6  UNL     1      22.988   8.407  48.031  1.00  0.00     0.234 A 
HETATM    4  N2  UNL     1      22.104   7.874  48.882  1.00  0.00    -0.240 NA
HETATM    5  C7  UNL     1      22.524   7.063  49.867  1.00  0.00     0.088 A 
HETATM    6  C8  UNL     1      21.639   6.476  50.741  1.00  0.00     0.151 A 
HETATM    7  N3  UNL     1      22.076   5.630  51.718  1.00  0.00    -0.241 NA
HETATM    8  C9  UNL     1      23.418   5.384  51.801  1.00  0.00     0.131 A 
HETATM    9  C19 UNL     1      24.245   5.999  50.905  1.00  0.00     0.066 A 
HETATM   10  C20 UNL     1      23.884   6.859  49.901  1.00  0.00     0.027 A 
ENDROOT
BRANCH   8  11
HETATM   11  N4  UNL     1      23.816   4.481  52.843  1.00  0.00    -0.301 N 
HETATM   12  C10 UNL     1      23.915   3.213  52.206  1.00  0.00     0.302 C 
HETATM   13  O1  UNL     1      23.653   3.169  50.972  1.00  0.00    -0.258 OA
HETATM   14  H9  UNL     1      24.041   4.470  53.863  1.00  0.00     0.171 HD
BRANCH  12  15
HETATM   15  C11 UNL     1      24.284   1.962  52.819  1.00  0.00    -0.005 C 
HETATM   16  C12 UNL     1      24.610   0.915  53.317  1.00  0.00    -0.095 C 
BRANCH  16  17
HETATM   17  C13 UNL     1      25.011  -0.364  53.946  1.00  0.00     0.114 C 
BRANCH  17  18
HETATM   18  C14 UNL     1      26.080  -1.056  53.127  1.00  0.00     0.129 C 
BRANCH  18  19
HETATM   19  N5  UNL     1      27.389  -0.557  53.367  1.00  0.00    -0.408 N 
HETATM   20  C15 UNL     1      27.548   0.171  54.580  1.00  0.00     0.143 C 
HETATM   21  C16 UNL     1      28.927   0.762  54.744  1.00  0.00     0.187 C 
HETATM   22  O2  UNL     1      29.816   0.295  53.781  1.00  0.00    -0.388 OA
HETATM   23  C17 UNL     1      29.760  -1.068  53.607  1.00  0.00     0.187 C 
HETATM   24  C18 UNL     1      28.441  -1.456  53.025  1.00  0.00     0.143 C 
ENDBRANCH  18  19
ENDBRANCH  17  18
ENDBRANCH  16  17
ENDBRANCH  12  15
ENDBRANCH   8  11
BRANCH   1  25
HETATM   25  C3  UNL     1      26.279   7.149  49.111  1.00  0.00    -0.004 C 
BRANCH  25  26
HETATM   26  C2  UNL     1      27.200   6.240  48.745  1.00  0.00    -0.019 C 
HETATM   27  C1  UNL     1      28.419   5.659  48.206  1.00  0.00     0.036 C 
ENDBRANCH  25  26
BRANCH  25  28
HETATM   28  C4  UNL     1      26.920   8.413  49.695  1.00  0.00     0.263 C 
HETATM   29  F1  UNL     1      27.636   8.984  48.658  1.00  0.00    -0.251 F 
ENDBRANCH  25  28
ENDBRANCH   1  25
TORSDOF 8
ENDMDL
MODEL 6
REMARK VINA RESULT:      -7.0      2.348      2.985
REMARK  8 active torsions:
REMARK  status: ('A' for Active; 'I' for Inactive)
REMARK    1  A    between atoms: C2_2  and  C3_3 
REMARK    2  A    between atoms: C3_3  and  C4_4 
REMARK    3  A    between atoms: C3_3  and  C5_6 
REMARK    4  A    between atoms: C9_13  and  N4_14 
REMARK       I    between atoms: N4_14  and  C10_15 
REMARK    5  A    between atoms: C10_15  and  C11_17 
REMARK    6  A    between atoms: C12_18  and  C13_19 
REMARK    7  A    between atoms: C13_19  and  C14_20 
REMARK    8  A    between atoms: C14_20  and  N5_21 
ROOT
HETATM    1  C5  UNL     1      24.388   1.277  52.274  1.00  0.00     0.079 A 
HETATM    2  N1  UNL     1      23.311   0.524  52.479  1.00  0.00    -0.241 NA
HETATM    3  C6  UNL     1      22.095   0.755  51.994  1.00  0.00     0.234 A 
HETATM    4  N2  UNL     1      21.864   1.822  51.222  1.00  0.00    -0.240 NA
HETATM    5  C7  UNL     1      22.864   2.672  50.935  1.00  0.00     0.088 A 
HETATM    6  C8  UNL     1      22.655   3.794  50.168  1.00  0.00     0.151 A 
HETATM    7  N3  UNL     1      23.671   4.666  49.909  1.00  0.00    -0.241 NA
HETATM    8  C9  UNL     1      24.903   4.390  50.435  1.00  0.00     0.131 A 
HETATM    9  C19 UNL     1      25.047   3.260  51.186  1.00  0.00     0.066 A 
HETATM   10  C20 UNL     1      24.078   2.339  51.489  1.00  0.00     0.027 A 
ENDROOT
BRANCH   8  11
HETATM   11  N4  UNL     1      25.929   5.348  50.135  1.00  0.00    -0.301 N 
HETATM   12  C10 UNL     1      26.819   4.665  49.260  1.00  0.00     0.302 C 
HETATM   13  O1  UNL     1      26.533   3.470  48.969  1.00  0.00    -0.258 OA
HETATM   14  H9  UNL     1      26.205   6.332  50.348  1.00  0.00     0.171 HD
BRANCH  12  15
HETATM   15  C11 UNL     1      28.023   5.189  48.666  1.00  0.00    -0.005 C 
HETATM   16  C12 UNL     1      29.035   5.633  48.189  1.00  0.00    -0.095 C 
BRANCH  16  17
HETATM   17  C13 UNL     1      30.284   6.163  47.596  1.00  0.00     0.114 C 
BRANCH  17  18
HETATM   18  C14 UNL     1      31.498   5.626  48.324  1.00  0.00     0.129 C 
BRANCH  18  19
HETATM   19  N5  UNL     1      32.416   4.950  47.474  1.00  0.00    -0.408 N 
HETATM   20  C15 UNL     1      32.527   3.549  47.694  1.00  0.00     0.143 C 
HETATM   21  C16 UNL     1      33.582   2.893  46.836  1.00  0.00     0.187 C 
HETATM   22  O2  UNL     1      34.075   3.754  45.861  1.00  0.00    -0.388 OA
HETATM   23  C17 UNL     1      33.088   4.435  45.189  1.00  0.00     0.187 C 
HETATM   24  C18 UNL     1      32.396   5.379  46.115  1.00  0.00     0.143 C 
ENDBRANCH  18  19
ENDBRANCH  17  18
ENDBRANCH  16  17
ENDBRANCH  12  15
ENDBRANCH   8  11
BRANCH   1  25
HETATM   25  C3  UNL     1      25.672   0.920  52.864  1.00  0.00    -0.004 C 
BRANCH  25  26
HETATM   26  C2  UNL     1      26.921   1.401  53.001  1.00  0.00    -0.019 C 
HETATM   27  C1  UNL     1      28.025   2.271  53.373  1.00  0.00     0.036 C 
ENDBRANCH  25  26
BRANCH  25  28
HETATM   28  C4  UNL     1      25.481  -0.401  53.616  1.00  0.00     0.263 C 
HETATM   29  F1  UNL     1      25.911  -1.391  52.750  1.00  0.00    -0.251 F 
ENDBRANCH  25  28
ENDBRANCH   1  25
TORSDOF 8
ENDMDL
MODEL 7
REMARK VINA RESULT:      -6.9      5.447     11.158
REMARK  8 active torsions:
REMARK  status: ('A' for Active; 'I' for Inactive)
REMARK    1  A    between atoms: C2_2  and  C3_3 
REMARK    2  A    between atoms: C3_3  and  C4_4 
REMARK    3  A    between atoms: C3_3  and  C5_6 
REMARK    4  A    between atoms: C9_13  and  N4_14 
REMARK       I    between atoms: N4_14  and  C10_15 
REMARK    5  A    between atoms: C10_15  and  C11_17 
REMARK    6  A    between atoms: C12_18  and  C13_19 
REMARK    7  A    between atoms: C13_19  and  C14_20 
REMARK    8  A    between atoms: C14_20  and  N5_21 
ROOT
HETATM    1  C5  UNL     1      24.641   0.921  52.688  1.00  0.00     0.079 A 
HETATM    2  N1  UNL     1      25.956   0.726  52.758  1.00  0.00    -0.241 NA
HETATM    3  C6  UNL     1      26.577  -0.108  53.586  1.00  0.00     0.234 A 
HETATM    4  N2  UNL     1      25.878  -0.849  54.453  1.00  0.00    -0.240 NA
HETATM    5  C7  UNL     1      24.539  -0.752  54.494  1.00  0.00     0.088 A 
HETATM    6  C8  UNL     1      23.793  -1.478  55.392  1.00  0.00     0.151 A 
HETATM    7  N3  UNL     1      22.436  -1.347  55.444  1.00  0.00    -0.241 NA
HETATM    8  C9  UNL     1      21.842  -0.472  54.577  1.00  0.00     0.131 A 
HETATM    9  C19 UNL     1      22.637   0.219  53.709  1.00  0.00     0.066 A 
HETATM   10  C20 UNL     1      24.001   0.141  53.595  1.00  0.00     0.027 A 
ENDROOT
BRANCH   8  11
HETATM   11  N4  UNL     1      20.415  -0.371  54.686  1.00  0.00    -0.301 N 
HETATM   12  C10 UNL     1      19.935  -0.557  53.359  1.00  0.00     0.302 C 
HETATM   13  O1  UNL     1      20.799  -0.751  52.459  1.00  0.00    -0.258 OA
HETATM   14  H9  UNL     1      19.666  -0.214  55.397  1.00  0.00     0.171 HD
BRANCH  12  15
HETATM   15  C11 UNL     1      18.561  -0.547  52.924  1.00  0.00    -0.005 C 
HETATM   16  C12 UNL     1      17.413  -0.560  52.564  1.00  0.00    -0.095 C 
BRANCH  16  17
HETATM   17  C13 UNL     1      15.997  -0.565  52.133  1.00  0.00     0.114 C 
BRANCH  17  18
HETATM   18  C14 UNL     1      15.423   0.836  52.145  1.00  0.00     0.129 C 
BRANCH  18  19
HETATM   19  N5  UNL     1      14.354   1.004  53.067  1.00  0.00    -0.408 N 
HETATM   20  C15 UNL     1      13.548   2.157  52.857  1.00  0.00     0.143 C 
HETATM   21  C16 UNL     1      12.489   2.345  53.916  1.00  0.00     0.187 C 
HETATM   22  O2  UNL     1      12.384   1.239  54.754  1.00  0.00    -0.388 OA
HETATM   23  C17 UNL     1      12.354   0.044  54.075  1.00  0.00     0.187 C 
HETATM   24  C18 UNL     1      13.666  -0.198  53.407  1.00  0.00     0.143 C 
ENDBRANCH  18  19
ENDBRANCH  17  18
ENDBRANCH  16  17
ENDBRANCH  12  15
ENDBRANCH   8  11
BRANCH   1  25
HETATM   25  C3  UNL     1      24.076   1.869  51.737  1.00  0.00    -0.004 C 
BRANCH  25  26
HETATM   26  C2  UNL     1      23.274   1.902  50.658  1.00  0.00    -0.019 C 
HETATM   27  C1  UNL     1      22.625   2.366  49.442  1.00  0.00     0.036 C 
ENDBRANCH  25  26
BRANCH  25  28
HETATM   28  C4  UNL     1      24.504   3.272  52.178  1.00  0.00     0.263 C 
HETATM   29  F1  UNL     1      24.245   3.333  53.536  1.00  0.00    -0.251 F 
ENDBRANCH  25  28
ENDBRANCH   1  25
TORSDOF 8
ENDMDL
MODEL 8
REMARK VINA RESULT:      -6.9      3.528      5.460
REMARK  8 active torsions:
REMARK  status: ('A' for Active; 'I' for Inactive)
REMARK    1  A    between atoms: C2_2  and  C3_3 
REMARK    2  A    between atoms: C3_3  and  C4_4 
REMARK    3  A    between atoms: C3_3  and  C5_6 
REMARK    4  A    between atoms: C9_13  and  N4_14 
REMARK       I    between atoms: N4_14  and  C10_15 
REMARK    5  A    between atoms: C10_15  and  C11_17 
REMARK    6  A    between atoms: C12_18  and  C13_19 
REMARK    7  A    between atoms: C13_19  and  C14_20 
REMARK    8  A    between atoms: C14_20  and  N5_21 
ROOT
HETATM    1  C5  UNL     1      22.950  -0.461  53.738  1.00  0.00     0.079 A 
HETATM    2  N1  UNL     1      22.717  -1.147  54.855  1.00  0.00    -0.241 NA
HETATM    3  C6  UNL     1      23.631  -1.519  55.744  1.00  0.00     0.234 A 
HETATM    4  N2  UNL     1      24.920  -1.210  55.563  1.00  0.00    -0.240 NA
HETATM    5  C7  UNL     1      25.299  -0.521  54.474  1.00  0.00     0.088 A 
HETATM    6  C8  UNL     1      26.619  -0.212  54.243  1.00  0.00     0.151 A 
HETATM    7  N3  UNL     1      26.995   0.462  53.117  1.00  0.00    -0.241 NA
HETATM    8  C9  UNL     1      26.019   0.819  52.228  1.00  0.00     0.131 A 
HETATM    9  C19 UNL     1      24.728   0.484  52.515  1.00  0.00     0.066 A 
HETATM   10  C20 UNL     1      24.273  -0.188  53.620  1.00  0.00     0.027 A 
ENDROOT
BRANCH   8  11
HETATM   11  N4  UNL     1      26.476   1.517  51.061  1.00  0.00    -0.301 N 
HETATM   12  C10 UNL     1      25.916   2.820  51.173  1.00  0.00     0.302 C 
HETATM   13  O1  UNL     1      25.202   3.051  52.188  1.00  0.00    -0.258 OA
HETATM   14  H9  UNL     1      27.059   1.371  50.206  1.00  0.00     0.171 HD
BRANCH  12  15
HETATM   15  C11 UNL     1      26.074   3.914  50.249  1.00  0.00    -0.005 C 
HETATM   16  C12 UNL     1      26.225   4.833  49.486  1.00  0.00    -0.095 C 
BRANCH  16  17
HETATM   17  C13 UNL     1      26.409   5.952  48.534  1.00  0.00     0.114 C 
BRANCH  17  18
HETATM   18  C14 UNL     1      25.125   6.738  48.370  1.00  0.00     0.129 C 
BRANCH  18  19
HETATM   19  N5  UNL     1      24.004   6.130  48.998  1.00  0.00    -0.408 N 
HETATM   20  C15 UNL     1      23.459   6.854  50.096  1.00  0.00     0.143 C 
HETATM   21  C16 UNL     1      22.335   6.126  50.791  1.00  0.00     0.187 C 
HETATM   22  O2  UNL     1      21.925   4.999  50.085  1.00  0.00    -0.388 OA
HETATM   23  C17 UNL     1      21.753   5.233  48.742  1.00  0.00     0.187 C 
HETATM   24  C18 UNL     1      23.068   5.537  48.103  1.00  0.00     0.143 C 
ENDBRANCH  18  19
ENDBRANCH  17  18
ENDBRANCH  16  17
ENDBRANCH  12  15
ENDBRANCH   8  11
BRANCH   1  25
HETATM   25  C3  UNL     1      21.860  -0.112  52.836  1.00  0.00    -0.004 C 
BRANCH  25  26
HETATM   26  C2  UNL     1      21.638   0.187  51.543  1.00  0.00    -0.019 C 
HETATM   27  C1  UNL     1      21.612   0.919  50.288  1.00  0.00     0.036 C 
ENDBRANCH  25  26
BRANCH  25  28
HETATM   28  C4  UNL     1      20.558  -0.179  53.641  1.00  0.00     0.263 C 
HETATM   29  F1  UNL     1      20.576   0.925  54.476  1.00  0.00    -0.251 F 
ENDBRANCH  25  28
ENDBRANCH   1  25
TORSDOF 8
ENDMDL
MODEL 9
REMARK VINA RESULT:      -6.9      2.136      2.523
REMARK  8 active torsions:
REMARK  status: ('A' for Active; 'I' for Inactive)
REMARK    1  A    between atoms: C2_2  and  C3_3 
REMARK    2  A    between atoms: C3_3  and  C4_4 
REMARK    3  A    between atoms: C3_3  and  C5_6 
REMARK    4  A    between atoms: C9_13  and  N4_14 
REMARK       I    between atoms: N4_14  and  C10_15 
REMARK    5  A    between atoms: C10_15  and  C11_17 
REMARK    6  A    between atoms: C12_18  and  C13_19 
REMARK    7  A    between atoms: C13_19  and  C14_20 
REMARK    8  A    between atoms: C14_20  and  N5_21 
ROOT
HETATM    1  C5  UNL     1      25.096   0.393  53.146  1.00  0.00     0.079 A 
HETATM    2  N1  UNL     1      24.400  -0.515  53.826  1.00  0.00    -0.241 NA
HETATM    3  C6  UNL     1      23.088  -0.709  53.747  1.00  0.00     0.234 A 
HETATM    4  N2  UNL     1      22.339   0.039  52.930  1.00  0.00    -0.240 NA
HETATM    5  C7  UNL     1      22.912   0.998  52.183  1.00  0.00     0.088 A 
HETATM    6  C8  UNL     1      22.168   1.804  51.354  1.00  0.00     0.151 A 
HETATM    7  N3  UNL     1      22.757   2.795  50.625  1.00  0.00    -0.241 NA
HETATM    8  C9  UNL     1      24.109   2.961  50.744  1.00  0.00     0.131 A 
HETATM    9  C19 UNL     1      24.792   2.129  51.582  1.00  0.00     0.066 A 
HETATM   10  C20 UNL     1      24.274   1.114  52.344  1.00  0.00     0.027 A 
ENDROOT
BRANCH   8  11
HETATM   11  N4  UNL     1      24.670   4.024  49.959  1.00  0.00    -0.301 N 
HETATM   12  C10 UNL     1      24.518   5.188  50.761  1.00  0.00     0.302 C 
HETATM   13  O1  UNL     1      23.969   5.040  51.889  1.00  0.00    -0.258 OA
HETATM   14  H9  UNL     1      25.128   4.193  49.036  1.00  0.00     0.171 HD
BRANCH  12  15
HETATM   15  C11 UNL     1      24.923   6.530  50.427  1.00  0.00    -0.005 C 
HETATM   16  C12 UNL     1      25.269   7.654  50.168  1.00  0.00    -0.095 C 
BRANCH  16  17
HETATM   17  C13 UNL     1      25.705   9.030  49.838  1.00  0.00     0.114 C 
BRANCH  17  18
HETATM   18  C14 UNL     1      27.167   9.229  50.176  1.00  0.00     0.129 C 
BRANCH  18  19
HETATM   19  N5  UNL     1      27.978   9.507  49.042  1.00  0.00    -0.408 N 
HETATM   20  C15 UNL     1      28.096  10.884  48.703  1.00  0.00     0.143 C 
HETATM   21  C16 UNL     1      28.885  11.123  47.439  1.00  0.00     0.187 C 
HETATM   22  O2  UNL     1      29.512   9.966  46.987  1.00  0.00    -0.388 OA
HETATM   23  C17 UNL     1      30.161   9.275  47.982  1.00  0.00     0.187 C 
HETATM   24  C18 UNL     1      29.170   8.729  48.956  1.00  0.00     0.143 C 
ENDBRANCH  18  19
ENDBRANCH  17  18
ENDBRANCH  16  17
ENDBRANCH  12  15
ENDBRANCH   8  11
BRANCH   1  25
HETATM   25  C3  UNL     1      26.539   0.513  53.321  1.00  0.00    -0.004 C 
BRANCH  25  26
HETATM   26  C2  UNL     1      27.459   1.382  53.774  1.00  0.00    -0.019 C 
HETATM   27  C1  UNL     1      28.474   2.422  53.793  1.00  0.00     0.036 C 
ENDBRANCH  25  26
BRANCH  25  28
HETATM   28  C4  UNL     1      27.164  -0.822  52.902  1.00  0.00     0.263 C 
HETATM   29  F1  UNL     1      26.793  -1.012  51.583  1.00  0.00    -0.251 F 
ENDBRANCH  25  28
ENDBRANCH   1  25
TORSDOF 8
ENDMDL
