MODEL 1
REMARK VINA RESULT:      -9.0      0.000      0.000
REMARK  4 active torsions:
REMARK  status: ('A' for Active; 'I' for Inactive)
REMARK    1  A    between atoms: C2_2  and  C3_4 
REMARK    2  A    between atoms: N2_6  and  C4_7 
REMARK    3  A    between atoms: C13_18  and  C14_19 
REMARK    4  A    between atoms: C14_19  and  C15_20 
ROOT
HETATM    1  C3  UNL     1      25.889   5.023  49.401  1.00  0.00     0.049 C 
HETATM    2  N1  UNL     1      24.757   4.738  49.934  1.00  0.00    -0.178 NA
HETATM    3  N2  UNL     1      24.793   3.534  50.611  1.00  0.00    -0.241 N 
HETATM    4  C13 UNL     1      26.191   3.240  50.861  1.00  0.00     0.122 C 
HETATM    5  C20 UNL     1      26.859   3.937  49.705  1.00  0.00     0.085 C 
ENDROOT
BRANCH   3   6
HETATM    6  C4  UNL     1      23.597   2.789  50.957  1.00  0.00     0.190 A 
HETATM    7  N3  UNL     1      23.040   2.073  51.485  1.00  0.00    -0.261 N 
HETATM    8  C5  UNL     1      22.345   1.230  52.092  1.00  0.00     0.066 A 
HETATM    9  S1  UNL     1      21.862   2.977  50.203  1.00  0.00    -0.019 SA
HETATM   10  C6  UNL     1      22.139   0.179  53.065  1.00  0.00    -0.008 A 
HETATM   11  C12 UNL     1      21.203   1.695  51.258  1.00  0.00     0.095 A 
HETATM   12  C7  UNL     1      20.924  -0.416  53.260  1.00  0.00     0.014 A 
HETATM   13  C11 UNL     1      23.233  -0.211  53.803  1.00  0.00     0.014 A 
HETATM   14  C8  UNL     1      20.813  -1.414  54.208  1.00  0.00     0.001 A 
HETATM   15  C9  UNL     1      21.910  -1.807  54.950  1.00  0.00     0.000 A 
HETATM   16  C10 UNL     1      23.148  -1.215  54.766  1.00  0.00     0.001 A 
ENDBRANCH   3   6
BRANCH   4  17
HETATM   17  C14 UNL     1      26.418   1.753  50.889  1.00  0.00     0.064 C 
BRANCH  17  18
HETATM   18  C15 UNL     1      26.474   1.167  52.232  1.00  0.00    -0.043 C 
HETATM   19  C16 UNL     1      26.352   1.791  53.375  1.00  0.00     0.088 C 
HETATM   20  N4  UNL     1      26.954   1.435  54.419  1.00  0.00    -0.259 NA
HETATM   21  C17 UNL     1      27.716   0.233  54.466  1.00  0.00     0.113 C 
HETATM   22  C18 UNL     1      27.589  -0.602  53.442  1.00  0.00    -0.003 C 
HETATM   23  C19 UNL     1      26.698  -0.320  52.285  1.00  0.00     0.065 C 
ENDBRANCH  17  18
ENDBRANCH   4  17
BRANCH   1  24
HETATM   24  C2  UNL     1      26.362   6.182  48.582  1.00  0.00     0.103 C 
HETATM   25  C1  UNL     1      27.809   5.981  48.210  1.00  0.00     0.028 C 
HETATM   26 BR1  UNL     1      26.168   7.816  49.641  1.00  0.00    -0.085 Br
ENDBRANCH   1  24
TORSDOF 4
ENDMDL
MODEL 2
REMARK VINA RESULT:      -8.9      3.375      5.628
REMARK  4 active torsions:
REMARK  status: ('A' for Active; 'I' for Inactive)
REMARK    1  A    between atoms: C2_2  and  C3_4 
REMARK    2  A    between atoms: N2_6  and  C4_7 
REMARK    3  A    between atoms: C13_18  and  C14_19 
REMARK    4  A    between atoms: C14_19  and  C15_20 
ROOT
HETATM    1  C3  UNL     1      27.163   0.357  54.191  1.00  0.00     0.049 C 
HETATM    2  N1  UNL     1      26.140  -0.416  54.144  1.00  0.00    -0.178 NA
HETATM    3  N2  UNL     1      25.016   0.241  53.680  1.00  0.00    -0.241 N 
HETATM    4  C13 UNL     1      25.484   1.429  52.992  1.00  0.00     0.122 C 
HETATM    5  C20 UNL     1      26.772   1.713  53.721  1.00  0.00     0.085 C 
ENDROOT
BRANCH   3   6
HETATM    6  C4  UNL     1      23.670  -0.255  53.895  1.00  0.00     0.190 A 
HETATM    7  N3  UNL     1      22.650  -0.368  53.675  1.00  0.00    -0.261 N 
HETATM    8  C5  UNL     1      21.431  -0.526  53.444  1.00  0.00     0.066 A 
HETATM    9  S1  UNL     1      23.064  -1.377  55.305  1.00  0.00    -0.019 SA
HETATM   10  C6  UNL     1      20.219  -0.317  52.683  1.00  0.00    -0.008 A 
HETATM   11  C12 UNL     1      21.396  -1.373  54.668  1.00  0.00     0.095 A 
HETATM   12  C7  UNL     1      19.021  -0.872  53.038  1.00  0.00     0.014 A 
HETATM   13  C11 UNL     1      20.314   0.479  51.565  1.00  0.00     0.014 A 
HETATM   14  C8  UNL     1      17.911  -0.622  52.258  1.00  0.00     0.001 A 
HETATM   15  C9  UNL     1      18.003   0.177  51.134  1.00  0.00     0.000 A 
HETATM   16  C10 UNL     1      19.208   0.748  50.760  1.00  0.00     0.001 A 
ENDBRANCH   3   6
BRANCH   4  17
HETATM   17  C14 UNL     1      24.467   2.532  53.101  1.00  0.00     0.064 C 
BRANCH  17  18
HETATM   18  C15 UNL     1      23.512   2.594  51.991  1.00  0.00    -0.043 C 
HETATM   19  C16 UNL     1      23.628   2.041  50.811  1.00  0.00     0.088 C 
HETATM   20  N4  UNL     1      23.157   2.551  49.764  1.00  0.00    -0.259 NA
HETATM   21  C17 UNL     1      22.337   3.714  49.806  1.00  0.00     0.113 C 
HETATM   22  C18 UNL     1      21.911   4.108  51.000  1.00  0.00    -0.003 C 
HETATM   23  C19 UNL     1      22.259   3.388  52.253  1.00  0.00     0.065 C 
ENDBRANCH  17  18
ENDBRANCH   4  17
BRANCH   1  24
HETATM   24  C2  UNL     1      28.582   0.138  54.611  1.00  0.00     0.103 C 
HETATM   25  C1  UNL     1      29.355   1.424  54.466  1.00  0.00     0.028 C 
HETATM   26 BR1  UNL     1      29.366  -1.242  53.468  1.00  0.00    -0.085 Br
ENDBRANCH   1  24
TORSDOF 4
ENDMDL
MODEL 3
REMARK VINA RESULT:      -8.9      2.591      6.772
REMARK  4 active torsions:
REMARK  status: ('A' for Active; 'I' for Inactive)
REMARK    1  A    between atoms: C2_2  and  C3_4 
REMARK    2  A    between atoms: N2_6  and  C4_7 
REMARK    3  A    between atoms: C13_18  and  C14_19 
REMARK    4  A    between atoms: C14_19  and  C15_20 
ROOT
HETATM    1  C3  UNL     1      22.559   0.511  52.347  1.00  0.00     0.049 C 
HETATM    2  N1  UNL     1      22.605   1.424  51.446  1.00  0.00    -0.178 NA
HETATM    3  N2  UNL     1      23.829   2.065  51.420  1.00  0.00    -0.241 N 
HETATM    4  C13 UNL     1      24.768   1.192  52.101  1.00  0.00     0.122 C 
HETATM    5  C20 UNL     1      23.864   0.463  53.060  1.00  0.00     0.085 C 
ENDROOT
BRANCH   3   6
HETATM    6  C4  UNL     1      24.025   3.362  50.802  1.00  0.00     0.190 A 
HETATM    7  N3  UNL     1      24.567   4.100  50.288  1.00  0.00    -0.261 N 
HETATM    8  C5  UNL     1      25.180   5.003  49.678  1.00  0.00     0.066 A 
HETATM    9  S1  UNL     1      22.769   4.783  50.676  1.00  0.00    -0.019 SA
HETATM   10  C6  UNL     1      26.335   5.562  49.011  1.00  0.00    -0.008 A 
HETATM   11  C12 UNL     1      23.938   5.814  49.803  1.00  0.00     0.095 A 
HETATM   12  C7  UNL     1      26.341   6.820  48.477  1.00  0.00     0.014 A 
HETATM   13  C11 UNL     1      27.455   4.765  48.930  1.00  0.00     0.014 A 
HETATM   14  C8  UNL     1      27.487   7.278  47.858  1.00  0.00     0.001 A 
HETATM   15  C9  UNL     1      28.612   6.481  47.775  1.00  0.00     0.000 A 
HETATM   16  C10 UNL     1      28.624   5.204  48.310  1.00  0.00     0.001 A 
ENDBRANCH   3   6
BRANCH   4  17
HETATM   17  C14 UNL     1      25.842   2.002  52.773  1.00  0.00     0.064 C 
BRANCH  17  18
HETATM   18  C15 UNL     1      27.098   1.281  53.004  1.00  0.00    -0.043 C 
HETATM   19  C16 UNL     1      27.300  -0.008  52.916  1.00  0.00     0.088 C 
HETATM   20  N4  UNL     1      28.123  -0.624  53.638  1.00  0.00    -0.259 NA
HETATM   21  C17 UNL     1      29.002   0.066  54.521  1.00  0.00     0.113 C 
HETATM   22  C18 UNL     1      29.072   1.384  54.393  1.00  0.00    -0.003 C 
HETATM   23  C19 UNL     1      28.279   2.134  53.382  1.00  0.00     0.065 C 
ENDBRANCH  17  18
ENDBRANCH   4  17
BRANCH   1  24
HETATM   24  C2  UNL     1      21.488  -0.444  52.771  1.00  0.00     0.103 C 
HETATM   25  C1  UNL     1      20.136   0.191  52.566  1.00  0.00     0.028 C 
HETATM   26 BR1  UNL     1      21.744  -0.871  54.662  1.00  0.00    -0.085 Br
ENDBRANCH   1  24
TORSDOF 4
ENDMDL
MODEL 4
REMARK VINA RESULT:      -8.3      1.967      4.183
REMARK  4 active torsions:
REMARK  status: ('A' for Active; 'I' for Inactive)
REMARK    1  A    between atoms: C2_2  and  C3_4 
REMARK    2  A    between atoms: N2_6  and  C4_7 
REMARK    3  A    between atoms: C13_18  and  C14_19 
REMARK    4  A    between atoms: C14_19  and  C15_20 
ROOT
HETATM    1  C3  UNL     1      26.784   5.002  48.935  1.00  0.00     0.049 C 
HETATM    2  N1  UNL     1      26.959   3.923  49.608  1.00  0.00    -0.178 NA
HETATM    3  N2  UNL     1      25.768   3.424  50.102  1.00  0.00    -0.241 N 
HETATM    4  C13 UNL     1      24.708   4.031  49.320  1.00  0.00     0.122 C 
HETATM    5  C20 UNL     1      25.336   5.341  48.923  1.00  0.00     0.085 C 
ENDROOT
BRANCH   3   6
HETATM    6  C4  UNL     1      25.707   2.475  51.197  1.00  0.00     0.190 A 
HETATM    7  N3  UNL     1      25.235   1.798  51.845  1.00  0.00    -0.261 N 
HETATM    8  C5  UNL     1      24.707   0.986  52.636  1.00  0.00     0.066 A 
HETATM    9  S1  UNL     1      27.138   1.900  52.308  1.00  0.00    -0.019 SA
HETATM   10  C6  UNL     1      23.590   0.239  53.172  1.00  0.00    -0.008 A 
HETATM   11  C12 UNL     1      26.058   0.824  53.239  1.00  0.00     0.095 A 
HETATM   12  C7  UNL     1      23.718  -0.626  54.222  1.00  0.00     0.014 A 
HETATM   13  C11 UNL     1      22.365   0.434  52.576  1.00  0.00     0.014 A 
HETATM   14  C8  UNL     1      22.602  -1.299  54.675  1.00  0.00     0.001 A 
HETATM   15  C9  UNL     1      21.371  -1.106  54.078  1.00  0.00     0.000 A 
HETATM   16  C10 UNL     1      21.222  -0.234  53.013  1.00  0.00     0.001 A 
ENDBRANCH   3   6
BRANCH   4  17
HETATM   17  C14 UNL     1      23.464   4.181  50.153  1.00  0.00     0.064 C 
BRANCH  17  18
HETATM   18  C15 UNL     1      22.301   3.439  49.654  1.00  0.00    -0.043 C 
HETATM   19  C16 UNL     1      21.099   3.407  50.169  1.00  0.00     0.088 C 
HETATM   20  N4  UNL     1      20.355   2.397  50.111  1.00  0.00    -0.259 NA
HETATM   21  C17 UNL     1      20.717   1.247  49.354  1.00  0.00     0.113 C 
HETATM   22  C18 UNL     1      21.759   1.364  48.541  1.00  0.00    -0.003 C 
HETATM   23  C19 UNL     1      22.533   2.627  48.407  1.00  0.00     0.065 C 
ENDBRANCH  17  18
ENDBRANCH   4  17
BRANCH   1  24
HETATM   24  C2  UNL     1      27.728   5.910  48.213  1.00  0.00     0.103 C 
HETATM   25  C1  UNL     1      29.147   5.468  48.465  1.00  0.00     0.028 C 
HETATM   26 BR1  UNL     1      27.471   7.733  48.874  1.00  0.00    -0.085 Br
ENDBRANCH   1  24
TORSDOF 4
ENDMDL
MODEL 5
REMARK VINA RESULT:      -8.2      3.063      5.623
REMARK  4 active torsions:
REMARK  status: ('A' for Active; 'I' for Inactive)
REMARK    1  A    between atoms: C2_2  and  C3_4 
REMARK    2  A    between atoms: N2_6  and  C4_7 
REMARK    3  A    between atoms: C13_18  and  C14_19 
REMARK    4  A    between atoms: C14_19  and  C15_20 
ROOT
HETATM    1  C3  UNL     1      26.363   0.620  53.126  1.00  0.00     0.049 C 
HETATM    2  N1  UNL     1      25.406  -0.202  53.364  1.00  0.00    -0.178 NA
HETATM    3  N2  UNL     1      24.200   0.250  52.863  1.00  0.00    -0.241 N 
HETATM    4  C13 UNL     1      24.515   1.257  51.868  1.00  0.00     0.122 C 
HETATM    5  C20 UNL     1      25.826   1.791  52.381  1.00  0.00     0.085 C 
ENDROOT
BRANCH   3   6
HETATM    6  C4  UNL     1      22.920  -0.258  53.318  1.00  0.00     0.190 A 
HETATM    7  N3  UNL     1      21.884  -0.418  53.261  1.00  0.00    -0.261 N 
HETATM    8  C5  UNL     1      20.652  -0.629  53.228  1.00  0.00     0.066 A 
HETATM    9  S1  UNL     1      22.569  -1.260  54.895  1.00  0.00    -0.019 SA
HETATM   10  C6  UNL     1      19.335  -0.523  52.639  1.00  0.00    -0.008 A 
HETATM   11  C12 UNL     1      20.827  -1.359  54.513  1.00  0.00     0.095 A 
HETATM   12  C7  UNL     1      18.224  -1.074  53.214  1.00  0.00     0.014 A 
HETATM   13  C11 UNL     1      19.235   0.169  51.453  1.00  0.00     0.014 A 
HETATM   14  C8  UNL     1      17.003  -0.925  52.588  1.00  0.00     0.001 A 
HETATM   15  C9  UNL     1      16.900  -0.233  51.397  1.00  0.00     0.000 A 
HETATM   16  C10 UNL     1      18.015   0.332  50.800  1.00  0.00     0.001 A 
ENDBRANCH   3   6
BRANCH   4  17
HETATM   17  C14 UNL     1      23.421   2.288  51.802  1.00  0.00     0.064 C 
BRANCH  17  18
HETATM   18  C15 UNL     1      22.678   2.312  50.539  1.00  0.00    -0.043 C 
HETATM   19  C16 UNL     1      22.019   1.326  49.986  1.00  0.00     0.088 C 
HETATM   20  N4  UNL     1      21.917   1.181  48.743  1.00  0.00    -0.259 NA
HETATM   21  C17 UNL     1      22.402   2.167  47.835  1.00  0.00     0.113 C 
HETATM   22  C18 UNL     1      22.765   3.334  48.351  1.00  0.00    -0.003 C 
HETATM   23  C19 UNL     1      22.681   3.628  49.806  1.00  0.00     0.065 C 
ENDBRANCH  17  18
ENDBRANCH   4  17
BRANCH   1  24
HETATM   24  C2  UNL     1      27.823   0.599  53.450  1.00  0.00     0.103 C 
HETATM   25  C1  UNL     1      28.033  -0.054  54.792  1.00  0.00     0.028 C 
HETATM   26 BR1  UNL     1      28.480   2.441  53.496  1.00  0.00    -0.085 Br
ENDBRANCH   1  24
TORSDOF 4
ENDMDL
MODEL 6
REMARK VINA RESULT:      -8.1      2.516      6.781
REMARK  4 active torsions:
REMARK  status: ('A' for Active; 'I' for Inactive)
REMARK    1  A    between atoms: C2_2  and  C3_4 
REMARK    2  A    between atoms: N2_6  and  C4_7 
REMARK    3  A    between atoms: C13_18  and  C14_19 
REMARK    4  A    between atoms: C14_19  and  C15_20 
ROOT
HETATM    1  C3  UNL     1      27.248   0.880  53.958  1.00  0.00     0.049 C 
HETATM    2  N1  UNL     1      26.722   2.001  53.619  1.00  0.00    -0.178 NA
HETATM    3  N2  UNL     1      25.469   1.836  53.060  1.00  0.00    -0.241 N 
HETATM    4  C13 UNL     1      25.006   0.520  53.459  1.00  0.00     0.122 C 
HETATM    5  C20 UNL     1      26.306  -0.222  53.622  1.00  0.00     0.085 C 
ENDROOT
BRANCH   3   6
HETATM    6  C4  UNL     1      24.832   2.852  52.245  1.00  0.00     0.190 A 
HETATM    7  N3  UNL     1      24.800   3.609  51.517  1.00  0.00    -0.261 N 
HETATM    8  C5  UNL     1      24.723   4.514  50.658  1.00  0.00     0.066 A 
HETATM    9  S1  UNL     1      22.999   3.356  52.251  1.00  0.00    -0.019 SA
HETATM   10  C6  UNL     1      25.275   5.396  49.653  1.00  0.00    -0.008 A 
HETATM   11  C12 UNL     1      23.272   4.584  50.983  1.00  0.00     0.095 A 
HETATM   12  C7  UNL     1      24.514   6.304  48.972  1.00  0.00     0.014 A 
HETATM   13  C11 UNL     1      26.624   5.288  49.399  1.00  0.00     0.014 A 
HETATM   14  C8  UNL     1      25.118   7.111  48.029  1.00  0.00     0.001 A 
HETATM   15  C9  UNL     1      26.472   7.004  47.772  1.00  0.00     0.000 A 
HETATM   16  C10 UNL     1      27.258   6.089  48.452  1.00  0.00     0.001 A 
ENDBRANCH   3   6
BRANCH   4  17
HETATM   17  C14 UNL     1      24.103  -0.059  52.405  1.00  0.00     0.064 C 
BRANCH  17  18
HETATM   18  C15 UNL     1      22.733  -0.326  52.853  1.00  0.00    -0.043 C 
HETATM   19  C16 UNL     1      21.625  -0.129  52.185  1.00  0.00     0.088 C 
HETATM   20  N4  UNL     1      20.542   0.194  52.732  1.00  0.00    -0.259 NA
HETATM   21  C17 UNL     1      20.406   0.235  54.149  1.00  0.00     0.113 C 
HETATM   22  C18 UNL     1      21.395  -0.287  54.864  1.00  0.00    -0.003 C 
HETATM   23  C19 UNL     1      22.601  -0.894  54.241  1.00  0.00     0.065 C 
ENDBRANCH  17  18
ENDBRANCH   4  17
BRANCH   1  24
HETATM   24  C2  UNL     1      28.557   0.522  54.588  1.00  0.00     0.103 C 
HETATM   25  C1  UNL     1      29.457   1.731  54.603  1.00  0.00     0.028 C 
HETATM   26 BR1  UNL     1      29.383  -0.910  53.543  1.00  0.00    -0.085 Br
ENDBRANCH   1  24
TORSDOF 4
ENDMDL
MODEL 7
REMARK VINA RESULT:      -7.6      3.326      8.048
REMARK  4 active torsions:
REMARK  status: ('A' for Active; 'I' for Inactive)
REMARK    1  A    between atoms: C2_2  and  C3_4 
REMARK    2  A    between atoms: N2_6  and  C4_7 
REMARK    3  A    between atoms: C13_18  and  C14_19 
REMARK    4  A    between atoms: C14_19  and  C15_20 
ROOT
HETATM    1  C3  UNL     1      21.311   0.642  53.296  1.00  0.00     0.049 C 
HETATM    2  N1  UNL     1      22.554   0.949  53.205  1.00  0.00    -0.178 NA
HETATM    3  N2  UNL     1      22.765   1.997  52.329  1.00  0.00    -0.241 N 
HETATM    4  C13 UNL     1      21.488   2.668  52.170  1.00  0.00     0.122 C 
HETATM    5  C20 UNL     1      20.520   1.539  52.411  1.00  0.00     0.085 C 
ENDROOT
BRANCH   3   6
HETATM    6  C4  UNL     1      24.059   2.282  51.740  1.00  0.00     0.190 A 
HETATM    7  N3  UNL     1      24.745   2.835  51.170  1.00  0.00    -0.261 N 
HETATM    8  C5  UNL     1      25.590   3.467  50.500  1.00  0.00     0.066 A 
HETATM    9  S1  UNL     1      25.652   1.257  51.901  1.00  0.00    -0.019 SA
HETATM   10  C6  UNL     1      26.020   4.563  49.659  1.00  0.00    -0.008 A 
HETATM   11  C12 UNL     1      26.561   2.405  50.878  1.00  0.00     0.095 A 
HETATM   12  C7  UNL     1      27.299   4.674  49.190  1.00  0.00     0.014 A 
HETATM   13  C11 UNL     1      25.075   5.512  49.338  1.00  0.00     0.014 A 
HETATM   14  C8  UNL     1      27.627   5.751  48.391  1.00  0.00     0.001 A 
HETATM   15  C9  UNL     1      26.682   6.705  48.068  1.00  0.00     0.000 A 
HETATM   16  C10 UNL     1      25.381   6.609  48.534  1.00  0.00     0.001 A 
ENDBRANCH   3   6
BRANCH   4  17
HETATM   17  C14 UNL     1      21.383   3.277  50.799  1.00  0.00     0.064 C 
BRANCH  17  18
HETATM   18  C15 UNL     1      21.025   4.698  50.787  1.00  0.00    -0.043 C 
HETATM   19  C16 UNL     1      20.013   5.257  50.173  1.00  0.00     0.088 C 
HETATM   20  N4  UNL     1      20.055   6.419  49.699  1.00  0.00    -0.259 NA
HETATM   21  C17 UNL     1      21.174   7.273  49.919  1.00  0.00     0.113 C 
HETATM   22  C18 UNL     1      22.066   6.878  50.817  1.00  0.00    -0.003 C 
HETATM   23  C19 UNL     1      21.931   5.605  51.575  1.00  0.00     0.065 C 
ENDBRANCH  17  18
ENDBRANCH   4  17
BRANCH   1  24
HETATM   24  C2  UNL     1      20.577  -0.394  54.087  1.00  0.00     0.103 C 
HETATM   25  C1  UNL     1      21.434  -1.628  54.220  1.00  0.00     0.028 C 
HETATM   26 BR1  UNL     1      18.916  -0.834  53.153  1.00  0.00    -0.085 Br
ENDBRANCH   1  24
TORSDOF 4
ENDMDL
MODEL 8
REMARK VINA RESULT:      -7.6      2.962      5.688
REMARK  4 active torsions:
REMARK  status: ('A' for Active; 'I' for Inactive)
REMARK    1  A    between atoms: C2_2  and  C3_4 
REMARK    2  A    between atoms: N2_6  and  C4_7 
REMARK    3  A    between atoms: C13_18  and  C14_19 
REMARK    4  A    between atoms: C14_19  and  C15_20 
ROOT
HETATM    1  C3  UNL     1      28.732   5.898  48.201  1.00  0.00     0.049 C 
HETATM    2  N1  UNL     1      28.239   4.769  48.562  1.00  0.00    -0.178 NA
HETATM    3  N2  UNL     1      26.992   4.912  49.141  1.00  0.00    -0.241 N 
HETATM    4  C13 UNL     1      26.492   6.211  48.733  1.00  0.00     0.122 C 
HETATM    5  C20 UNL     1      27.771   6.982  48.538  1.00  0.00     0.085 C 
ENDROOT
BRANCH   3   6
HETATM    6  C4  UNL     1      26.392   3.892  49.980  1.00  0.00     0.190 A 
HETATM    7  N3  UNL     1      26.376   3.186  50.756  1.00  0.00    -0.261 N 
HETATM    8  C5  UNL     1      26.318   2.336  51.671  1.00  0.00     0.066 A 
HETATM    9  S1  UNL     1      24.622   3.208  49.878  1.00  0.00    -0.019 SA
HETATM   10  C6  UNL     1      26.871   1.581  52.775  1.00  0.00    -0.008 A 
HETATM   11  C12 UNL     1      24.911   2.099  51.249  1.00  0.00     0.095 A 
HETATM   12  C7  UNL     1      26.149   0.647  53.463  1.00  0.00     0.014 A 
HETATM   13  C11 UNL     1      28.179   1.840  53.116  1.00  0.00     0.014 A 
HETATM   14  C8  UNL     1      26.751  -0.032  54.503  1.00  0.00     0.001 A 
HETATM   15  C9  UNL     1      28.064   0.227  54.848  1.00  0.00     0.000 A 
HETATM   16  C10 UNL     1      28.811   1.170  54.162  1.00  0.00     0.001 A 
ENDBRANCH   3   6
BRANCH   4  17
HETATM   17  C14 UNL     1      25.593   6.783  49.795  1.00  0.00     0.064 C 
BRANCH  17  18
HETATM   18  C15 UNL     1      24.193   6.946  49.389  1.00  0.00    -0.043 C 
HETATM   19  C16 UNL     1      23.208   7.420  50.108  1.00  0.00     0.088 C 
HETATM   20  N4  UNL     1      22.021   7.024  49.991  1.00  0.00    -0.259 NA
HETATM   21  C17 UNL     1      21.636   6.119  48.962  1.00  0.00     0.113 C 
HETATM   22  C18 UNL     1      22.524   5.880  48.005  1.00  0.00    -0.003 C 
HETATM   23  C19 UNL     1      23.868   6.515  47.983  1.00  0.00     0.065 C 
ENDBRANCH  17  18
ENDBRANCH   4  17
BRANCH   1  24
HETATM   24  C2  UNL     1      30.022   6.277  47.544  1.00  0.00     0.103 C 
HETATM   25  C1  UNL     1      30.985   5.119  47.616  1.00  0.00     0.028 C 
HETATM   26 BR1  UNL     1      30.769   7.823  48.480  1.00  0.00    -0.085 Br
ENDBRANCH   1  24
TORSDOF 4
ENDMDL
MODEL 9
REMARK VINA RESULT:      -7.4      2.652      4.059
REMARK  4 active torsions:
REMARK  status: ('A' for Active; 'I' for Inactive)
REMARK    1  A    between atoms: C2_2  and  C3_4 
REMARK    2  A    between atoms: N2_6  and  C4_7 
REMARK    3  A    between atoms: C13_18  and  C14_19 
REMARK    4  A    between atoms: C14_19  and  C15_20 
ROOT
HETATM    1  C3  UNL     1      23.736   4.077  49.948  1.00  0.00     0.049 C 
HETATM    2  N1  UNL     1      22.456   4.051  49.868  1.00  0.00    -0.178 NA
HETATM    3  N2  UNL     1      21.920   2.947  50.503  1.00  0.00    -0.241 N 
HETATM    4  C13 UNL     1      22.940   2.455  51.410  1.00  0.00     0.122 C 
HETATM    5  C20 UNL     1      24.202   2.888  50.711  1.00  0.00     0.085 C 
ENDROOT
BRANCH   3   6
HETATM    6  C4  UNL     1      20.580   2.460  50.239  1.00  0.00     0.190 A 
HETATM    7  N3  UNL     1      19.732   1.864  50.408  1.00  0.00    -0.261 N 
HETATM    8  C5  UNL     1      18.705   1.173  50.578  1.00  0.00     0.066 A 
HETATM    9  S1  UNL     1      19.402   3.017  48.855  1.00  0.00    -0.019 SA
HETATM   10  C6  UNL     1      17.917   0.168  51.259  1.00  0.00    -0.008 A 
HETATM   11  C12 UNL     1      18.136   1.879  49.397  1.00  0.00     0.095 A 
HETATM   12  C7  UNL     1      16.652  -0.166  50.867  1.00  0.00     0.014 A 
HETATM   13  C11 UNL     1      18.499  -0.454  52.340  1.00  0.00     0.014 A 
HETATM   14  C8  UNL     1      15.968  -1.137  51.570  1.00  0.00     0.001 A 
HETATM   15  C9  UNL     1      16.549  -1.763  52.656  1.00  0.00     0.000 A 
HETATM   16  C10 UNL     1      17.830  -1.436  53.068  1.00  0.00     0.001 A 
ENDBRANCH   3   6
BRANCH   4  17
HETATM   17  C14 UNL     1      22.818   0.965  51.577  1.00  0.00     0.064 C 
BRANCH  17  18
HETATM   18  C15 UNL     1      22.896   0.496  52.964  1.00  0.00    -0.043 C 
HETATM   19  C16 UNL     1      23.936  -0.013  53.573  1.00  0.00     0.088 C 
HETATM   20  N4  UNL     1      23.845  -0.891  54.466  1.00  0.00    -0.259 NA
HETATM   21  C17 UNL     1      22.583  -1.302  54.983  1.00  0.00     0.113 C 
HETATM   22  C18 UNL     1      21.527  -0.573  54.644  1.00  0.00    -0.003 C 
HETATM   23  C19 UNL     1      21.628   0.624  53.767  1.00  0.00     0.065 C 
ENDBRANCH  17  18
ENDBRANCH   4  17
BRANCH   1  24
HETATM   24  C2  UNL     1      24.765   5.036  49.438  1.00  0.00     0.103 C 
HETATM   25  C1  UNL     1      26.133   4.411  49.544  1.00  0.00     0.028 C 
HETATM   26 BR1  UNL     1      24.692   6.665  50.518  1.00  0.00    -0.085 Br
ENDBRANCH   1  24
TORSDOF 4
ENDMDL
