MODEL 1
REMARK VINA RESULT:      -8.4      0.000      0.000
REMARK  3 active torsions:
REMARK  status: ('A' for Active; 'I' for Inactive)
REMARK    1  A    between atoms: C5_6  and  N1_7 
REMARK    2  A    between atoms: N1_7  and  C6_8 
REMARK    3  A    between atoms: C11_15  and  N4_16 
REMARK       I    between atoms: N4_16  and  C12_17 
ROOT
HETATM    1  C6  UNL     1      25.474   2.654  51.795  1.00  0.00     0.142 A 
HETATM    2  N2  UNL     1      26.145   3.227  50.781  1.00  0.00    -0.224 NA
HETATM    3  C7  UNL     1      25.513   3.484  49.599  1.00  0.00     0.236 A 
HETATM    4  N3  UNL     1      24.200   3.154  49.459  1.00  0.00    -0.241 NA
HETATM    5  C8  UNL     1      23.486   2.576  50.452  1.00  0.00     0.072 A 
HETATM    6  C9  UNL     1      22.155   2.266  50.244  1.00  0.00     0.035 A 
HETATM    7  C10 UNL     1      21.476   1.676  51.298  1.00  0.00     0.032 A 
HETATM    8  C11 UNL     1      22.124   1.419  52.493  1.00  0.00     0.035 A 
HETATM    9  C14 UNL     1      23.456   1.740  52.670  1.00  0.00     0.047 A 
HETATM   10  C15 UNL     1      24.152   2.327  51.638  1.00  0.00     0.041 A 
ENDROOT
BRANCH   1  11
HETATM   11  N1  UNL     1      26.195   2.423  52.979  1.00  0.00    -0.338 N 
HETATM   12  H4  UNL     1      26.248   2.950  53.862  1.00  0.00     0.167 HD
BRANCH  11  13
HETATM   13  C5  UNL     1      27.033   1.275  53.073  1.00  0.00     0.075 A 
HETATM   14  C4  UNL     1      26.702  -0.122  52.779  1.00  0.00     0.057 A 
HETATM   15  C3  UNL     1      27.726  -0.919  52.979  1.00  0.00     0.048 A 
HETATM   16  C2  UNL     1      28.843  -0.084  53.432  1.00  0.00     0.017 A 
HETATM   17 CL1  UNL     1      27.685  -2.649  52.726  1.00  0.00    -0.083 Cl
HETATM   18  C1  UNL     1      30.056  -0.521  53.739  1.00  0.00     0.028 C 
HETATM   19  C16 UNL     1      28.318   1.255  53.460  1.00  0.00     0.154 A 
HETATM   20  F1  UNL     1      29.080   2.323  53.838  1.00  0.00    -0.203 F 
ENDBRANCH  11  13
ENDBRANCH   1  11
BRANCH   8  21
HETATM   21  N4  UNL     1      21.426   0.805  53.595  1.00  0.00    -0.327 N 
HETATM   22  C12 UNL     1      21.789  -0.569  53.592  1.00  0.00     0.218 C 
HETATM   23  C13 UNL     1      21.309  -1.617  54.562  1.00  0.00     0.117 C 
HETATM   24  O1  UNL     1      22.602  -0.871  52.651  1.00  0.00    -0.274 OA
HETATM   25  H8  UNL     1      20.751   1.093  54.363  1.00  0.00     0.169 HD
ENDBRANCH   8  21
TORSDOF 3
ENDMDL
MODEL 2
REMARK VINA RESULT:      -8.4      2.844      4.300
REMARK  3 active torsions:
REMARK  status: ('A' for Active; 'I' for Inactive)
REMARK    1  A    between atoms: C5_6  and  N1_7 
REMARK    2  A    between atoms: N1_7  and  C6_8 
REMARK    3  A    between atoms: C11_15  and  N4_16 
REMARK       I    between atoms: N4_16  and  C12_17 
ROOT
HETATM    1  C6  UNL     1      23.978  -0.231  53.631  1.00  0.00     0.142 A 
HETATM    2  N2  UNL     1      24.475  -0.892  54.691  1.00  0.00    -0.224 NA
HETATM    3  C7  UNL     1      23.634  -1.531  55.555  1.00  0.00     0.236 A 
HETATM    4  N3  UNL     1      22.292  -1.492  55.332  1.00  0.00    -0.241 NA
HETATM    5  C8  UNL     1      21.748  -0.839  54.279  1.00  0.00     0.072 A 
HETATM    6  C9  UNL     1      20.377  -0.839  54.112  1.00  0.00     0.035 A 
HETATM    7  C10 UNL     1      19.879  -0.153  53.015  1.00  0.00     0.032 A 
HETATM    8  C11 UNL     1      20.738   0.493  52.144  1.00  0.00     0.035 A 
HETATM    9  C14 UNL     1      22.106   0.474  52.339  1.00  0.00     0.047 A 
HETATM   10  C15 UNL     1      22.624  -0.200  53.421  1.00  0.00     0.041 A 
ENDROOT
BRANCH   1  11
HETATM   11  N1  UNL     1      24.909   0.402  52.788  1.00  0.00    -0.338 N 
HETATM   12  H4  UNL     1      24.791   0.918  51.905  1.00  0.00     0.167 HD
BRANCH  11  13
HETATM   13  C5  UNL     1      26.290   0.380  53.132  1.00  0.00     0.075 A 
HETATM   14  C4  UNL     1      27.100   1.451  53.719  1.00  0.00     0.057 A 
HETATM   15  C3  UNL     1      28.346   1.078  53.902  1.00  0.00     0.048 A 
HETATM   16  C2  UNL     1      28.455  -0.308  53.438  1.00  0.00     0.017 A 
HETATM   17 CL1  UNL     1      29.586   2.105  54.583  1.00  0.00    -0.083 Cl
HETATM   18  C1  UNL     1      29.557  -1.043  53.457  1.00  0.00     0.028 C 
HETATM   19  C16 UNL     1      27.134  -0.652  52.980  1.00  0.00     0.154 A 
HETATM   20  F1  UNL     1      26.844  -1.883  52.469  1.00  0.00    -0.203 F 
ENDBRANCH  11  13
ENDBRANCH   1  11
BRANCH   8  21
HETATM   21  N4  UNL     1      20.230   1.209  51.000  1.00  0.00    -0.327 N 
HETATM   22  C12 UNL     1      19.868   2.504  51.459  1.00  0.00     0.218 C 
HETATM   23  C13 UNL     1      19.288   3.613  50.620  1.00  0.00     0.117 C 
HETATM   24  O1  UNL     1      20.085   2.672  52.708  1.00  0.00    -0.274 OA
HETATM   25  H8  UNL     1      20.065   1.032  49.965  1.00  0.00     0.169 HD
ENDBRANCH   8  21
TORSDOF 3
ENDMDL
MODEL 3
REMARK VINA RESULT:      -8.3      2.555      4.161
REMARK  3 active torsions:
REMARK  status: ('A' for Active; 'I' for Inactive)
REMARK    1  A    between atoms: C5_6  and  N1_7 
REMARK    2  A    between atoms: N1_7  and  C6_8 
REMARK    3  A    between atoms: C11_15  and  N4_16 
REMARK       I    between atoms: N4_16  and  C12_17 
ROOT
HETATM    1  C6  UNL     1      23.434  -0.169  53.504  1.00  0.00     0.142 A 
HETATM    2  N2  UNL     1      23.840  -0.877  54.571  1.00  0.00    -0.224 NA
HETATM    3  C7  UNL     1      22.928  -1.545  55.337  1.00  0.00     0.236 A 
HETATM    4  N3  UNL     1      21.609  -1.484  55.009  1.00  0.00    -0.241 NA
HETATM    5  C8  UNL     1      21.156  -0.784  53.944  1.00  0.00     0.072 A 
HETATM    6  C9  UNL     1      19.803  -0.764  53.666  1.00  0.00     0.035 A 
HETATM    7  C10 UNL     1      19.399  -0.029  52.562  1.00  0.00     0.032 A 
HETATM    8  C11 UNL     1      20.330   0.645  51.791  1.00  0.00     0.035 A 
HETATM    9  C14 UNL     1      21.677   0.606  52.095  1.00  0.00     0.047 A 
HETATM   10  C15 UNL     1      22.102  -0.117  53.186  1.00  0.00     0.041 A 
ENDROOT
BRANCH   1  11
HETATM   11  N1  UNL     1      24.434   0.491  52.767  1.00  0.00    -0.338 N 
HETATM   12  H4  UNL     1      24.378   1.161  51.987  1.00  0.00     0.167 HD
BRANCH  11  13
HETATM   13  C5  UNL     1      25.803   0.254  53.079  1.00  0.00     0.075 A 
HETATM   14  C4  UNL     1      26.601  -0.947  52.821  1.00  0.00     0.057 A 
HETATM   15  C3  UNL     1      27.837  -0.814  53.247  1.00  0.00     0.048 A 
HETATM   16  C2  UNL     1      27.949   0.525  53.834  1.00  0.00     0.017 A 
HETATM   17 CL1  UNL     1      29.062  -2.052  53.102  1.00  0.00    -0.083 Cl
HETATM   18  C1  UNL     1      29.044   1.039  54.375  1.00  0.00     0.028 C 
HETATM   19  C16 UNL     1      26.642   1.108  53.684  1.00  0.00     0.154 A 
HETATM   20  F1  UNL     1      26.359   2.369  54.121  1.00  0.00    -0.203 F 
ENDBRANCH  11  13
ENDBRANCH   1  11
BRANCH   8  21
HETATM   21  N4  UNL     1      19.920   1.412  50.641  1.00  0.00    -0.327 N 
HETATM   22  C12 UNL     1      19.542   2.695  51.121  1.00  0.00     0.218 C 
HETATM   23  C13 UNL     1      19.042   3.844  50.286  1.00  0.00     0.117 C 
HETATM   24  O1  UNL     1      19.665   2.812  52.389  1.00  0.00    -0.274 OA
HETATM   25  H8  UNL     1      19.832   1.278  49.591  1.00  0.00     0.169 HD
ENDBRANCH   8  21
TORSDOF 3
ENDMDL
MODEL 4
REMARK VINA RESULT:      -8.3      3.178      5.258
REMARK  3 active torsions:
REMARK  status: ('A' for Active; 'I' for Inactive)
REMARK    1  A    between atoms: C5_6  and  N1_7 
REMARK    2  A    between atoms: N1_7  and  C6_8 
REMARK    3  A    between atoms: C11_15  and  N4_16 
REMARK       I    between atoms: N4_16  and  C12_17 
ROOT
HETATM    1  C6  UNL     1      26.920   1.918  51.954  1.00  0.00     0.142 A 
HETATM    2  N2  UNL     1      28.064   2.526  52.311  1.00  0.00    -0.224 NA
HETATM    3  C7  UNL     1      28.585   2.327  53.557  1.00  0.00     0.236 A 
HETATM    4  N3  UNL     1      27.935   1.511  54.430  1.00  0.00    -0.241 NA
HETATM    5  C8  UNL     1      26.781   0.879  54.113  1.00  0.00     0.072 A 
HETATM    6  C9  UNL     1      26.172   0.063  55.047  1.00  0.00     0.035 A 
HETATM    7  C10 UNL     1      24.992  -0.557  54.664  1.00  0.00     0.032 A 
HETATM    8  C11 UNL     1      24.471  -0.350  53.400  1.00  0.00     0.035 A 
HETATM    9  C14 UNL     1      25.104   0.473  52.488  1.00  0.00     0.047 A 
HETATM   10  C15 UNL     1      26.277   1.099  52.844  1.00  0.00     0.041 A 
ENDROOT
BRANCH   1  11
HETATM   11  N1  UNL     1      26.449   2.173  50.654  1.00  0.00    -0.338 N 
HETATM   12  H4  UNL     1      26.340   1.561  49.834  1.00  0.00     0.167 HD
BRANCH  11  13
HETATM   13  C5  UNL     1      26.021   3.488  50.312  1.00  0.00     0.075 A 
HETATM   14  C4  UNL     1      24.897   4.252  50.862  1.00  0.00     0.057 A 
HETATM   15  C3  UNL     1      24.796   5.439  50.308  1.00  0.00     0.048 A 
HETATM   16  C2  UNL     1      25.876   5.550  49.323  1.00  0.00     0.017 A 
HETATM   17 CL1  UNL     1      23.570   6.613  50.725  1.00  0.00    -0.083 Cl
HETATM   18  C1  UNL     1      26.112   6.603  48.554  1.00  0.00     0.028 C 
HETATM   19  C16 UNL     1      26.578   4.296  49.398  1.00  0.00     0.154 A 
HETATM   20  F1  UNL     1      27.663   4.027  48.615  1.00  0.00    -0.203 F 
ENDBRANCH  11  13
ENDBRANCH   1  11
BRANCH   8  21
HETATM   21  N4  UNL     1      23.245  -0.990  52.992  1.00  0.00    -0.327 N 
HETATM   22  C12 UNL     1      22.227  -0.001  53.062  1.00  0.00     0.218 C 
HETATM   23  C13 UNL     1      20.771  -0.199  52.728  1.00  0.00     0.117 C 
HETATM   24  O1  UNL     1      22.660   1.138  53.450  1.00  0.00    -0.274 OA
HETATM   25  H8  UNL     1      22.922  -1.950  52.673  1.00  0.00     0.169 HD
ENDBRANCH   8  21
TORSDOF 3
ENDMDL
MODEL 5
REMARK VINA RESULT:      -8.0      2.230      4.486
REMARK  3 active torsions:
REMARK  status: ('A' for Active; 'I' for Inactive)
REMARK    1  A    between atoms: C5_6  and  N1_7 
REMARK    2  A    between atoms: N1_7  and  C6_8 
REMARK    3  A    between atoms: C11_15  and  N4_16 
REMARK       I    between atoms: N4_16  and  C12_17 
ROOT
HETATM    1  C6  UNL     1      24.504   2.606  52.460  1.00  0.00     0.142 A 
HETATM    2  N2  UNL     1      23.493   1.805  52.837  1.00  0.00    -0.224 NA
HETATM    3  C7  UNL     1      22.371   1.708  52.065  1.00  0.00     0.236 A 
HETATM    4  N3  UNL     1      22.288   2.430  50.915  1.00  0.00    -0.241 NA
HETATM    5  C8  UNL     1      23.281   3.249  50.497  1.00  0.00     0.072 A 
HETATM    6  C9  UNL     1      23.132   3.955  49.319  1.00  0.00     0.035 A 
HETATM    7  C10 UNL     1      24.182   4.777  48.943  1.00  0.00     0.032 A 
HETATM    8  C11 UNL     1      25.316   4.870  49.730  1.00  0.00     0.035 A 
HETATM    9  C14 UNL     1      25.435   4.152  50.905  1.00  0.00     0.047 A 
HETATM   10  C15 UNL     1      24.405   3.328  51.299  1.00  0.00     0.041 A 
ENDROOT
BRANCH   1  11
HETATM   11  N1  UNL     1      25.624   2.652  53.308  1.00  0.00    -0.338 N 
HETATM   12  H4  UNL     1      25.931   3.350  53.999  1.00  0.00     0.167 HD
BRANCH  11  13
HETATM   13  C5  UNL     1      26.565   1.583  53.280  1.00  0.00     0.075 A 
HETATM   14  C4  UNL     1      26.332   0.172  52.961  1.00  0.00     0.057 A 
HETATM   15  C3  UNL     1      27.436  -0.535  53.035  1.00  0.00     0.048 A 
HETATM   16  C2  UNL     1      28.513   0.383  53.419  1.00  0.00     0.017 A 
HETATM   17 CL1  UNL     1      27.524  -2.252  52.718  1.00  0.00    -0.083 Cl
HETATM   18  C1  UNL     1      29.783   0.050  53.597  1.00  0.00     0.028 C 
HETATM   19  C16 UNL     1      27.877   1.668  53.548  1.00  0.00     0.154 A 
HETATM   20  F1  UNL     1      28.575   2.788  53.898  1.00  0.00    -0.203 F 
ENDBRANCH  11  13
ENDBRANCH   1  11
BRANCH   8  21
HETATM   21  N4  UNL     1      26.414   5.723  49.348  1.00  0.00    -0.327 N 
HETATM   22  C12 UNL     1      27.443   4.870  48.866  1.00  0.00     0.218 C 
HETATM   23  C13 UNL     1      28.790   5.306  48.351  1.00  0.00     0.117 C 
HETATM   24  O1  UNL     1      27.125   3.631  48.902  1.00  0.00    -0.274 OA
HETATM   25  H8  UNL     1      26.642   6.760  49.333  1.00  0.00     0.169 HD
ENDBRANCH   8  21
TORSDOF 3
ENDMDL
MODEL 6
REMARK VINA RESULT:      -7.9      3.153      5.553
REMARK  3 active torsions:
REMARK  status: ('A' for Active; 'I' for Inactive)
REMARK    1  A    between atoms: C5_6  and  N1_7 
REMARK    2  A    between atoms: N1_7  and  C6_8 
REMARK    3  A    between atoms: C11_15  and  N4_16 
REMARK       I    between atoms: N4_16  and  C12_17 
ROOT
HETATM    1  C6  UNL     1      23.483   2.793  52.312  1.00  0.00     0.142 A 
HETATM    2  N2  UNL     1      22.287   2.717  51.704  1.00  0.00    -0.224 NA
HETATM    3  C7  UNL     1      21.615   1.529  51.661  1.00  0.00     0.236 A 
HETATM    4  N3  UNL     1      22.168   0.429  52.238  1.00  0.00    -0.241 NA
HETATM    5  C8  UNL     1      23.369   0.459  52.861  1.00  0.00     0.072 A 
HETATM    6  C9  UNL     1      23.874  -0.695  53.427  1.00  0.00     0.035 A 
HETATM    7  C10 UNL     1      25.108  -0.601  54.051  1.00  0.00     0.032 A 
HETATM    8  C11 UNL     1      25.782   0.606  54.090  1.00  0.00     0.035 A 
HETATM    9  C14 UNL     1      25.251   1.744  53.514  1.00  0.00     0.047 A 
HETATM   10  C15 UNL     1      24.027   1.676  52.889  1.00  0.00     0.041 A 
ENDROOT
BRANCH   1  11
HETATM   11  N1  UNL     1      24.111   4.051  52.314  1.00  0.00    -0.338 N 
HETATM   12  H4  UNL     1      24.201   4.770  53.046  1.00  0.00     0.167 HD
BRANCH  11  13
HETATM   13  C5  UNL     1      24.770   4.504  51.136  1.00  0.00     0.075 A 
HETATM   14  C4  UNL     1      24.354   5.559  50.208  1.00  0.00     0.057 A 
HETATM   15  C3  UNL     1      25.210   5.709  49.222  1.00  0.00     0.048 A 
HETATM   16  C2  UNL     1      26.287   4.737  49.434  1.00  0.00     0.017 A 
HETATM   17 CL1  UNL     1      25.027   6.878  47.935  1.00  0.00    -0.083 Cl
HETATM   18  C1  UNL     1      27.343   4.576  48.651  1.00  0.00     0.028 C 
HETATM   19  C16 UNL     1      25.926   4.039  50.639  1.00  0.00     0.154 A 
HETATM   20  F1  UNL     1      26.703   3.044  51.158  1.00  0.00    -0.203 F 
ENDBRANCH  11  13
ENDBRANCH   1  11
BRANCH   8  21
HETATM   21  N4  UNL     1      27.066   0.714  54.737  1.00  0.00    -0.327 N 
HETATM   22  C12 UNL     1      28.041   0.343  53.771  1.00  0.00     0.218 C 
HETATM   23  C13 UNL     1      29.532   0.301  53.984  1.00  0.00     0.117 C 
HETATM   24  O1  UNL     1      27.532   0.028  52.641  1.00  0.00    -0.274 OA
HETATM   25  H8  UNL     1      27.452   0.983  55.689  1.00  0.00     0.169 HD
ENDBRANCH   8  21
TORSDOF 3
ENDMDL
MODEL 7
REMARK VINA RESULT:      -7.9      2.034      4.173
REMARK  3 active torsions:
REMARK  status: ('A' for Active; 'I' for Inactive)
REMARK    1  A    between atoms: C5_6  and  N1_7 
REMARK    2  A    between atoms: N1_7  and  C6_8 
REMARK    3  A    between atoms: C11_15  and  N4_16 
REMARK       I    between atoms: N4_16  and  C12_17 
ROOT
HETATM    1  C6  UNL     1      24.045   1.362  52.625  1.00  0.00     0.142 A 
HETATM    2  N2  UNL     1      23.115   0.491  53.049  1.00  0.00    -0.224 NA
HETATM    3  C7  UNL     1      22.030   0.212  52.269  1.00  0.00     0.236 A 
HETATM    4  N3  UNL     1      21.903   0.824  51.060  1.00  0.00    -0.241 NA
HETATM    5  C8  UNL     1      22.815   1.707  50.593  1.00  0.00     0.072 A 
HETATM    6  C9  UNL     1      22.625   2.294  49.356  1.00  0.00     0.035 A 
HETATM    7  C10 UNL     1      23.593   3.190  48.931  1.00  0.00     0.032 A 
HETATM    8  C11 UNL     1      24.689   3.468  49.729  1.00  0.00     0.035 A 
HETATM    9  C14 UNL     1      24.850   2.865  50.962  1.00  0.00     0.047 A 
HETATM   10  C15 UNL     1      23.903   1.971  51.405  1.00  0.00     0.041 A 
ENDROOT
BRANCH   1  11
HETATM   11  N1  UNL     1      25.131   1.596  53.486  1.00  0.00    -0.338 N 
HETATM   12  H4  UNL     1      25.280   2.298  54.225  1.00  0.00     0.167 HD
BRANCH  11  13
HETATM   13  C5  UNL     1      26.284   0.765  53.398  1.00  0.00     0.075 A 
HETATM   14  C4  UNL     1      26.354  -0.668  53.100  1.00  0.00     0.057 A 
HETATM   15  C3  UNL     1      27.591  -1.108  53.103  1.00  0.00     0.048 A 
HETATM   16  C2  UNL     1      28.456   0.034  53.411  1.00  0.00     0.017 A 
HETATM   17 CL1  UNL     1      28.041  -2.768  52.786  1.00  0.00    -0.083 Cl
HETATM   18  C1  UNL     1      29.778  -0.003  53.504  1.00  0.00     0.028 C 
HETATM   19  C16 UNL     1      27.558   1.146  53.577  1.00  0.00     0.154 A 
HETATM   20  F1  UNL     1      28.008   2.400  53.877  1.00  0.00    -0.203 F 
ENDBRANCH  11  13
ENDBRANCH   1  11
BRANCH   8  21
HETATM   21  N4  UNL     1      25.701   4.399  49.296  1.00  0.00    -0.327 N 
HETATM   22  C12 UNL     1      25.343   5.667  49.830  1.00  0.00     0.218 C 
HETATM   23  C13 UNL     1      26.102   6.955  49.647  1.00  0.00     0.117 C 
HETATM   24  O1  UNL     1      24.266   5.634  50.520  1.00  0.00    -0.274 OA
HETATM   25  H8  UNL     1      26.591   4.387  48.717  1.00  0.00     0.169 HD
ENDBRANCH   8  21
TORSDOF 3
ENDMDL
MODEL 8
REMARK VINA RESULT:      -7.8      3.708      6.134
REMARK  3 active torsions:
REMARK  status: ('A' for Active; 'I' for Inactive)
REMARK    1  A    between atoms: C5_6  and  N1_7 
REMARK    2  A    between atoms: N1_7  and  C6_8 
REMARK    3  A    between atoms: C11_15  and  N4_16 
REMARK       I    between atoms: N4_16  and  C12_17 
ROOT
HETATM    1  C6  UNL     1      25.612   3.043  49.993  1.00  0.00     0.142 A 
HETATM    2  N2  UNL     1      24.434   3.294  49.398  1.00  0.00    -0.224 NA
HETATM    3  C7  UNL     1      23.267   2.943  50.013  1.00  0.00     0.236 A 
HETATM    4  N3  UNL     1      23.311   2.338  51.230  1.00  0.00    -0.241 NA
HETATM    5  C8  UNL     1      24.474   2.066  51.866  1.00  0.00     0.072 A 
HETATM    6  C9  UNL     1      24.448   1.448  53.102  1.00  0.00     0.035 A 
HETATM    7  C10 UNL     1      25.671   1.196  53.703  1.00  0.00     0.032 A 
HETATM    8  C11 UNL     1      26.849   1.555  53.073  1.00  0.00     0.035 A 
HETATM    9  C14 UNL     1      26.842   2.171  51.836  1.00  0.00     0.047 A 
HETATM   10  C15 UNL     1      25.640   2.432  51.219  1.00  0.00     0.041 A 
ENDROOT
BRANCH   1  11
HETATM   11  N1  UNL     1      26.769   3.435  49.295  1.00  0.00    -0.338 N 
HETATM   12  H4  UNL     1      27.558   2.891  48.919  1.00  0.00     0.167 HD
BRANCH  11  13
HETATM   13  C5  UNL     1      26.977   4.814  49.008  1.00  0.00     0.075 A 
HETATM   14  C4  UNL     1      26.095   5.949  49.296  1.00  0.00     0.057 A 
HETATM   15  C3  UNL     1      26.611   7.085  48.886  1.00  0.00     0.048 A 
HETATM   16  C2  UNL     1      27.910   6.777  48.281  1.00  0.00     0.017 A 
HETATM   17 CL1  UNL     1      25.829   8.638  49.070  1.00  0.00    -0.083 Cl
HETATM   18  C1  UNL     1      28.741   7.662  47.749  1.00  0.00     0.028 C 
HETATM   19  C16 UNL     1      28.048   5.350  48.402  1.00  0.00     0.154 A 
HETATM   20  F1  UNL     1      29.150   4.689  47.942  1.00  0.00    -0.203 F 
ENDBRANCH  11  13
ENDBRANCH   1  11
BRANCH   8  21
HETATM   21  N4  UNL     1      28.126   1.296  53.690  1.00  0.00    -0.327 N 
HETATM   22  C12 UNL     1      28.471  -0.044  53.366  1.00  0.00     0.218 C 
HETATM   23  C13 UNL     1      29.723  -0.766  53.790  1.00  0.00     0.117 C 
HETATM   24  O1  UNL     1      27.590  -0.628  52.645  1.00  0.00    -0.274 OA
HETATM   25  H8  UNL     1      28.835   1.814  54.289  1.00  0.00     0.169 HD
ENDBRANCH   8  21
TORSDOF 3
ENDMDL
MODEL 9
REMARK VINA RESULT:      -7.7      3.178      5.439
REMARK  3 active torsions:
REMARK  status: ('A' for Active; 'I' for Inactive)
REMARK    1  A    between atoms: C5_6  and  N1_7 
REMARK    2  A    between atoms: N1_7  and  C6_8 
REMARK    3  A    between atoms: C11_15  and  N4_16 
REMARK       I    between atoms: N4_16  and  C12_17 
ROOT
HETATM    1  C6  UNL     1      25.534   3.302  50.829  1.00  0.00     0.142 A 
HETATM    2  N2  UNL     1      24.588   2.446  51.251  1.00  0.00    -0.224 NA
HETATM    3  C7  UNL     1      23.298   2.588  50.829  1.00  0.00     0.236 A 
HETATM    4  N3  UNL     1      22.982   3.603  49.980  1.00  0.00    -0.241 NA
HETATM    5  C8  UNL     1      23.901   4.488  49.530  1.00  0.00     0.072 A 
HETATM    6  C9  UNL     1      23.512   5.497  48.669  1.00  0.00     0.035 A 
HETATM    7  C10 UNL     1      24.499   6.372  48.243  1.00  0.00     0.032 A 
HETATM    8  C11 UNL     1      25.804   6.222  48.676  1.00  0.00     0.035 A 
HETATM    9  C14 UNL     1      26.161   5.203  49.538  1.00  0.00     0.047 A 
HETATM   10  C15 UNL     1      25.199   4.320  49.975  1.00  0.00     0.041 A 
ENDROOT
BRANCH   1  11
HETATM   11  N1  UNL     1      26.838   3.089  51.309  1.00  0.00    -0.338 N 
HETATM   12  H4  UNL     1      27.697   3.650  51.226  1.00  0.00     0.167 HD
BRANCH  11  13
HETATM   13  C5  UNL     1      27.123   1.911  52.057  1.00  0.00     0.075 A 
HETATM   14  C4  UNL     1      26.756   0.526  51.750  1.00  0.00     0.057 A 
HETATM   15  C3  UNL     1      27.187  -0.309  52.668  1.00  0.00     0.048 A 
HETATM   16  C2  UNL     1      27.892   0.486  53.679  1.00  0.00     0.017 A 
HETATM   17 CL1  UNL     1      26.927  -2.037  52.620  1.00  0.00    -0.083 Cl
HETATM   18  C1  UNL     1      28.474   0.006  54.768  1.00  0.00     0.028 C 
HETATM   19  C16 UNL     1      27.799   1.845  53.214  1.00  0.00     0.154 A 
HETATM   20  F1  UNL     1      28.349   2.885  53.907  1.00  0.00    -0.203 F 
ENDBRANCH  11  13
ENDBRANCH   1  11
BRANCH   8  21
HETATM   21  N4  UNL     1      26.837   7.127  48.238  1.00  0.00    -0.327 N 
HETATM   22  C12 UNL     1      27.025   8.067  49.288  1.00  0.00     0.218 C 
HETATM   23  C13 UNL     1      28.005   9.212  49.290  1.00  0.00     0.117 C 
HETATM   24  O1  UNL     1      26.259   7.859  50.290  1.00  0.00    -0.274 OA
HETATM   25  H8  UNL     1      27.457   7.268  47.388  1.00  0.00     0.169 HD
ENDBRANCH   8  21
TORSDOF 3
ENDMDL
