MODEL 1
REMARK VINA RESULT:      -6.9      0.000      0.000
REMARK  7 active torsions:
REMARK  status: ('A' for Active; 'I' for Inactive)
REMARK    1  A    between atoms: C2_2  and  N1_3 
REMARK    2  A    between atoms: N1_3  and  C3_4 
REMARK    3  A    between atoms: N1_3  and  C5_6 
REMARK    4  A    between atoms: C5_6  and  C6_7 
REMARK    5  A    between atoms: C6_7  and  N2_8 
REMARK    6  A    between atoms: C8_10  and  N3_11 
REMARK    7  A    between atoms: C9_12  and  C10_13 
ROOT
HETATM    1  N2  UNL     1      21.891   3.779  50.547  1.00  0.00    -0.380 N 
HETATM    2  C7  UNL     1      21.984   3.246  49.206  1.00  0.00     0.162 C 
HETATM    3  C8  UNL     1      22.177   1.768  49.484  1.00  0.00     0.267 C 
HETATM    4  C9  UNL     1      21.396   1.577  50.737  1.00  0.00    -0.006 C 
HETATM    5  C18 UNL     1      21.239   2.767  51.346  1.00  0.00     0.009 C 
HETATM    6  C19 UNL     1      20.560   3.095  52.598  1.00  0.00     0.068 C 
ENDROOT
BRANCH   4   7
HETATM    7  C10 UNL     1      20.918   0.281  51.195  1.00  0.00     0.146 C 
HETATM    8  C11 UNL     1      19.554   0.078  51.584  1.00  0.00     0.235 C 
HETATM    9  O1  UNL     1      18.452   0.099  50.956  1.00  0.00    -0.272 OA
HETATM   10  N4  UNL     1      19.419  -0.214  53.002  1.00  0.00    -0.326 N 
HETATM   11  C12 UNL     1      20.779  -0.342  53.467  1.00  0.00     0.042 A 
HETATM   12  H21 UNL     1      18.581  -0.325  53.630  1.00  0.00     0.169 HD
HETATM   13  C13 UNL     1      21.234  -0.688  54.721  1.00  0.00     0.032 A 
HETATM   14  C17 UNL     1      21.677  -0.133  52.403  1.00  0.00    -0.012 A 
HETATM   15  C14 UNL     1      22.565  -0.856  55.028  1.00  0.00     0.026 A 
HETATM   16  C15 UNL     1      23.493  -0.661  53.994  1.00  0.00     0.034 A 
HETATM   17 CL1  UNL     1      25.195  -0.864  54.331  1.00  0.00    -0.084 Cl
HETATM   18  C16 UNL     1      22.997  -0.314  52.756  1.00  0.00     0.034 A 
ENDBRANCH   4   7
BRANCH   3  19
HETATM   19  N3  UNL     1      21.545   1.008  48.426  1.00  0.00     0.088 N 
HETATM   20  H18 UNL     1      20.527   1.107  48.468  1.00  0.00     0.313 HD
HETATM   21  H19 UNL     1      21.869   1.266  47.487  1.00  0.00     0.313 HD
ENDBRANCH   3  19
BRANCH   1  22
HETATM   22  C6  UNL     1      22.400   5.125  50.918  1.00  0.00     0.153 C 
BRANCH  22  23
HETATM   23  C5  UNL     1      23.753   4.907  51.465  1.00  0.00     0.292 C 
BRANCH  23  24
HETATM   24  N1  UNL     1      24.586   3.901  50.919  1.00  0.00     0.089 N 
BRANCH  24  25
HETATM   25  C2  UNL     1      25.651   4.610  50.181  1.00  0.00     0.268 C 
HETATM   26  C1  UNL     1      26.596   3.682  49.492  1.00  0.00     0.037 C 
ENDBRANCH  24  25
BRANCH  24  27
HETATM   27  C3  UNL     1      25.132   2.920  51.786  1.00  0.00     0.268 C 
HETATM   28  C4  UNL     1      24.565   2.881  53.179  1.00  0.00     0.037 C 
ENDBRANCH  24  27
ENDBRANCH  23  24
ENDBRANCH  22  23
ENDBRANCH   1  22
TORSDOF 7
ENDMDL
MODEL 2
REMARK VINA RESULT:      -6.6      2.513      5.496
REMARK  7 active torsions:
REMARK  status: ('A' for Active; 'I' for Inactive)
REMARK    1  A    between atoms: C2_2  and  N1_3 
REMARK    2  A    between atoms: N1_3  and  C3_4 
REMARK    3  A    between atoms: N1_3  and  C5_6 
REMARK    4  A    between atoms: C5_6  and  C6_7 
REMARK    5  A    between atoms: C6_7  and  N2_8 
REMARK    6  A    between atoms: C8_10  and  N3_11 
REMARK    7  A    between atoms: C9_12  and  C10_13 
ROOT
HETATM    1  N2  UNL     1      21.527   3.224  51.720  1.00  0.00    -0.380 N 
HETATM    2  C7  UNL     1      21.743   4.618  52.042  1.00  0.00     0.162 C 
HETATM    3  C8  UNL     1      23.080   4.557  52.754  1.00  0.00     0.267 C 
HETATM    4  C9  UNL     1      23.757   3.428  52.059  1.00  0.00    -0.006 C 
HETATM    5  C18 UNL     1      22.830   2.658  51.460  1.00  0.00     0.009 C 
HETATM    6  C19 UNL     1      22.995   1.438  50.671  1.00  0.00     0.068 C 
ENDROOT
BRANCH   4   7
HETATM    7  C10 UNL     1      25.198   3.225  52.074  1.00  0.00     0.146 C 
HETATM    8  C11 UNL     1      25.973   3.253  50.869  1.00  0.00     0.235 C 
HETATM    9  O1  UNL     1      26.258   4.163  50.033  1.00  0.00    -0.272 OA
HETATM   10  N4  UNL     1      26.553   1.958  50.551  1.00  0.00    -0.326 N 
HETATM   11  C12 UNL     1      26.236   1.140  51.697  1.00  0.00     0.042 A 
HETATM   12  H21 UNL     1      27.088   1.602  49.718  1.00  0.00     0.169 HD
HETATM   13  C13 UNL     1      26.610  -0.162  51.958  1.00  0.00     0.032 A 
HETATM   14  C17 UNL     1      25.508   1.887  52.642  1.00  0.00    -0.012 A 
HETATM   15  C14 UNL     1      26.312  -0.818  53.130  1.00  0.00     0.026 A 
HETATM   16  C15 UNL     1      25.590  -0.106  54.100  1.00  0.00     0.034 A 
HETATM   17 CL1  UNL     1      25.188  -0.893  55.607  1.00  0.00    -0.084 Cl
HETATM   18  C16 UNL     1      25.235   1.191  53.799  1.00  0.00     0.034 A 
ENDBRANCH   4   7
BRANCH   3  19
HETATM   19  N3  UNL     1      23.812   5.775  52.475  1.00  0.00     0.088 N 
HETATM   20  H18 UNL     1      23.177   6.515  52.161  1.00  0.00     0.313 HD
HETATM   21  H19 UNL     1      24.357   6.117  53.274  1.00  0.00     0.313 HD
ENDBRANCH   3  19
BRANCH   1  22
HETATM   22  C6  UNL     1      20.178   2.602  51.691  1.00  0.00     0.153 C 
BRANCH  22  23
HETATM   23  C5  UNL     1      20.181   1.584  52.760  1.00  0.00     0.292 C 
BRANCH  23  24
HETATM   24  N1  UNL     1      19.880   0.235  52.457  1.00  0.00     0.089 N 
BRANCH  24  25
HETATM   25  C2  UNL     1      20.509  -0.573  53.521  1.00  0.00     0.268 C 
HETATM   26  C1  UNL     1      21.691   0.100  54.137  1.00  0.00     0.037 C 
ENDBRANCH  24  25
BRANCH  24  27
HETATM   27  C3  UNL     1      18.524  -0.138  52.267  1.00  0.00     0.268 C 
HETATM   28  C4  UNL     1      18.043  -1.309  53.082  1.00  0.00     0.037 C 
ENDBRANCH  24  27
ENDBRANCH  23  24
ENDBRANCH  22  23
ENDBRANCH   1  22
TORSDOF 7
ENDMDL
MODEL 3
REMARK VINA RESULT:      -6.6      2.971      4.940
REMARK  7 active torsions:
REMARK  status: ('A' for Active; 'I' for Inactive)
REMARK    1  A    between atoms: C2_2  and  N1_3 
REMARK    2  A    between atoms: N1_3  and  C3_4 
REMARK    3  A    between atoms: N1_3  and  C5_6 
REMARK    4  A    between atoms: C5_6  and  C6_7 
REMARK    5  A    between atoms: C6_7  and  N2_8 
REMARK    6  A    between atoms: C8_10  and  N3_11 
REMARK    7  A    between atoms: C9_12  and  C10_13 
ROOT
HETATM    1  N2  UNL     1      24.378   4.657  50.294  1.00  0.00    -0.380 N 
HETATM    2  C7  UNL     1      24.021   5.677  51.256  1.00  0.00     0.162 C 
HETATM    3  C8  UNL     1      23.524   4.836  52.415  1.00  0.00     0.267 C 
HETATM    4  C9  UNL     1      24.371   3.616  52.305  1.00  0.00    -0.006 C 
HETATM    5  C18 UNL     1      24.861   3.529  51.055  1.00  0.00     0.009 C 
HETATM    6  C19 UNL     1      25.728   2.514  50.459  1.00  0.00     0.068 C 
ENDROOT
BRANCH   4   7
HETATM    7  C10 UNL     1      24.584   2.686  53.405  1.00  0.00     0.146 C 
HETATM    8  C11 UNL     1      25.853   2.056  53.620  1.00  0.00     0.235 C 
HETATM    9  O1  UNL     1      26.999   2.486  53.954  1.00  0.00    -0.272 OA
HETATM   10  N4  UNL     1      25.802   0.619  53.408  1.00  0.00    -0.326 N 
HETATM   11  C12 UNL     1      24.400   0.343  53.200  1.00  0.00     0.042 A 
HETATM   12  H21 UNL     1      26.546  -0.126  53.390  1.00  0.00     0.169 HD
HETATM   13  C13 UNL     1      23.776  -0.875  53.025  1.00  0.00     0.032 A 
HETATM   14  C17 UNL     1      23.655   1.534  53.272  1.00  0.00    -0.012 A 
HETATM   15  C14 UNL     1      22.413  -1.021  52.913  1.00  0.00     0.026 A 
HETATM   16  C15 UNL     1      21.633   0.143  52.984  1.00  0.00     0.034 A 
HETATM   17 CL1  UNL     1      19.896   0.011  52.849  1.00  0.00    -0.084 Cl
HETATM   18  C16 UNL     1      22.295   1.339  53.157  1.00  0.00     0.034 A 
ENDBRANCH   4   7
BRANCH   3  19
HETATM   19  N3  UNL     1      23.847   5.511  53.654  1.00  0.00     0.088 N 
HETATM   20  H18 UNL     1      23.227   6.311  53.803  1.00  0.00     0.313 HD
HETATM   21  H19 UNL     1      23.808   4.899  54.476  1.00  0.00     0.313 HD
ENDBRANCH   3  19
BRANCH   1  22
HETATM   22  C6  UNL     1      24.235   4.845  48.828  1.00  0.00     0.153 C 
BRANCH  22  23
HETATM   23  C5  UNL     1      22.786   4.784  48.553  1.00  0.00     0.292 C 
BRANCH  23  24
HETATM   24  N1  UNL     1      22.205   3.588  48.069  1.00  0.00     0.089 N 
BRANCH  24  25
HETATM   25  C2  UNL     1      21.570   2.942  49.235  1.00  0.00     0.268 C 
HETATM   26  C1  UNL     1      22.088   1.565  49.489  1.00  0.00     0.037 C 
ENDBRANCH  24  25
BRANCH  24  27
HETATM   27  C3  UNL     1      21.308   3.657  46.973  1.00  0.00     0.268 C 
HETATM   28  C4  UNL     1      21.938   3.703  45.607  1.00  0.00     0.037 C 
ENDBRANCH  24  27
ENDBRANCH  23  24
ENDBRANCH  22  23
ENDBRANCH   1  22
TORSDOF 7
ENDMDL
MODEL 4
REMARK VINA RESULT:      -6.4      2.705      5.595
REMARK  7 active torsions:
REMARK  status: ('A' for Active; 'I' for Inactive)
REMARK    1  A    between atoms: C2_2  and  N1_3 
REMARK    2  A    between atoms: N1_3  and  C3_4 
REMARK    3  A    between atoms: N1_3  and  C5_6 
REMARK    4  A    between atoms: C5_6  and  C6_7 
REMARK    5  A    between atoms: C6_7  and  N2_8 
REMARK    6  A    between atoms: C8_10  and  N3_11 
REMARK    7  A    between atoms: C9_12  and  C10_13 
ROOT
HETATM    1  N2  UNL     1      20.975   3.792  49.489  1.00  0.00    -0.380 N 
HETATM    2  C7  UNL     1      20.581   5.030  50.125  1.00  0.00     0.162 C 
HETATM    3  C8  UNL     1      21.528   5.075  51.307  1.00  0.00     0.267 C 
HETATM    4  C9  UNL     1      22.743   4.407  50.764  1.00  0.00    -0.006 C 
HETATM    5  C18 UNL     1      22.398   3.660  49.700  1.00  0.00     0.009 C 
HETATM    6  C19 UNL     1      23.227   2.816  48.841  1.00  0.00     0.068 C 
ENDROOT
BRANCH   4   7
HETATM    7  C10 UNL     1      24.069   4.558  51.345  1.00  0.00     0.146 C 
HETATM    8  C11 UNL     1      25.159   5.109  50.595  1.00  0.00     0.235 C 
HETATM    9  O1  UNL     1      25.399   6.258  50.115  1.00  0.00    -0.272 OA
HETATM   10  N4  UNL     1      26.206   4.133  50.340  1.00  0.00    -0.326 N 
HETATM   11  C12 UNL     1      25.800   2.974  51.099  1.00  0.00     0.042 A 
HETATM   12  H21 UNL     1      27.084   4.165  49.760  1.00  0.00     0.169 HD
HETATM   13  C13 UNL     1      26.467   1.780  51.275  1.00  0.00     0.032 A 
HETATM   14  C17 UNL     1      24.586   3.229  51.763  1.00  0.00    -0.012 A 
HETATM   15  C14 UNL     1      26.015   0.769  52.091  1.00  0.00     0.026 A 
HETATM   16  C15 UNL     1      24.808   0.985  52.774  1.00  0.00     0.034 A 
HETATM   17 CL1  UNL     1      24.192  -0.266  53.824  1.00  0.00    -0.084 Cl
HETATM   18  C16 UNL     1      24.173   2.191  52.569  1.00  0.00     0.034 A 
ENDBRANCH   4   7
BRANCH   3  19
HETATM   19  N3  UNL     1      21.851   6.457  51.594  1.00  0.00     0.088 N 
HETATM   20  H18 UNL     1      22.822   6.662  51.340  1.00  0.00     0.313 HD
HETATM   21  H19 UNL     1      21.233   7.128  51.123  1.00  0.00     0.313 HD
ENDBRANCH   3  19
BRANCH   1  22
HETATM   22  C6  UNL     1      20.015   2.907  48.781  1.00  0.00     0.153 C 
BRANCH  22  23
HETATM   23  C5  UNL     1      19.117   2.371  49.823  1.00  0.00     0.292 C 
BRANCH  23  24
HETATM   24  N1  UNL     1      19.155   0.996  50.154  1.00  0.00     0.089 N 
BRANCH  24  25
HETATM   25  C2  UNL     1      19.994   0.891  51.364  1.00  0.00     0.268 C 
HETATM   26  C1  UNL     1      21.341   0.309  51.088  1.00  0.00     0.037 C 
ENDBRANCH  24  25
BRANCH  24  27
HETATM   27  C3  UNL     1      17.932   0.298  50.319  1.00  0.00     0.268 C 
HETATM   28  C4  UNL     1      17.747  -0.407  51.636  1.00  0.00     0.037 C 
ENDBRANCH  24  27
ENDBRANCH  23  24
ENDBRANCH  22  23
ENDBRANCH   1  22
TORSDOF 7
ENDMDL
MODEL 5
REMARK VINA RESULT:      -6.4      3.355      6.841
REMARK  7 active torsions:
REMARK  status: ('A' for Active; 'I' for Inactive)
REMARK    1  A    between atoms: C2_2  and  N1_3 
REMARK    2  A    between atoms: N1_3  and  C3_4 
REMARK    3  A    between atoms: N1_3  and  C5_6 
REMARK    4  A    between atoms: C5_6  and  C6_7 
REMARK    5  A    between atoms: C6_7  and  N2_8 
REMARK    6  A    between atoms: C8_10  and  N3_11 
REMARK    7  A    between atoms: C9_12  and  C10_13 
ROOT
HETATM    1  N2  UNL     1      21.602   2.720  51.724  1.00  0.00    -0.380 N 
HETATM    2  C7  UNL     1      22.124   3.866  52.436  1.00  0.00     0.162 C 
HETATM    3  C8  UNL     1      23.604   3.766  52.121  1.00  0.00     0.267 C 
HETATM    4  C9  UNL     1      23.597   3.178  50.754  1.00  0.00    -0.006 C 
HETATM    5  C18 UNL     1      22.416   2.569  50.541  1.00  0.00     0.009 C 
HETATM    6  C19 UNL     1      21.936   1.843  49.366  1.00  0.00     0.068 C 
ENDROOT
BRANCH   4   7
HETATM    7  C10 UNL     1      24.726   3.261  49.839  1.00  0.00     0.146 C 
HETATM    8  C11 UNL     1      26.077   3.156  50.302  1.00  0.00     0.235 C 
HETATM    9  O1  UNL     1      26.755   2.217  50.820  1.00  0.00    -0.272 OA
HETATM   10  N4  UNL     1      26.819   4.396  50.135  1.00  0.00    -0.326 N 
HETATM   11  C12 UNL     1      25.918   5.249  49.398  1.00  0.00     0.042 A 
HETATM   12  H21 UNL     1      27.781   4.697  50.440  1.00  0.00     0.169 HD
HETATM   13  C13 UNL     1      26.139   6.518  48.905  1.00  0.00     0.032 A 
HETATM   14  C17 UNL     1      24.709   4.574  49.143  1.00  0.00    -0.012 A 
HETATM   15  C14 UNL     1      25.224   7.208  48.144  1.00  0.00     0.026 A 
HETATM   16  C15 UNL     1      24.007   6.568  47.864  1.00  0.00     0.034 A 
HETATM   17 CL1  UNL     1      22.813   7.401  46.899  1.00  0.00    -0.084 Cl
HETATM   18  C16 UNL     1      23.825   5.302  48.376  1.00  0.00     0.034 A 
ENDBRANCH   4   7
BRANCH   3  19
HETATM   19  N3  UNL     1      24.155   5.103  52.045  1.00  0.00     0.088 N 
HETATM   20  H18 UNL     1      23.749   5.618  51.258  1.00  0.00     0.313 HD
HETATM   21  H19 UNL     1      24.025   5.649  52.905  1.00  0.00     0.313 HD
ENDBRANCH   3  19
BRANCH   1  22
HETATM   22  C6  UNL     1      20.445   1.926  52.211  1.00  0.00     0.153 C 
BRANCH  22  23
HETATM   23  C5  UNL     1      20.981   0.590  52.536  1.00  0.00     0.292 C 
BRANCH  23  24
HETATM   24  N1  UNL     1      22.050   0.458  53.454  1.00  0.00     0.089 N 
BRANCH  24  25
HETATM   25  C2  UNL     1      21.473  -0.158  54.666  1.00  0.00     0.268 C 
HETATM   26  C1  UNL     1      21.299  -1.635  54.540  1.00  0.00     0.037 C 
ENDBRANCH  24  25
BRANCH  24  27
HETATM   27  C3  UNL     1      23.224  -0.224  53.045  1.00  0.00     0.268 C 
HETATM   28  C4  UNL     1      24.521   0.510  53.255  1.00  0.00     0.037 C 
ENDBRANCH  24  27
ENDBRANCH  23  24
ENDBRANCH  22  23
ENDBRANCH   1  22
TORSDOF 7
ENDMDL
MODEL 6
REMARK VINA RESULT:      -6.1      3.872      6.087
REMARK  7 active torsions:
REMARK  status: ('A' for Active; 'I' for Inactive)
REMARK    1  A    between atoms: C2_2  and  N1_3 
REMARK    2  A    between atoms: N1_3  and  C3_4 
REMARK    3  A    between atoms: N1_3  and  C5_6 
REMARK    4  A    between atoms: C5_6  and  C6_7 
REMARK    5  A    between atoms: C6_7  and  N2_8 
REMARK    6  A    between atoms: C8_10  and  N3_11 
REMARK    7  A    between atoms: C9_12  and  C10_13 
ROOT
HETATM    1  N2  UNL     1      26.408   6.856  49.278  1.00  0.00    -0.380 N 
HETATM    2  C7  UNL     1      25.470   7.061  50.360  1.00  0.00     0.162 C 
HETATM    3  C8  UNL     1      24.545   5.873  50.185  1.00  0.00     0.267 C 
HETATM    4  C9  UNL     1      25.466   4.831  49.655  1.00  0.00    -0.006 C 
HETATM    5  C18 UNL     1      26.551   5.427  49.127  1.00  0.00     0.009 C 
HETATM    6  C19 UNL     1      27.722   4.836  48.480  1.00  0.00     0.068 C 
ENDROOT
BRANCH   4   7
HETATM    7  C10 UNL     1      25.180   3.405  49.707  1.00  0.00     0.146 C 
HETATM    8  C11 UNL     1      23.838   2.906  49.663  1.00  0.00     0.235 C 
HETATM    9  O1  UNL     1      22.932   2.906  48.775  1.00  0.00    -0.272 OA
HETATM   10  N4  UNL     1      23.443   2.265  50.907  1.00  0.00    -0.326 N 
HETATM   11  C12 UNL     1      24.654   2.242  51.691  1.00  0.00     0.042 A 
HETATM   12  H21 UNL     1      22.525   1.878  51.250  1.00  0.00     0.169 HD
HETATM   13  C13 UNL     1      24.869   1.679  52.932  1.00  0.00     0.032 A 
HETATM   14  C17 UNL     1      25.709   2.836  50.974  1.00  0.00    -0.012 A 
HETATM   15  C14 UNL     1      26.097   1.650  53.552  1.00  0.00     0.026 A 
HETATM   16  C15 UNL     1      27.176   2.229  52.867  1.00  0.00     0.034 A 
HETATM   17 CL1  UNL     1      28.757   2.217  53.610  1.00  0.00    -0.084 Cl
HETATM   18  C16 UNL     1      26.919   2.782  51.631  1.00  0.00     0.034 A 
ENDBRANCH   4   7
BRANCH   3  19
HETATM   19  N3  UNL     1      24.074   5.453  51.488  1.00  0.00     0.088 N 
HETATM   20  H18 UNL     1      23.101   5.736  51.630  1.00  0.00     0.313 HD
HETATM   21  H19 UNL     1      24.156   4.442  51.646  1.00  0.00     0.313 HD
ENDBRANCH   3  19
BRANCH   1  22
HETATM   22  C6  UNL     1      27.041   7.976  48.536  1.00  0.00     0.153 C 
BRANCH  22  23
HETATM   23  C5  UNL     1      28.194   8.401  49.354  1.00  0.00     0.292 C 
BRANCH  23  24
HETATM   24  N1  UNL     1      29.458   8.600  48.751  1.00  0.00     0.089 N 
BRANCH  24  25
HETATM   25  C2  UNL     1      30.113   9.675  49.523  1.00  0.00     0.268 C 
HETATM   26  C1  UNL     1      30.690  10.744  48.655  1.00  0.00     0.037 C 
ENDBRANCH  24  25
BRANCH  24  27
HETATM   27  C3  UNL     1      30.323   7.487  48.590  1.00  0.00     0.268 C 
HETATM   28  C4  UNL     1      30.513   6.999  47.179  1.00  0.00     0.037 C 
ENDBRANCH  24  27
ENDBRANCH  23  24
ENDBRANCH  22  23
ENDBRANCH   1  22
TORSDOF 7
ENDMDL
MODEL 7
REMARK VINA RESULT:      -6.0      3.937      7.044
REMARK  7 active torsions:
REMARK  status: ('A' for Active; 'I' for Inactive)
REMARK    1  A    between atoms: C2_2  and  N1_3 
REMARK    2  A    between atoms: N1_3  and  C3_4 
REMARK    3  A    between atoms: N1_3  and  C5_6 
REMARK    4  A    between atoms: C5_6  and  C6_7 
REMARK    5  A    between atoms: C6_7  and  N2_8 
REMARK    6  A    between atoms: C8_10  and  N3_11 
REMARK    7  A    between atoms: C9_12  and  C10_13 
ROOT
HETATM    1  N2  UNL     1      25.736   2.783  51.713  1.00  0.00    -0.380 N 
HETATM    2  C7  UNL     1      24.552   2.577  52.518  1.00  0.00     0.162 C 
HETATM    3  C8  UNL     1      23.860   3.919  52.383  1.00  0.00     0.267 C 
HETATM    4  C9  UNL     1      24.246   4.337  51.008  1.00  0.00    -0.006 C 
HETATM    5  C18 UNL     1      25.348   3.661  50.633  1.00  0.00     0.009 C 
HETATM    6  C19 UNL     1      26.109   3.729  49.387  1.00  0.00     0.068 C 
ENDROOT
BRANCH   4   7
HETATM    7  C10 UNL     1      23.522   5.340  50.240  1.00  0.00     0.146 C 
HETATM    8  C11 UNL     1      22.813   5.001  49.043  1.00  0.00     0.235 C 
HETATM    9  O1  UNL     1      21.790   4.290  48.802  1.00  0.00    -0.272 OA
HETATM   10  N4  UNL     1      23.399   5.609  47.859  1.00  0.00    -0.326 N 
HETATM   11  C12 UNL     1      24.426   6.479  48.382  1.00  0.00     0.042 A 
HETATM   12  H21 UNL     1      23.198   5.507  46.831  1.00  0.00     0.169 HD
HETATM   13  C13 UNL     1      25.246   7.355  47.701  1.00  0.00     0.032 A 
HETATM   14  C17 UNL     1      24.463   6.397  49.787  1.00  0.00    -0.012 A 
HETATM   15  C14 UNL     1      26.140   8.197  48.320  1.00  0.00     0.026 A 
HETATM   16  C15 UNL     1      26.205   8.148  49.721  1.00  0.00     0.034 A 
HETATM   17 CL1  UNL     1      27.323   9.199  50.556  1.00  0.00    -0.084 Cl
HETATM   18  C16 UNL     1      25.371   7.259  50.363  1.00  0.00     0.034 A 
ENDBRANCH   4   7
BRANCH   3  19
HETATM   19  N3  UNL     1      22.428   3.711  52.416  1.00  0.00     0.088 N 
HETATM   20  H18 UNL     1      22.148   3.005  51.729  1.00  0.00     0.313 HD
HETATM   21  H19 UNL     1      22.075   3.436  53.340  1.00  0.00     0.313 HD
ENDBRANCH   3  19
BRANCH   1  22
HETATM   22  C6  UNL     1      27.046   2.160  52.030  1.00  0.00     0.153 C 
BRANCH  22  23
HETATM   23  C5  UNL     1      26.777   0.717  52.192  1.00  0.00     0.292 C 
BRANCH  23  24
HETATM   24  N1  UNL     1      27.277   0.024  53.320  1.00  0.00     0.089 N 
BRANCH  24  25
HETATM   25  C2  UNL     1      28.647   0.530  53.534  1.00  0.00     0.268 C 
HETATM   26  C1  UNL     1      29.651  -0.564  53.691  1.00  0.00     0.037 C 
ENDBRANCH  24  25
BRANCH  24  27
HETATM   27  C3  UNL     1      26.530   0.049  54.525  1.00  0.00     0.268 C 
HETATM   28  C4  UNL     1      25.204  -0.663  54.494  1.00  0.00     0.037 C 
ENDBRANCH  24  27
ENDBRANCH  23  24
ENDBRANCH  22  23
ENDBRANCH   1  22
TORSDOF 7
ENDMDL
MODEL 8
REMARK VINA RESULT:      -6.0      3.012      4.860
REMARK  7 active torsions:
REMARK  status: ('A' for Active; 'I' for Inactive)
REMARK    1  A    between atoms: C2_2  and  N1_3 
REMARK    2  A    between atoms: N1_3  and  C3_4 
REMARK    3  A    between atoms: N1_3  and  C5_6 
REMARK    4  A    between atoms: C5_6  and  C6_7 
REMARK    5  A    between atoms: C6_7  and  N2_8 
REMARK    6  A    between atoms: C8_10  and  N3_11 
REMARK    7  A    between atoms: C9_12  and  C10_13 
ROOT
HETATM    1  N2  UNL     1      24.610   5.337  50.062  1.00  0.00    -0.380 N 
HETATM    2  C7  UNL     1      24.431   6.261  51.161  1.00  0.00     0.162 C 
HETATM    3  C8  UNL     1      23.587   5.436  52.112  1.00  0.00     0.267 C 
HETATM    4  C9  UNL     1      24.075   4.054  51.851  1.00  0.00    -0.006 C 
HETATM    5  C18 UNL     1      24.671   4.016  50.645  1.00  0.00     0.009 C 
HETATM    6  C19 UNL     1      25.293   2.895  49.943  1.00  0.00     0.068 C 
ENDROOT
BRANCH   4   7
HETATM    7  C10 UNL     1      23.892   2.949  52.780  1.00  0.00     0.146 C 
HETATM    8  C11 UNL     1      24.862   1.902  52.902  1.00  0.00     0.235 C 
HETATM    9  O1  UNL     1      26.060   1.862  53.318  1.00  0.00    -0.272 OA
HETATM   10  N4  UNL     1      24.352   0.617  52.451  1.00  0.00    -0.326 N 
HETATM   11  C12 UNL     1      22.956   0.868  52.181  1.00  0.00     0.042 A 
HETATM   12  H21 UNL     1      24.806  -0.323  52.317  1.00  0.00     0.169 HD
HETATM   13  C13 UNL     1      21.977  -0.024  51.796  1.00  0.00     0.032 A 
HETATM   14  C17 UNL     1      22.645   2.215  52.444  1.00  0.00    -0.012 A 
HETATM   15  C14 UNL     1      20.654   0.319  51.644  1.00  0.00     0.026 A 
HETATM   16  C15 UNL     1      20.301   1.652  51.900  1.00  0.00     0.034 A 
HETATM   17 CL1  UNL     1      18.633   2.138  51.723  1.00  0.00    -0.084 Cl
HETATM   18  C16 UNL     1      21.309   2.512  52.281  1.00  0.00     0.034 A 
ENDBRANCH   4   7
BRANCH   3  19
HETATM   19  N3  UNL     1      23.930   5.797  53.471  1.00  0.00     0.088 N 
HETATM   20  H18 UNL     1      23.419   6.634  53.764  1.00  0.00     0.313 HD
HETATM   21  H19 UNL     1      23.759   5.045  54.150  1.00  0.00     0.313 HD
ENDBRANCH   3  19
BRANCH   1  22
HETATM   22  C6  UNL     1      24.702   5.775  48.646  1.00  0.00     0.153 C 
BRANCH  22  23
HETATM   23  C5  UNL     1      23.312   5.844  48.154  1.00  0.00     0.292 C 
BRANCH  23  24
HETATM   24  N1  UNL     1      22.377   4.849  48.525  1.00  0.00     0.089 N 
BRANCH  24  25
HETATM   25  C2  UNL     1      21.084   5.543  48.687  1.00  0.00     0.268 C 
HETATM   26  C1  UNL     1      20.514   5.396  50.058  1.00  0.00     0.037 C 
ENDBRANCH  24  25
BRANCH  24  27
HETATM   27  C3  UNL     1      22.240   3.699  47.705  1.00  0.00     0.268 C 
HETATM   28  C4  UNL     1      22.067   2.390  48.428  1.00  0.00     0.037 C 
ENDBRANCH  24  27
ENDBRANCH  23  24
ENDBRANCH  22  23
ENDBRANCH   1  22
TORSDOF 7
ENDMDL
MODEL 9
REMARK VINA RESULT:      -6.0      3.355      6.965
REMARK  7 active torsions:
REMARK  status: ('A' for Active; 'I' for Inactive)
REMARK    1  A    between atoms: C2_2  and  N1_3 
REMARK    2  A    between atoms: N1_3  and  C3_4 
REMARK    3  A    between atoms: N1_3  and  C5_6 
REMARK    4  A    between atoms: C5_6  and  C6_7 
REMARK    5  A    between atoms: C6_7  and  N2_8 
REMARK    6  A    between atoms: C8_10  and  N3_11 
REMARK    7  A    between atoms: C9_12  and  C10_13 
ROOT
HETATM    1  N2  UNL     1      21.978   1.892  51.150  1.00  0.00    -0.380 N 
HETATM    2  C7  UNL     1      21.688   1.394  49.822  1.00  0.00     0.162 C 
HETATM    3  C8  UNL     1      22.132   2.560  48.961  1.00  0.00     0.267 C 
HETATM    4  C9  UNL     1      23.265   3.121  49.748  1.00  0.00    -0.006 C 
HETATM    5  C18 UNL     1      23.156   2.718  51.028  1.00  0.00     0.009 C 
HETATM    6  C19 UNL     1      24.012   3.011  52.176  1.00  0.00     0.068 C 
ENDROOT
BRANCH   4   7
HETATM    7  C10 UNL     1      24.291   3.980  49.177  1.00  0.00     0.146 C 
HETATM    8  C11 UNL     1      25.670   3.852  49.546  1.00  0.00     0.235 C 
HETATM    9  O1  UNL     1      26.541   2.946  49.376  1.00  0.00    -0.272 OA
HETATM   10  N4  UNL     1      26.162   5.014  50.267  1.00  0.00    -0.326 N 
HETATM   11  C12 UNL     1      25.071   5.957  50.202  1.00  0.00     0.042 A 
HETATM   12  H21 UNL     1      27.073   5.218  50.754  1.00  0.00     0.169 HD
HETATM   13  C13 UNL     1      25.024   7.257  50.661  1.00  0.00     0.032 A 
HETATM   14  C17 UNL     1      23.988   5.400  49.496  1.00  0.00    -0.012 A 
HETATM   15  C14 UNL     1      23.947   8.092  50.472  1.00  0.00     0.026 A 
HETATM   16  C15 UNL     1      22.848   7.575  49.769  1.00  0.00     0.034 A 
HETATM   17 CL1  UNL     1      21.457   8.595  49.499  1.00  0.00    -0.084 Cl
HETATM   18  C16 UNL     1      22.935   6.272  49.328  1.00  0.00     0.034 A 
ENDBRANCH   4   7
BRANCH   3  19
HETATM   19  N3  UNL     1      22.650   2.046  47.711  1.00  0.00     0.088 N 
HETATM   20  H18 UNL     1      22.934   2.811  47.094  1.00  0.00     0.313 HD
HETATM   21  H19 UNL     1      23.438   1.400  47.829  1.00  0.00     0.313 HD
ENDBRANCH   3  19
BRANCH   1  22
HETATM   22  C6  UNL     1      21.154   1.551  52.337  1.00  0.00     0.153 C 
BRANCH  22  23
HETATM   23  C5  UNL     1      20.388   0.346  51.964  1.00  0.00     0.292 C 
BRANCH  23  24
HETATM   24  N1  UNL     1      19.963  -0.564  52.962  1.00  0.00     0.089 N 
BRANCH  24  25
HETATM   25  C2  UNL     1      20.635  -0.144  54.208  1.00  0.00     0.268 C 
HETATM   26  C1  UNL     1      21.582  -1.173  54.732  1.00  0.00     0.037 C 
ENDBRANCH  24  25
BRANCH  24  27
HETATM   27  C3  UNL     1      18.573  -0.752  53.170  1.00  0.00     0.268 C 
HETATM   28  C4  UNL     1      18.150  -2.136  53.582  1.00  0.00     0.037 C 
ENDBRANCH  24  27
ENDBRANCH  23  24
ENDBRANCH  22  23
ENDBRANCH   1  22
TORSDOF 7
ENDMDL
