MODEL 1
REMARK VINA RESULT:      -8.9      0.000      0.000
REMARK  1 active torsions:
REMARK  status: ('A' for Active; 'I' for Inactive)
REMARK    1  A    between atoms: O1_2  and  C2_3 
ROOT
HETATM    1  C2  UNL     1      26.726   1.431  53.682  1.00  0.00     0.069 A 
HETATM    2  C3  UNL     1      27.381   2.029  52.629  1.00  0.00     0.037 A 
HETATM    3  C4  UNL     1      26.705   2.438  51.495  1.00  0.00     0.011 A 
HETATM    4  C5  UNL     1      25.344   2.302  51.290  1.00  0.00    -0.047 A 
HETATM    5  C6  UNL     1      24.694   1.709  52.341  1.00  0.00    -0.019 A 
HETATM    6  C7  UNL     1      25.349   1.293  53.480  1.00  0.00     0.049 A 
HETATM    7  C8  UNL     1      23.279   1.414  52.546  1.00  0.00    -0.025 C 
HETATM    8  C9  UNL     1      22.112   2.025  52.541  1.00  0.00     0.012 C 
HETATM    9  C10 UNL     1      20.716   1.700  52.751  1.00  0.00     0.057 C 
HETATM   10  C11 UNL     1      20.512   0.452  53.571  1.00  0.00     0.010 C 
HETATM   11  C12 UNL     1      21.859  -0.008  54.014  1.00  0.00    -0.014 C 
HETATM   12  C13 UNL     1      21.878  -1.397  54.605  1.00  0.00     0.010 C 
HETATM   13  C14 UNL     1      22.847   0.037  52.888  1.00  0.00     0.045 C 
HETATM   14  N1  UNL     1      22.621   3.307  52.216  1.00  0.00    -0.393 N 
HETATM   15  C15 UNL     1      23.539   4.322  52.681  1.00  0.00     0.119 C 
HETATM   16  C16 UNL     1      23.668   5.430  51.707  1.00  0.00     0.020 C 
HETATM   17  C17 UNL     1      23.838   5.114  50.276  1.00  0.00     0.002 C 
HETATM   18  C18 UNL     1      24.902   4.282  49.747  1.00  0.00     0.005 C 
HETATM   19  C19 UNL     1      24.982   2.816  49.981  1.00  0.00     0.039 C 
HETATM   20  H17 UNL     1      22.080   3.476  51.317  1.00  0.00     0.159 HD
ENDROOT
BRANCH   1  21
HETATM   21  O1  UNL     1      27.409   1.022  54.816  1.00  0.00    -0.356 OA
HETATM   22  C1  UNL     1      28.582   0.258  54.832  1.00  0.00     0.210 C 
ENDBRANCH   1  21
TORSDOF 1
ENDMDL
MODEL 2
REMARK VINA RESULT:      -8.7      2.420      4.571
REMARK  1 active torsions:
REMARK  status: ('A' for Active; 'I' for Inactive)
REMARK    1  A    between atoms: O1_2  and  C2_3 
ROOT
HETATM    1  C2  UNL     1      23.341   2.234  50.124  1.00  0.00     0.069 A 
HETATM    2  C3  UNL     1      24.445   3.035  50.317  1.00  0.00     0.037 A 
HETATM    3  C4  UNL     1      25.137   3.038  51.513  1.00  0.00     0.011 A 
HETATM    4  C5  UNL     1      24.818   2.267  52.616  1.00  0.00    -0.047 A 
HETATM    5  C6  UNL     1      23.721   1.469  52.421  1.00  0.00    -0.019 A 
HETATM    6  C7  UNL     1      23.016   1.451  51.237  1.00  0.00     0.049 A 
HETATM    7  C8  UNL     1      23.079   0.494  53.299  1.00  0.00    -0.025 C 
HETATM    8  C9  UNL     1      23.379  -0.579  54.001  1.00  0.00     0.012 C 
HETATM    9  C10 UNL     1      22.713  -1.530  54.867  1.00  0.00     0.057 C 
HETATM   10  C11 UNL     1      21.224  -1.602  54.639  1.00  0.00     0.010 C 
HETATM   11  C12 UNL     1      20.914  -0.720  53.479  1.00  0.00    -0.014 C 
HETATM   12  C13 UNL     1      19.443  -0.444  53.283  1.00  0.00     0.010 C 
HETATM   13  C14 UNL     1      21.628   0.593  53.586  1.00  0.00     0.045 C 
HETATM   14  N1  UNL     1      24.755  -0.593  53.664  1.00  0.00    -0.393 N 
HETATM   15  C15 UNL     1      25.653  -0.660  52.533  1.00  0.00     0.119 C 
HETATM   16  C16 UNL     1      27.065  -0.491  52.945  1.00  0.00     0.020 C 
HETATM   17  C17 UNL     1      27.414   0.584  53.892  1.00  0.00     0.002 C 
HETATM   18  C18 UNL     1      27.119   1.988  53.675  1.00  0.00     0.005 C 
HETATM   19  C19 UNL     1      25.740   2.544  53.703  1.00  0.00     0.039 C 
HETATM   20  H17 UNL     1      25.166  -0.527  54.642  1.00  0.00     0.159 HD
ENDROOT
BRANCH   1  21
HETATM   21  O1  UNL     1      22.651   2.236  48.923  1.00  0.00    -0.356 OA
HETATM   22  C1  UNL     1      21.632   1.345  48.565  1.00  0.00     0.210 C 
ENDBRANCH   1  21
TORSDOF 1
ENDMDL
MODEL 3
REMARK VINA RESULT:      -7.8      2.399      3.979
REMARK  1 active torsions:
REMARK  status: ('A' for Active; 'I' for Inactive)
REMARK    1  A    between atoms: O1_2  and  C2_3 
ROOT
HETATM    1  C2  UNL     1      24.463   2.885  50.472  1.00  0.00     0.069 A 
HETATM    2  C3  UNL     1      23.743   3.075  49.313  1.00  0.00     0.037 A 
HETATM    3  C4  UNL     1      22.535   2.440  49.101  1.00  0.00     0.011 A 
HETATM    4  C5  UNL     1      21.927   1.572  49.990  1.00  0.00    -0.047 A 
HETATM    5  C6  UNL     1      22.644   1.388  51.144  1.00  0.00    -0.019 A 
HETATM    6  C7  UNL     1      23.852   2.010  51.375  1.00  0.00     0.049 A 
HETATM    7  C8  UNL     1      22.351   0.596  52.335  1.00  0.00    -0.025 C 
HETATM    8  C9  UNL     1      21.404   0.450  53.239  1.00  0.00     0.012 C 
HETATM    9  C10 UNL     1      21.144  -0.350  54.418  1.00  0.00     0.057 C 
HETATM   10  C11 UNL     1      22.396  -0.895  55.056  1.00  0.00     0.010 C 
HETATM   11  C12 UNL     1      23.554  -0.328  54.308  1.00  0.00    -0.014 C 
HETATM   12  C13 UNL     1      24.877  -0.982  54.622  1.00  0.00     0.010 C 
HETATM   13  C14 UNL     1      23.333  -0.399  52.827  1.00  0.00     0.045 C 
HETATM   14  N1  UNL     1      20.533   1.426  52.695  1.00  0.00    -0.393 N 
HETATM   15  C15 UNL     1      20.464   2.828  52.347  1.00  0.00     0.119 C 
HETATM   16  C16 UNL     1      19.194   3.158  51.659  1.00  0.00     0.020 C 
HETATM   17  C17 UNL     1      18.708   2.274  50.583  1.00  0.00     0.002 C 
HETATM   18  C18 UNL     1      19.474   1.937  49.398  1.00  0.00     0.005 C 
HETATM   19  C19 UNL     1      20.684   1.072  49.430  1.00  0.00     0.039 C 
HETATM   20  H17 UNL     1      19.683   0.812  52.524  1.00  0.00     0.159 HD
ENDROOT
BRANCH   1  21
HETATM   21  O1  UNL     1      25.675   3.524  50.680  1.00  0.00    -0.356 OA
HETATM   22  C1  UNL     1      26.551   3.959  49.678  1.00  0.00     0.210 C 
ENDBRANCH   1  21
TORSDOF 1
ENDMDL
MODEL 4
REMARK VINA RESULT:      -7.6      2.286      5.065
REMARK  1 active torsions:
REMARK  status: ('A' for Active; 'I' for Inactive)
REMARK    1  A    between atoms: O1_2  and  C2_3 
ROOT
HETATM    1  C2  UNL     1      23.642   5.079  51.221  1.00  0.00     0.069 A 
HETATM    2  C3  UNL     1      22.629   4.939  50.299  1.00  0.00     0.037 A 
HETATM    3  C4  UNL     1      22.214   3.694  49.865  1.00  0.00     0.011 A 
HETATM    4  C5  UNL     1      22.743   2.488  50.288  1.00  0.00    -0.047 A 
HETATM    5  C6  UNL     1      23.749   2.631  51.209  1.00  0.00    -0.019 A 
HETATM    6  C7  UNL     1      24.179   3.862  51.654  1.00  0.00     0.049 A 
HETATM    7  C8  UNL     1      24.538   1.633  51.924  1.00  0.00    -0.025 C 
HETATM    8  C9  UNL     1      24.368   0.581  52.698  1.00  0.00     0.012 C 
HETATM    9  C10 UNL     1      25.180  -0.394  53.397  1.00  0.00     0.057 C 
HETATM   10  C11 UNL     1      26.580   0.087  53.676  1.00  0.00     0.010 C 
HETATM   11  C12 UNL     1      26.656   1.505  53.224  1.00  0.00    -0.014 C 
HETATM   12  C13 UNL     1      28.057   2.064  53.163  1.00  0.00     0.010 C 
HETATM   13  C14 UNL     1      26.019   1.683  51.880  1.00  0.00     0.045 C 
HETATM   14  N1  UNL     1      22.952   0.618  52.684  1.00  0.00    -0.393 N 
HETATM   15  C15 UNL     1      21.829   1.469  53.008  1.00  0.00     0.119 C 
HETATM   16  C16 UNL     1      20.544   0.862  52.588  1.00  0.00     0.020 C 
HETATM   17  C17 UNL     1      20.439   0.258  51.247  1.00  0.00     0.002 C 
HETATM   18  C18 UNL     1      20.719   0.965  50.011  1.00  0.00     0.005 C 
HETATM   19  C19 UNL     1      22.085   1.388  49.607  1.00  0.00     0.039 C 
HETATM   20  H17 UNL     1      22.765  -0.349  52.284  1.00  0.00     0.159 HD
ENDROOT
BRANCH   1  21
HETATM   21  O1  UNL     1      24.055   6.329  51.652  1.00  0.00    -0.356 OA
HETATM   22  C1  UNL     1      23.990   7.513  50.907  1.00  0.00     0.210 C 
ENDBRANCH   1  21
TORSDOF 1
ENDMDL
MODEL 5
REMARK VINA RESULT:      -7.6      2.389      4.951
REMARK  1 active torsions:
REMARK  status: ('A' for Active; 'I' for Inactive)
REMARK    1  A    between atoms: O1_2  and  C2_3 
ROOT
HETATM    1  C2  UNL     1      20.628   1.218  52.472  1.00  0.00     0.069 A 
HETATM    2  C3  UNL     1      19.992   2.436  52.372  1.00  0.00     0.037 A 
HETATM    3  C4  UNL     1      20.700   3.609  52.199  1.00  0.00     0.011 A 
HETATM    4  C5  UNL     1      22.077   3.701  52.110  1.00  0.00    -0.047 A 
HETATM    5  C6  UNL     1      22.708   2.487  52.207  1.00  0.00    -0.019 A 
HETATM    6  C7  UNL     1      22.021   1.305  52.381  1.00  0.00     0.049 A 
HETATM    7  C8  UNL     1      24.123   2.137  52.129  1.00  0.00    -0.025 C 
HETATM    8  C9  UNL     1      25.154   2.286  51.324  1.00  0.00     0.012 C 
HETATM    9  C10 UNL     1      26.556   1.922  51.277  1.00  0.00     0.057 C 
HETATM   10  C11 UNL     1      26.893   0.737  52.146  1.00  0.00     0.010 C 
HETATM   11  C12 UNL     1      25.612   0.230  52.714  1.00  0.00    -0.014 C 
HETATM   12  C13 UNL     1      25.780  -0.773  53.829  1.00  0.00     0.010 C 
HETATM   13  C14 UNL     1      24.756   1.353  53.217  1.00  0.00     0.045 C 
HETATM   14  N1  UNL     1      24.460   3.027  50.336  1.00  0.00    -0.393 N 
HETATM   15  C15 UNL     1      23.330   2.952  49.437  1.00  0.00     0.119 C 
HETATM   16  C16 UNL     1      23.108   4.235  48.731  1.00  0.00     0.020 C 
HETATM   17  C17 UNL     1      23.151   5.495  49.497  1.00  0.00     0.002 C 
HETATM   18  C18 UNL     1      22.316   5.776  50.650  1.00  0.00     0.005 C 
HETATM   19  C19 UNL     1      22.477   5.088  51.958  1.00  0.00     0.039 C 
HETATM   20  H17 UNL     1      25.054   3.908  50.342  1.00  0.00     0.159 HD
ENDROOT
BRANCH   1  21
HETATM   21  O1  UNL     1      19.913   0.044  52.646  1.00  0.00    -0.356 OA
HETATM   22  C1  UNL     1      18.672  -0.249  52.068  1.00  0.00     0.210 C 
ENDBRANCH   1  21
TORSDOF 1
ENDMDL
MODEL 6
REMARK VINA RESULT:      -7.5      1.848      4.897
REMARK  1 active torsions:
REMARK  status: ('A' for Active; 'I' for Inactive)
REMARK    1  A    between atoms: O1_2  and  C2_3 
ROOT
HETATM    1  C2  UNL     1      24.814   0.621  52.423  1.00  0.00     0.069 A 
HETATM    2  C3  UNL     1      24.224  -0.381  53.160  1.00  0.00     0.037 A 
HETATM    3  C4  UNL     1      22.928  -0.269  53.627  1.00  0.00     0.011 A 
HETATM    4  C5  UNL     1      22.101   0.820  53.418  1.00  0.00    -0.047 A 
HETATM    5  C6  UNL     1      22.690   1.814  52.681  1.00  0.00    -0.019 A 
HETATM    6  C7  UNL     1      23.981   1.723  52.207  1.00  0.00     0.049 A 
HETATM    7  C8  UNL     1      22.166   3.094  52.212  1.00  0.00    -0.025 C 
HETATM    8  C9  UNL     1      21.153   3.575  51.522  1.00  0.00     0.012 C 
HETATM    9  C10 UNL     1      20.660   4.861  51.071  1.00  0.00     0.057 C 
HETATM   10  C11 UNL     1      21.732   5.918  51.001  1.00  0.00     0.010 C 
HETATM   11  C12 UNL     1      23.027   5.254  51.326  1.00  0.00    -0.014 C 
HETATM   12  C13 UNL     1      24.167   6.209  51.582  1.00  0.00     0.010 C 
HETATM   13  C14 UNL     1      22.893   4.351  52.514  1.00  0.00     0.045 C 
HETATM   14  N1  UNL     1      20.535   2.323  51.282  1.00  0.00    -0.393 N 
HETATM   15  C15 UNL     1      20.773   1.028  50.686  1.00  0.00     0.119 C 
HETATM   16  C16 UNL     1      19.644   0.100  50.926  1.00  0.00     0.020 C 
HETATM   17  C17 UNL     1      19.060   0.012  52.278  1.00  0.00     0.002 C 
HETATM   18  C18 UNL     1      19.817  -0.310  53.472  1.00  0.00     0.005 C 
HETATM   19  C19 UNL     1      20.822   0.608  54.071  1.00  0.00     0.039 C 
HETATM   20  H17 UNL     1      19.591   2.517  51.730  1.00  0.00     0.159 HD
ENDROOT
BRANCH   1  21
HETATM   21  O1  UNL     1      26.114   0.503  51.958  1.00  0.00    -0.356 OA
HETATM   22  C1  UNL     1      27.155  -0.175  52.605  1.00  0.00     0.210 C 
ENDBRANCH   1  21
TORSDOF 1
ENDMDL
MODEL 7
REMARK VINA RESULT:      -7.4      2.366      5.232
REMARK  1 active torsions:
REMARK  status: ('A' for Active; 'I' for Inactive)
REMARK    1  A    between atoms: O1_2  and  C2_3 
ROOT
HETATM    1  C2  UNL     1      26.426   3.417  49.997  1.00  0.00     0.069 A 
HETATM    2  C3  UNL     1      26.591   2.296  50.781  1.00  0.00     0.037 A 
HETATM    3  C4  UNL     1      25.627   1.900  51.688  1.00  0.00     0.011 A 
HETATM    4  C5  UNL     1      24.428   2.553  51.909  1.00  0.00    -0.047 A 
HETATM    5  C6  UNL     1      24.266   3.666  51.126  1.00  0.00    -0.019 A 
HETATM    6  C7  UNL     1      25.215   4.080  50.216  1.00  0.00     0.049 A 
HETATM    7  C8  UNL     1      23.153   4.606  51.019  1.00  0.00    -0.025 C 
HETATM    8  C9  UNL     1      21.855   4.608  50.792  1.00  0.00     0.012 C 
HETATM    9  C10 UNL     1      20.773   5.565  50.691  1.00  0.00     0.057 C 
HETATM   10  C11 UNL     1      21.240   6.960  50.362  1.00  0.00     0.010 C 
HETATM   11  C12 UNL     1      22.711   6.887  50.128  1.00  0.00    -0.014 C 
HETATM   12  C13 UNL     1      23.397   8.230  50.066  1.00  0.00     0.010 C 
HETATM   13  C14 UNL     1      23.389   6.061  51.179  1.00  0.00     0.045 C 
HETATM   14  N1  UNL     1      21.731   3.203  50.651  1.00  0.00    -0.393 N 
HETATM   15  C15 UNL     1      22.215   2.087  49.870  1.00  0.00     0.119 C 
HETATM   16  C16 UNL     1      21.712   0.796  50.392  1.00  0.00     0.020 C 
HETATM   17  C17 UNL     1      21.754   0.542  51.845  1.00  0.00     0.002 C 
HETATM   18  C18 UNL     1      22.961   0.605  52.648  1.00  0.00     0.005 C 
HETATM   19  C19 UNL     1      23.673   1.875  52.947  1.00  0.00     0.039 C 
HETATM   20  H17 UNL     1      21.025   3.021  51.424  1.00  0.00     0.159 HD
ENDROOT
BRANCH   1  21
HETATM   21  O1  UNL     1      27.397   3.810  49.090  1.00  0.00    -0.356 OA
HETATM   22  C1  UNL     1      27.607   5.117  48.634  1.00  0.00     0.210 C 
ENDBRANCH   1  21
TORSDOF 1
ENDMDL
MODEL 8
REMARK VINA RESULT:      -7.2      5.625      7.688
REMARK  1 active torsions:
REMARK  status: ('A' for Active; 'I' for Inactive)
REMARK    1  A    between atoms: O1_2  and  C2_3 
ROOT
HETATM    1  C2  UNL     1      30.877   5.698  48.030  1.00  0.00     0.069 A 
HETATM    2  C3  UNL     1      31.192   6.617  47.054  1.00  0.00     0.037 A 
HETATM    3  C4  UNL     1      30.237   7.465  46.525  1.00  0.00     0.011 A 
HETATM    4  C5  UNL     1      28.905   7.492  46.897  1.00  0.00    -0.047 A 
HETATM    5  C6  UNL     1      28.596   6.578  47.871  1.00  0.00    -0.019 A 
HETATM    6  C7  UNL     1      29.532   5.722  48.411  1.00  0.00     0.049 A 
HETATM    7  C8  UNL     1      27.338   6.304  48.560  1.00  0.00    -0.025 C 
HETATM    8  C9  UNL     1      26.415   6.932  49.258  1.00  0.00     0.012 C 
HETATM    9  C10 UNL     1      25.170   6.627  49.933  1.00  0.00     0.057 C 
HETATM   10  C11 UNL     1      25.036   5.173  50.307  1.00  0.00     0.010 C 
HETATM   11  C12 UNL     1      26.320   4.507  49.947  1.00  0.00    -0.014 C 
HETATM   12  C13 UNL     1      26.269   2.999  49.986  1.00  0.00     0.010 C 
HETATM   13  C14 UNL     1      26.790   4.927  48.588  1.00  0.00     0.045 C 
HETATM   14  N1  UNL     1      27.020   8.211  49.179  1.00  0.00    -0.393 N 
HETATM   15  C15 UNL     1      28.238   8.920  49.503  1.00  0.00     0.119 C 
HETATM   16  C16 UNL     1      28.217  10.308  48.986  1.00  0.00     0.020 C 
HETATM   17  C17 UNL     1      27.757  10.555  47.606  1.00  0.00     0.002 C 
HETATM   18  C18 UNL     1      28.337   9.932  46.431  1.00  0.00     0.005 C 
HETATM   19  C19 UNL     1      28.189   8.486  46.119  1.00  0.00     0.039 C 
HETATM   20  H17 UNL     1      26.226   8.741  48.712  1.00  0.00     0.159 HD
ENDROOT
BRANCH   1  21
HETATM   21  O1  UNL     1      31.838   4.849  48.556  1.00  0.00    -0.356 OA
HETATM   22  C1  UNL     1      32.614   3.941  47.826  1.00  0.00     0.210 C 
ENDBRANCH   1  21
TORSDOF 1
ENDMDL
MODEL 9
REMARK VINA RESULT:      -7.2      2.928      5.214
REMARK  1 active torsions:
REMARK  status: ('A' for Active; 'I' for Inactive)
REMARK    1  A    between atoms: O1_2  and  C2_3 
ROOT
HETATM    1  C2  UNL     1      18.928   1.987  51.502  1.00  0.00     0.069 A 
HETATM    2  C3  UNL     1      18.903   3.344  51.265  1.00  0.00     0.037 A 
HETATM    3  C4  UNL     1      20.012   4.137  51.492  1.00  0.00     0.011 A 
HETATM    4  C5  UNL     1      21.230   3.684  51.964  1.00  0.00    -0.047 A 
HETATM    5  C6  UNL     1      21.252   2.333  52.197  1.00  0.00    -0.019 A 
HETATM    6  C7  UNL     1      20.158   1.523  51.979  1.00  0.00     0.049 A 
HETATM    7  C8  UNL     1      22.328   1.460  52.656  1.00  0.00    -0.025 C 
HETATM    8  C9  UNL     1      23.566   1.137  52.343  1.00  0.00     0.012 C 
HETATM    9  C10 UNL     1      24.613   0.259  52.824  1.00  0.00     0.057 C 
HETATM   10  C11 UNL     1      24.094  -0.892  53.647  1.00  0.00     0.010 C 
HETATM   11  C12 UNL     1      22.606  -0.821  53.613  1.00  0.00    -0.014 C 
HETATM   12  C13 UNL     1      21.917  -1.720  54.611  1.00  0.00     0.010 C 
HETATM   13  C14 UNL     1      22.122   0.581  53.832  1.00  0.00     0.045 C 
HETATM   14  N1  UNL     1      23.665   2.007  51.229  1.00  0.00    -0.393 N 
HETATM   15  C15 UNL     1      23.053   2.303  49.954  1.00  0.00     0.119 C 
HETATM   16  C16 UNL     1      23.641   3.512  49.332  1.00  0.00     0.020 C 
HETATM   17  C17 UNL     1      23.854   4.715  50.160  1.00  0.00     0.002 C 
HETATM   18  C18 UNL     1      22.806   5.385  50.907  1.00  0.00     0.005 C 
HETATM   19  C19 UNL     1      22.155   4.793  52.106  1.00  0.00     0.039 C 
HETATM   20  H17 UNL     1      24.495   2.589  51.548  1.00  0.00     0.159 HD
ENDROOT
BRANCH   1  21
HETATM   21  O1  UNL     1      17.813   1.197  51.274  1.00  0.00    -0.356 OA
HETATM   22  C1  UNL     1      17.728  -0.182  51.506  1.00  0.00     0.210 C 
ENDBRANCH   1  21
TORSDOF 1
ENDMDL
