MODEL 1
REMARK VINA RESULT:      -9.2      0.000      0.000
REMARK  6 active torsions:
REMARK  status: ('A' for Active; 'I' for Inactive)
REMARK    1  A    between atoms: C2_2  and  O1_3 
REMARK    2  A    between atoms: O1_3  and  C3_4 
REMARK    3  A    between atoms: C3_4  and  C16_21 
REMARK    4  A    between atoms: C4_5  and  C5_6 
REMARK    5  A    between atoms: C7_8  and  N1_9 
REMARK    6  A    between atoms: N1_9  and  C8_10 
ROOT
HETATM    1  C5  UNL     1      24.196  -0.222  53.671  1.00  0.00     0.064 A 
HETATM    2  C6  UNL     1      22.844  -0.355  53.673  1.00  0.00     0.082 A 
HETATM    3  C7  UNL     1      22.072  -0.977  54.625  1.00  0.00     0.131 A 
HETATM    4  N2  UNL     1      22.806  -1.483  55.629  1.00  0.00    -0.224 NA
HETATM    5  C15 UNL     1      24.139  -1.405  55.719  1.00  0.00     0.235 A 
HETATM    6  N3  UNL     1      24.805  -0.783  54.750  1.00  0.00    -0.242 NA
ENDROOT
BRANCH   1   7
HETATM    7  C4  UNL     1      24.916   0.463  52.586  1.00  0.00     0.071 C 
HETATM    8  C3  UNL     1      26.170   0.655  52.303  1.00  0.00     0.103 C 
BRANCH   8   9
HETATM    9  O1  UNL     1      26.497   1.369  51.164  1.00  0.00    -0.349 OA
BRANCH   9  10
HETATM   10  C2  UNL     1      26.538   2.761  51.072  1.00  0.00     0.171 C 
HETATM   11  C1  UNL     1      26.516   3.250  49.636  1.00  0.00     0.034 C 
ENDBRANCH   9  10
ENDBRANCH   8   9
BRANCH   8  12
HETATM   12  C16 UNL     1      27.251   0.131  53.165  1.00  0.00     0.120 C 
HETATM   13  C17 UNL     1      27.975   0.893  54.027  1.00  0.00     0.180 A 
HETATM   14  O2  UNL     1      28.981   1.218  55.049  1.00  0.00    -0.356 OA
HETATM   15  C18 UNL     1      28.870  -0.082  54.724  1.00  0.00     0.192 A 
HETATM   16  C19 UNL     1      29.152  -0.930  53.518  1.00  0.00     0.211 C 
HETATM   17  O3  UNL     1      27.712  -1.224  53.221  1.00  0.00    -0.346 OA
ENDBRANCH   8  12
ENDBRANCH   1   7
BRANCH   3  18
HETATM   18  N1  UNL     1      20.663  -1.039  54.486  1.00  0.00    -0.341 N 
HETATM   19  H8  UNL     1      20.134  -1.400  55.326  1.00  0.00     0.167 HD
BRANCH  18  20
HETATM   20  C8  UNL     1      19.897  -0.684  53.376  1.00  0.00     0.035 A 
HETATM   21  C9  UNL     1      20.290   0.107  52.328  1.00  0.00     0.030 A 
HETATM   22  C10 UNL     1      19.531   0.451  51.251  1.00  0.00     0.011 A 
HETATM   23  C11 UNL     1      18.238  -0.019  51.167  1.00  0.00    -0.040 A 
HETATM   24  C12 UNL     1      17.328   0.296  50.041  1.00  0.00     0.050 C 
HETATM   25  C13 UNL     1      17.774  -0.823  52.190  1.00  0.00     0.042 A 
HETATM   26 CL1  UNL     1      16.138  -1.430  52.107  1.00  0.00    -0.084 Cl
HETATM   27  C14 UNL     1      18.600  -1.125  53.241  1.00  0.00     0.053 A 
ENDBRANCH  18  20
ENDBRANCH   3  18
TORSDOF 6
ENDMDL
MODEL 2
REMARK VINA RESULT:      -8.7      4.569      8.189
REMARK  6 active torsions:
REMARK  status: ('A' for Active; 'I' for Inactive)
REMARK    1  A    between atoms: C2_2  and  O1_3 
REMARK    2  A    between atoms: O1_3  and  C3_4 
REMARK    3  A    between atoms: C3_4  and  C16_21 
REMARK    4  A    between atoms: C4_5  and  C5_6 
REMARK    5  A    between atoms: C7_8  and  N1_9 
REMARK    6  A    between atoms: N1_9  and  C8_10 
ROOT
HETATM    1  C5  UNL     1      25.401   2.395  52.651  1.00  0.00     0.064 A 
HETATM    2  C6  UNL     1      25.630   2.817  51.381  1.00  0.00     0.082 A 
HETATM    3  C7  UNL     1      24.973   3.820  50.708  1.00  0.00     0.131 A 
HETATM    4  N2  UNL     1      24.016   4.395  51.453  1.00  0.00    -0.224 NA
HETATM    5  C15 UNL     1      23.714   4.052  52.711  1.00  0.00     0.235 A 
HETATM    6  N3  UNL     1      24.403   3.068  53.283  1.00  0.00    -0.242 NA
ENDROOT
BRANCH   1   7
HETATM    7  C4  UNL     1      26.169   1.300  53.265  1.00  0.00     0.071 C 
HETATM    8  C3  UNL     1      25.858   0.168  53.823  1.00  0.00     0.103 C 
BRANCH   8   9
HETATM    9  O1  UNL     1      26.870  -0.641  54.306  1.00  0.00    -0.349 OA
BRANCH   9  10
HETATM   10  C2  UNL     1      28.164  -0.214  54.607  1.00  0.00     0.171 C 
HETATM   11  C1  UNL     1      29.209  -0.840  53.703  1.00  0.00     0.034 C 
ENDBRANCH   9  10
ENDBRANCH   8   9
BRANCH   8  12
HETATM   12  C16 UNL     1      24.452  -0.274  53.952  1.00  0.00     0.120 C 
HETATM   13  C17 UNL     1      23.980  -1.020  54.986  1.00  0.00     0.180 A 
HETATM   14  O2  UNL     1      23.007  -1.756  55.806  1.00  0.00    -0.356 OA
HETATM   15  C18 UNL     1      22.513  -1.136  54.720  1.00  0.00     0.192 A 
HETATM   16  C19 UNL     1      22.631  -1.289  53.232  1.00  0.00     0.211 C 
HETATM   17  O3  UNL     1      23.390  -0.012  53.027  1.00  0.00    -0.346 OA
ENDBRANCH   8  12
ENDBRANCH   1   7
BRANCH   3  18
HETATM   18  N1  UNL     1      25.324   4.146  49.374  1.00  0.00    -0.341 N 
HETATM   19  H8  UNL     1      24.843   3.582  48.622  1.00  0.00     0.167 HD
BRANCH  18  20
HETATM   20  C8  UNL     1      26.226   5.118  48.941  1.00  0.00     0.035 A 
HETATM   21  C9  UNL     1      25.958   6.444  48.718  1.00  0.00     0.030 A 
HETATM   22  C10 UNL     1      26.847   7.383  48.290  1.00  0.00     0.011 A 
HETATM   23  C11 UNL     1      28.151   7.007  48.046  1.00  0.00    -0.040 A 
HETATM   24  C12 UNL     1      29.195   7.948  47.578  1.00  0.00     0.050 C 
HETATM   25  C13 UNL     1      28.491   5.684  48.251  1.00  0.00     0.042 A 
HETATM   26 CL1  UNL     1      30.137   5.184  47.947  1.00  0.00    -0.084 Cl
HETATM   27  C14 UNL     1      27.540   4.799  48.682  1.00  0.00     0.053 A 
ENDBRANCH  18  20
ENDBRANCH   3  18
TORSDOF 6
ENDMDL
MODEL 3
REMARK VINA RESULT:      -8.6      4.186      8.048
REMARK  6 active torsions:
REMARK  status: ('A' for Active; 'I' for Inactive)
REMARK    1  A    between atoms: C2_2  and  O1_3 
REMARK    2  A    between atoms: O1_3  and  C3_4 
REMARK    3  A    between atoms: C3_4  and  C16_21 
REMARK    4  A    between atoms: C4_5  and  C5_6 
REMARK    5  A    between atoms: C7_8  and  N1_9 
REMARK    6  A    between atoms: N1_9  and  C8_10 
ROOT
HETATM    1  C5  UNL     1      22.677   3.457  51.284  1.00  0.00     0.064 A 
HETATM    2  C6  UNL     1      23.616   3.226  52.238  1.00  0.00     0.082 A 
HETATM    3  C7  UNL     1      24.965   3.037  52.048  1.00  0.00     0.131 A 
HETATM    4  N2  UNL     1      25.313   3.102  50.753  1.00  0.00    -0.224 NA
HETATM    5  C15 UNL     1      24.466   3.324  49.741  1.00  0.00     0.235 A 
HETATM    6  N3  UNL     1      23.176   3.496  50.020  1.00  0.00    -0.242 NA
ENDROOT
BRANCH   1   7
HETATM    7  C4  UNL     1      21.254   3.638  51.611  1.00  0.00     0.071 C 
HETATM    8  C3  UNL     1      20.329   2.873  52.112  1.00  0.00     0.103 C 
BRANCH   8   9
HETATM    9  O1  UNL     1      19.058   3.389  52.288  1.00  0.00    -0.349 OA
BRANCH   9  10
HETATM   10  C2  UNL     1      18.245   3.886  51.269  1.00  0.00     0.171 C 
HETATM   11  C1  UNL     1      16.771   3.632  51.524  1.00  0.00     0.034 C 
ENDBRANCH   9  10
ENDBRANCH   8   9
BRANCH   8  12
HETATM   12  C16 UNL     1      20.603   1.472  52.497  1.00  0.00     0.120 C 
HETATM   13  C17 UNL     1      20.721   1.045  53.783  1.00  0.00     0.180 A 
HETATM   14  O2  UNL     1      20.922   0.107  54.897  1.00  0.00    -0.356 OA
HETATM   15  C18 UNL     1      20.906  -0.435  53.666  1.00  0.00     0.192 A 
HETATM   16  C19 UNL     1      21.781  -0.392  52.448  1.00  0.00     0.211 C 
HETATM   17  O3  UNL     1      20.800   0.368  51.606  1.00  0.00    -0.346 OA
ENDBRANCH   8  12
ENDBRANCH   1   7
BRANCH   3  18
HETATM   18  N1  UNL     1      25.824   2.801  53.150  1.00  0.00    -0.341 N 
HETATM   19  H8  UNL     1      25.685   3.432  53.984  1.00  0.00     0.167 HD
BRANCH  18  20
HETATM   20  C8  UNL     1      26.828   1.839  53.260  1.00  0.00     0.035 A 
HETATM   21  C9  UNL     1      28.123   2.046  53.657  1.00  0.00     0.030 A 
HETATM   22  C10 UNL     1      29.097   1.098  53.755  1.00  0.00     0.011 A 
HETATM   23  C11 UNL     1      28.792  -0.208  53.434  1.00  0.00    -0.040 A 
HETATM   24  C12 UNL     1      29.775  -1.314  53.506  1.00  0.00     0.050 C 
HETATM   25  C13 UNL     1      27.503  -0.490  53.026  1.00  0.00     0.042 A 
HETATM   26 CL1  UNL     1      27.093  -2.137  52.612  1.00  0.00    -0.084 Cl
HETATM   27  C14 UNL     1      26.580   0.520  52.952  1.00  0.00     0.053 A 
ENDBRANCH  18  20
ENDBRANCH   3  18
TORSDOF 6
ENDMDL
MODEL 4
REMARK VINA RESULT:      -8.6      5.563      8.401
REMARK  6 active torsions:
REMARK  status: ('A' for Active; 'I' for Inactive)
REMARK    1  A    between atoms: C2_2  and  O1_3 
REMARK    2  A    between atoms: O1_3  and  C3_4 
REMARK    3  A    between atoms: C3_4  and  C16_21 
REMARK    4  A    between atoms: C4_5  and  C5_6 
REMARK    5  A    between atoms: C7_8  and  N1_9 
REMARK    6  A    between atoms: N1_9  and  C8_10 
ROOT
HETATM    1  C5  UNL     1      25.927   4.275  49.551  1.00  0.00     0.064 A 
HETATM    2  C6  UNL     1      26.052   3.559  50.698  1.00  0.00     0.082 A 
HETATM    3  C7  UNL     1      25.041   2.994  51.440  1.00  0.00     0.131 A 
HETATM    4  N2  UNL     1      23.829   3.220  50.909  1.00  0.00    -0.224 NA
HETATM    5  C15 UNL     1      23.601   3.911  49.785  1.00  0.00     0.235 A 
HETATM    6  N3  UNL     1      24.642   4.422  49.133  1.00  0.00    -0.242 NA
ENDROOT
BRANCH   1   7
HETATM    7  C4  UNL     1      27.089   4.838  48.847  1.00  0.00     0.071 C 
HETATM    8  C3  UNL     1      27.456   6.038  48.505  1.00  0.00     0.103 C 
BRANCH   8   9
HETATM    9  O1  UNL     1      28.651   6.205  47.830  1.00  0.00    -0.349 OA
BRANCH   9  10
HETATM   10  C2  UNL     1      29.916   6.174  48.417  1.00  0.00     0.171 C 
HETATM   11  C1  UNL     1      30.856   5.205  47.725  1.00  0.00     0.034 C 
ENDBRANCH   9  10
ENDBRANCH   8   9
BRANCH   8  12
HETATM   12  C16 UNL     1      26.629   7.222  48.822  1.00  0.00     0.120 C 
HETATM   13  C17 UNL     1      27.014   8.216  49.667  1.00  0.00     0.180 A 
HETATM   14  O2  UNL     1      26.931   9.475  50.420  1.00  0.00    -0.356 OA
HETATM   15  C18 UNL     1      25.902   9.214  49.596  1.00  0.00     0.192 A 
HETATM   16  C19 UNL     1      24.788   8.210  49.531  1.00  0.00     0.211 C 
HETATM   17  O3  UNL     1      25.317   7.503  48.319  1.00  0.00    -0.346 OA
ENDBRANCH   8  12
ENDBRANCH   1   7
BRANCH   3  18
HETATM   18  N1  UNL     1      25.329   2.273  52.626  1.00  0.00    -0.341 N 
HETATM   19  H8  UNL     1      24.618   2.362  53.401  1.00  0.00     0.167 HD
BRANCH  18  20
HETATM   20  C8  UNL     1      26.436   1.465  52.887  1.00  0.00     0.035 A 
HETATM   21  C9  UNL     1      27.648   1.870  53.382  1.00  0.00     0.030 A 
HETATM   22  C10 UNL     1      28.724   1.070  53.628  1.00  0.00     0.011 A 
HETATM   23  C11 UNL     1      28.626  -0.280  53.369  1.00  0.00    -0.040 A 
HETATM   24  C12 UNL     1      29.735  -1.235  53.600  1.00  0.00     0.050 C 
HETATM   25  C13 UNL     1      27.431  -0.758  52.868  1.00  0.00     0.042 A 
HETATM   26 CL1  UNL     1      27.284  -2.465  52.530  1.00  0.00    -0.084 Cl
HETATM   27  C14 UNL     1      26.394   0.110  52.647  1.00  0.00     0.053 A 
ENDBRANCH  18  20
ENDBRANCH   3  18
TORSDOF 6
ENDMDL
MODEL 5
REMARK VINA RESULT:      -8.5      4.692      8.155
REMARK  6 active torsions:
REMARK  status: ('A' for Active; 'I' for Inactive)
REMARK    1  A    between atoms: C2_2  and  O1_3 
REMARK    2  A    between atoms: O1_3  and  C3_4 
REMARK    3  A    between atoms: C3_4  and  C16_21 
REMARK    4  A    between atoms: C4_5  and  C5_6 
REMARK    5  A    between atoms: C7_8  and  N1_9 
REMARK    6  A    between atoms: N1_9  and  C8_10 
ROOT
HETATM    1  C5  UNL     1      23.634   2.682  52.052  1.00  0.00     0.064 A 
HETATM    2  C6  UNL     1      24.369   2.895  50.930  1.00  0.00     0.082 A 
HETATM    3  C7  UNL     1      24.715   4.108  50.382  1.00  0.00     0.131 A 
HETATM    4  N2  UNL     1      24.238   5.145  51.088  1.00  0.00    -0.224 NA
HETATM    5  C15 UNL     1      23.505   5.040  52.204  1.00  0.00     0.235 A 
HETATM    6  N3  UNL     1      23.219   3.824  52.662  1.00  0.00    -0.242 NA
ENDROOT
BRANCH   1   7
HETATM    7  C4  UNL     1      23.321   1.330  52.540  1.00  0.00     0.071 C 
HETATM    8  C3  UNL     1      24.028   0.335  52.988  1.00  0.00     0.103 C 
BRANCH   8   9
HETATM    9  O1  UNL     1      23.382  -0.825  53.372  1.00  0.00    -0.349 OA
BRANCH   9  10
HETATM   10  C2  UNL     1      22.849  -1.067  54.639  1.00  0.00     0.171 C 
HETATM   11  C1  UNL     1      21.369  -0.743  54.719  1.00  0.00     0.034 C 
ENDBRANCH   9  10
ENDBRANCH   8   9
BRANCH   8  12
HETATM   12  C16 UNL     1      25.501   0.416  53.098  1.00  0.00     0.120 C 
HETATM   13  C17 UNL     1      26.168   0.598  54.269  1.00  0.00     0.180 A 
HETATM   14  O2  UNL     1      27.313   0.759  55.177  1.00  0.00    -0.356 OA
HETATM   15  C18 UNL     1      27.613   0.526  53.887  1.00  0.00     0.192 A 
HETATM   16  C19 UNL     1      27.472   1.263  52.588  1.00  0.00     0.211 C 
HETATM   17  O3  UNL     1      26.439   0.336  52.019  1.00  0.00    -0.346 OA
ENDBRANCH   8  12
ENDBRANCH   1   7
BRANCH   3  18
HETATM   18  N1  UNL     1      25.489   4.171  49.196  1.00  0.00    -0.341 N 
HETATM   19  H8  UNL     1      25.360   3.370  48.521  1.00  0.00     0.167 HD
BRANCH  18  20
HETATM   20  C8  UNL     1      26.397   5.161  48.820  1.00  0.00     0.035 A 
HETATM   21  C9  UNL     1      26.126   6.489  48.619  1.00  0.00     0.030 A 
HETATM   22  C10 UNL     1      27.021   7.446  48.246  1.00  0.00     0.011 A 
HETATM   23  C11 UNL     1      28.336   7.087  48.041  1.00  0.00    -0.040 A 
HETATM   24  C12 UNL     1      29.388   8.048  47.634  1.00  0.00     0.050 C 
HETATM   25  C13 UNL     1      28.681   5.762  48.226  1.00  0.00     0.042 A 
HETATM   26 CL1  UNL     1      30.342   5.283  47.971  1.00  0.00    -0.084 Cl
HETATM   27  C14 UNL     1      27.723   4.859  48.602  1.00  0.00     0.053 A 
ENDBRANCH  18  20
ENDBRANCH   3  18
TORSDOF 6
ENDMDL
MODEL 6
REMARK VINA RESULT:      -8.5      2.733      4.939
REMARK  6 active torsions:
REMARK  status: ('A' for Active; 'I' for Inactive)
REMARK    1  A    between atoms: C2_2  and  O1_3 
REMARK    2  A    between atoms: O1_3  and  C3_4 
REMARK    3  A    between atoms: C3_4  and  C16_21 
REMARK    4  A    between atoms: C4_5  and  C5_6 
REMARK    5  A    between atoms: C7_8  and  N1_9 
REMARK    6  A    between atoms: N1_9  and  C8_10 
ROOT
HETATM    1  C5  UNL     1      26.987   1.723  52.465  1.00  0.00     0.064 A 
HETATM    2  C6  UNL     1      26.138   0.772  52.933  1.00  0.00     0.082 A 
HETATM    3  C7  UNL     1      26.247   0.068  54.109  1.00  0.00     0.131 A 
HETATM    4  N2  UNL     1      27.336   0.413  54.814  1.00  0.00    -0.224 NA
HETATM    5  C15 UNL     1      28.231   1.335  54.439  1.00  0.00     0.235 A 
HETATM    6  N3  UNL     1      28.044   1.968  53.283  1.00  0.00    -0.242 NA
ENDROOT
BRANCH   1   7
HETATM    7  C4  UNL     1      26.767   2.407  51.181  1.00  0.00     0.071 C 
HETATM    8  C3  UNL     1      25.802   3.120  50.680  1.00  0.00     0.103 C 
BRANCH   8   9
HETATM    9  O1  UNL     1      25.937   3.624  49.399  1.00  0.00    -0.349 OA
BRANCH   9  10
HETATM   10  C2  UNL     1      26.342   4.922  49.085  1.00  0.00     0.171 C 
HETATM   11  C1  UNL     1      27.775   4.980  48.588  1.00  0.00     0.034 C 
ENDBRANCH   9  10
ENDBRANCH   8   9
BRANCH   8  12
HETATM   12  C16 UNL     1      24.569   3.406  51.445  1.00  0.00     0.120 C 
HETATM   13  C17 UNL     1      23.324   3.434  50.900  1.00  0.00     0.180 A 
HETATM   14  O2  UNL     1      21.862   3.574  50.842  1.00  0.00    -0.356 OA
HETATM   15  C18 UNL     1      22.415   3.673  52.063  1.00  0.00     0.192 A 
HETATM   16  C19 UNL     1      23.315   4.640  52.775  1.00  0.00     0.211 C 
HETATM   17  O3  UNL     1      24.487   3.706  52.843  1.00  0.00    -0.346 OA
ENDBRANCH   8  12
ENDBRANCH   1   7
BRANCH   3  18
HETATM   18  N1  UNL     1      25.277  -0.903  54.464  1.00  0.00    -0.341 N 
HETATM   19  H8  UNL     1      25.647  -1.771  54.937  1.00  0.00     0.167 HD
BRANCH  18  20
HETATM   20  C8  UNL     1      23.897  -0.847  54.260  1.00  0.00     0.035 A 
HETATM   21  C9  UNL     1      22.922  -1.185  55.161  1.00  0.00     0.030 A 
HETATM   22  C10 UNL     1      21.577  -1.130  54.948  1.00  0.00     0.011 A 
HETATM   23  C11 UNL     1      21.111  -0.700  53.724  1.00  0.00    -0.040 A 
HETATM   24  C12 UNL     1      19.671  -0.604  53.390  1.00  0.00     0.050 C 
HETATM   25  C13 UNL     1      22.041  -0.342  52.767  1.00  0.00     0.042 A 
HETATM   26 CL1  UNL     1      21.474   0.205  51.208  1.00  0.00    -0.084 Cl
HETATM   27  C14 UNL     1      23.377  -0.425  53.057  1.00  0.00     0.053 A 
ENDBRANCH  18  20
ENDBRANCH   3  18
TORSDOF 6
ENDMDL
MODEL 7
REMARK VINA RESULT:      -8.3      3.954      8.120
REMARK  6 active torsions:
REMARK  status: ('A' for Active; 'I' for Inactive)
REMARK    1  A    between atoms: C2_2  and  O1_3 
REMARK    2  A    between atoms: O1_3  and  C3_4 
REMARK    3  A    between atoms: C3_4  and  C16_21 
REMARK    4  A    between atoms: C4_5  and  C5_6 
REMARK    5  A    between atoms: C7_8  and  N1_9 
REMARK    6  A    between atoms: N1_9  and  C8_10 
ROOT
HETATM    1  C5  UNL     1      21.265  -0.964  53.834  1.00  0.00     0.064 A 
HETATM    2  C6  UNL     1      22.330  -0.457  53.161  1.00  0.00     0.082 A 
HETATM    3  C7  UNL     1      23.641  -0.434  53.575  1.00  0.00     0.131 A 
HETATM    4  N2  UNL     1      23.804  -0.990  54.786  1.00  0.00    -0.224 NA
HETATM    5  C15 UNL     1      22.822  -1.516  55.528  1.00  0.00     0.235 A 
HETATM    6  N3  UNL     1      21.582  -1.494  55.045  1.00  0.00    -0.242 NA
ENDROOT
BRANCH   1   7
HETATM    7  C4  UNL     1      19.900  -0.925  53.287  1.00  0.00     0.071 C 
HETATM    8  C3  UNL     1      19.267  -0.137  52.467  1.00  0.00     0.103 C 
BRANCH   8   9
HETATM    9  O1  UNL     1      17.946  -0.409  52.165  1.00  0.00    -0.349 OA
BRANCH   9  10
HETATM   10  C2  UNL     1      17.122  -1.283  52.877  1.00  0.00     0.171 C 
HETATM   11  C1  UNL     1      15.870  -1.659  52.107  1.00  0.00     0.034 C 
ENDBRANCH   9  10
ENDBRANCH   8   9
BRANCH   8  12
HETATM   12  C16 UNL     1      19.926   1.036  51.853  1.00  0.00     0.120 C 
HETATM   13  C17 UNL     1      19.968   2.270  52.422  1.00  0.00     0.180 A 
HETATM   14  O2  UNL     1      20.298   3.695  52.570  1.00  0.00    -0.356 OA
HETATM   15  C18 UNL     1      20.801   3.083  51.484  1.00  0.00     0.192 A 
HETATM   16  C19 UNL     1      20.253   2.484  50.222  1.00  0.00     0.211 C 
HETATM   17  O3  UNL     1      20.594   1.070  50.587  1.00  0.00    -0.346 OA
ENDBRANCH   8  12
ENDBRANCH   1   7
BRANCH   3  18
HETATM   18  N1  UNL     1      24.648   0.137  52.758  1.00  0.00    -0.341 N 
HETATM   19  H8  UNL     1      24.308   0.650  51.901  1.00  0.00     0.167 HD
BRANCH  18  20
HETATM   20  C8  UNL     1      26.029   0.100  52.953  1.00  0.00     0.035 A 
HETATM   21  C9  UNL     1      26.857   1.172  53.160  1.00  0.00     0.030 A 
HETATM   22  C10 UNL     1      28.206   1.123  53.343  1.00  0.00     0.011 A 
HETATM   23  C11 UNL     1      28.839  -0.101  53.327  1.00  0.00    -0.040 A 
HETATM   24  C12 UNL     1      30.299  -0.265  53.516  1.00  0.00     0.050 C 
HETATM   25  C13 UNL     1      28.064  -1.227  53.124  1.00  0.00     0.042 A 
HETATM   26 CL1  UNL     1      28.843  -2.790  53.098  1.00  0.00    -0.084 Cl
HETATM   27  C14 UNL     1      26.713  -1.095  52.947  1.00  0.00     0.053 A 
ENDBRANCH  18  20
ENDBRANCH   3  18
TORSDOF 6
ENDMDL
MODEL 8
REMARK VINA RESULT:      -7.9      5.285      7.996
REMARK  6 active torsions:
REMARK  status: ('A' for Active; 'I' for Inactive)
REMARK    1  A    between atoms: C2_2  and  O1_3 
REMARK    2  A    between atoms: O1_3  and  C3_4 
REMARK    3  A    between atoms: C3_4  and  C16_21 
REMARK    4  A    between atoms: C4_5  and  C5_6 
REMARK    5  A    between atoms: C7_8  and  N1_9 
REMARK    6  A    between atoms: N1_9  and  C8_10 
ROOT
HETATM    1  C5  UNL     1      23.430   3.938  50.809  1.00  0.00     0.064 A 
HETATM    2  C6  UNL     1      23.835   2.691  51.163  1.00  0.00     0.082 A 
HETATM    3  C7  UNL     1      24.202   2.262  52.417  1.00  0.00     0.131 A 
HETATM    4  N2  UNL     1      24.128   3.238  53.335  1.00  0.00    -0.224 NA
HETATM    5  C15 UNL     1      23.742   4.496  53.087  1.00  0.00     0.235 A 
HETATM    6  N3  UNL     1      23.404   4.821  51.842  1.00  0.00    -0.242 NA
ENDROOT
BRANCH   1   7
HETATM    7  C4  UNL     1      23.066   4.282  49.426  1.00  0.00     0.071 C 
HETATM    8  C3  UNL     1      23.497   5.149  48.557  1.00  0.00     0.103 C 
BRANCH   8   9
HETATM    9  O1  UNL     1      22.904   5.196  47.309  1.00  0.00    -0.349 OA
BRANCH   9  10
HETATM   10  C2  UNL     1      21.776   4.469  46.928  1.00  0.00     0.171 C 
HETATM   11  C1  UNL     1      21.967   3.748  45.607  1.00  0.00     0.034 C 
ENDBRANCH   9  10
ENDBRANCH   8   9
BRANCH   8  12
HETATM   12  C16 UNL     1      24.601   6.081  48.872  1.00  0.00     0.120 C 
HETATM   13  C17 UNL     1      25.917   5.790  48.693  1.00  0.00     0.180 A 
HETATM   14  O2  UNL     1      27.373   5.995  48.694  1.00  0.00    -0.356 OA
HETATM   15  C18 UNL     1      26.630   7.052  49.064  1.00  0.00     0.192 A 
HETATM   16  C19 UNL     1      25.740   7.405  50.220  1.00  0.00     0.211 C 
HETATM   17  O3  UNL     1      24.472   7.399  49.418  1.00  0.00    -0.346 OA
ENDBRANCH   8  12
ENDBRANCH   1   7
BRANCH   3  18
HETATM   18  N1  UNL     1      24.608   0.921  52.632  1.00  0.00    -0.341 N 
HETATM   19  H8  UNL     1      23.837   0.200  52.621  1.00  0.00     0.167 HD
BRANCH  18  20
HETATM   20  C8  UNL     1      25.900   0.444  52.857  1.00  0.00     0.035 A 
HETATM   21  C9  UNL     1      26.363  -0.821  52.605  1.00  0.00     0.030 A 
HETATM   22  C10 UNL     1      27.627  -1.276  52.834  1.00  0.00     0.011 A 
HETATM   23  C11 UNL     1      28.560  -0.414  53.369  1.00  0.00    -0.040 A 
HETATM   24  C12 UNL     1      29.959  -0.807  53.657  1.00  0.00     0.050 C 
HETATM   25  C13 UNL     1      28.162   0.879  53.648  1.00  0.00     0.042 A 
HETATM   26 CL1  UNL     1      29.327   1.989  54.328  1.00  0.00    -0.084 Cl
HETATM   27  C14 UNL     1      26.872   1.261  53.389  1.00  0.00     0.053 A 
ENDBRANCH  18  20
ENDBRANCH   3  18
TORSDOF 6
ENDMDL
MODEL 9
REMARK VINA RESULT:      -7.9      4.551      7.965
REMARK  6 active torsions:
REMARK  status: ('A' for Active; 'I' for Inactive)
REMARK    1  A    between atoms: C2_2  and  O1_3 
REMARK    2  A    between atoms: O1_3  and  C3_4 
REMARK    3  A    between atoms: C3_4  and  C16_21 
REMARK    4  A    between atoms: C4_5  and  C5_6 
REMARK    5  A    between atoms: C7_8  and  N1_9 
REMARK    6  A    between atoms: N1_9  and  C8_10 
ROOT
HETATM    1  C5  UNL     1      22.984   1.773  51.135  1.00  0.00     0.064 A 
HETATM    2  C6  UNL     1      23.672   2.944  51.155  1.00  0.00     0.082 A 
HETATM    3  C7  UNL     1      23.876   3.806  50.103  1.00  0.00     0.131 A 
HETATM    4  N2  UNL     1      23.304   3.373  48.968  1.00  0.00    -0.224 NA
HETATM    5  C15 UNL     1      22.608   2.236  48.846  1.00  0.00     0.235 A 
HETATM    6  N3  UNL     1      22.461   1.463  49.919  1.00  0.00    -0.242 NA
ENDROOT
BRANCH   1   7
HETATM    7  C4  UNL     1      22.838   0.928  52.331  1.00  0.00     0.071 C 
HETATM    8  C3  UNL     1      23.657   0.229  53.060  1.00  0.00     0.103 C 
BRANCH   8   9
HETATM    9  O1  UNL     1      23.160  -0.465  54.147  1.00  0.00    -0.349 OA
BRANCH   9  10
HETATM   10  C2  UNL     1      22.080  -1.348  54.110  1.00  0.00     0.171 C 
HETATM   11  C1  UNL     1      20.778  -0.694  54.532  1.00  0.00     0.034 C 
ENDBRANCH   9  10
ENDBRANCH   8   9
BRANCH   8  12
HETATM   12  C16 UNL     1      25.103   0.160  52.754  1.00  0.00     0.120 C 
HETATM   13  C17 UNL     1      26.000  -0.561  53.478  1.00  0.00     0.180 A 
HETATM   14  O2  UNL     1      27.299  -1.128  53.868  1.00  0.00    -0.356 OA
HETATM   15  C18 UNL     1      27.292  -0.391  52.744  1.00  0.00     0.192 A 
HETATM   16  C19 UNL     1      27.086   1.054  52.391  1.00  0.00     0.211 C 
HETATM   17  O3  UNL     1      25.780   0.835  51.688  1.00  0.00    -0.346 OA
ENDBRANCH   8  12
ENDBRANCH   1   7
BRANCH   3  18
HETATM   18  N1  UNL     1      24.623   4.997  50.278  1.00  0.00    -0.341 N 
HETATM   19  H8  UNL     1      24.246   5.675  50.994  1.00  0.00     0.167 HD
BRANCH  18  20
HETATM   20  C8  UNL     1      25.793   5.377  49.618  1.00  0.00     0.035 A 
HETATM   21  C9  UNL     1      26.782   4.547  49.160  1.00  0.00     0.030 A 
HETATM   22  C10 UNL     1      27.923   4.932  48.521  1.00  0.00     0.011 A 
HETATM   23  C11 UNL     1      28.141   6.273  48.293  1.00  0.00    -0.040 A 
HETATM   24  C12 UNL     1      29.347   6.797  47.609  1.00  0.00     0.050 C 
HETATM   25  C13 UNL     1      27.183   7.168  48.729  1.00  0.00     0.042 A 
HETATM   26 CL1  UNL     1      27.438   8.874  48.453  1.00  0.00    -0.084 Cl
HETATM   27  C14 UNL     1      26.062   6.703  49.364  1.00  0.00     0.053 A 
ENDBRANCH  18  20
ENDBRANCH   3  18
TORSDOF 6
ENDMDL
