MODEL 1
REMARK VINA RESULT:      -9.3      0.000      0.000
REMARK  3 active torsions:
REMARK  status: ('A' for Active; 'I' for Inactive)
REMARK    1  A    between atoms: O1_2  and  C2_3 
REMARK    2  A    between atoms: C8_9  and  C9_10 
REMARK    3  A    between atoms: C9_10  and  C10_11 
ROOT
HETATM    1  C10 UNL     1      23.628   1.093  52.871  1.00  0.00    -0.000 A 
HETATM    2  C11 UNL     1      23.817   2.540  53.137  1.00  0.00     0.024 C 
HETATM    3  C12 UNL     1      22.684   1.051  51.676  1.00  0.00     0.021 A 
HETATM    4  C13 UNL     1      21.516   0.512  51.953  1.00  0.00     0.083 A 
HETATM    5  N1  UNL     1      20.223   0.149  51.414  1.00  0.00    -0.242 NA
HETATM    6  C14 UNL     1      19.170   0.581  52.055  1.00  0.00     0.208 C 
HETATM    7  N2  UNL     1      17.797   0.388  51.775  1.00  0.00    -0.348 N 
HETATM    8  C15 UNL     1      17.450  -0.876  52.365  1.00  0.00     0.083 A 
HETATM    9  C16 UNL     1      16.175  -1.300  52.064  1.00  0.00     0.063 A 
HETATM   10 CL1  UNL     1      15.085  -0.386  51.053  1.00  0.00    -0.082 Cl
HETATM   11  C17 UNL     1      15.774  -2.502  52.600  1.00  0.00     0.026 A 
HETATM   12  C18 UNL     1      16.524  -3.328  53.412  1.00  0.00     0.004 A 
HETATM   13  C19 UNL     1      17.787  -2.843  53.671  1.00  0.00     0.033 A 
HETATM   14  C20 UNL     1      18.248  -1.655  53.170  1.00  0.00     0.076 A 
HETATM   15  N3  UNL     1      19.570  -1.363  53.567  1.00  0.00    -0.298 N 
HETATM   16  N4  UNL     1      20.474  -0.459  54.113  1.00  0.00    -0.298 N 
HETATM   17  C21 UNL     1      21.561   0.152  53.388  1.00  0.00     0.073 A 
HETATM   18  C22 UNL     1      22.753   0.496  53.879  1.00  0.00     0.020 A 
HETATM   19  H17 UNL     1      17.102   0.966  51.269  1.00  0.00     0.167 HD
HETATM   20  H21 UNL     1      20.268  -2.127  53.427  1.00  0.00     0.187 HD
HETATM   21  H22 UNL     1      20.300  -0.251  55.117  1.00  0.00     0.187 HD
ENDROOT
BRANCH   1  22
HETATM   22  C9  UNL     1      24.796   0.288  52.461  1.00  0.00     0.059 C 
BRANCH  22  23
HETATM   23  C8  UNL     1      26.102   0.618  53.024  1.00  0.00    -0.018 A 
HETATM   24  C2  UNL     1      26.494  -0.023  54.209  1.00  0.00     0.075 A 
HETATM   25  C3  UNL     1      27.724   0.249  54.772  1.00  0.00     0.037 A 
HETATM   26  C4  UNL     1      28.612   1.141  54.220  1.00  0.00     0.003 A 
HETATM   27  C5  UNL     1      28.248   1.776  53.065  1.00  0.00     0.007 A 
HETATM   28  C6  UNL     1      27.019   1.506  52.498  1.00  0.00    -0.053 A 
HETATM   29  C7  UNL     1      26.668   2.206  51.259  1.00  0.00     0.049 C 
BRANCH  24  30
HETATM   30  O1  UNL     1      25.655  -0.912  54.799  1.00  0.00    -0.355 OA
HETATM   31  C1  UNL     1      25.201  -0.994  56.104  1.00  0.00     0.210 C 
ENDBRANCH  24  30
ENDBRANCH  22  23
ENDBRANCH   1  22
TORSDOF 3
ENDMDL
MODEL 2
REMARK VINA RESULT:      -9.1      0.921      2.044
REMARK  3 active torsions:
REMARK  status: ('A' for Active; 'I' for Inactive)
REMARK    1  A    between atoms: O1_2  and  C2_3 
REMARK    2  A    between atoms: C8_9  and  C9_10 
REMARK    3  A    between atoms: C9_10  and  C10_11 
ROOT
HETATM    1  C10 UNL     1      23.508   0.954  52.895  1.00  0.00    -0.000 A 
HETATM    2  C11 UNL     1      23.703   2.401  53.157  1.00  0.00     0.024 C 
HETATM    3  C12 UNL     1      22.571   0.912  51.694  1.00  0.00     0.021 A 
HETATM    4  C13 UNL     1      21.398   0.382  51.966  1.00  0.00     0.083 A 
HETATM    5  N1  UNL     1      20.106   0.024  51.420  1.00  0.00    -0.242 NA
HETATM    6  C14 UNL     1      19.052   0.466  52.053  1.00  0.00     0.208 C 
HETATM    7  N2  UNL     1      17.679   0.280  51.765  1.00  0.00    -0.348 N 
HETATM    8  C15 UNL     1      17.321  -0.980  52.357  1.00  0.00     0.083 A 
HETATM    9  C16 UNL     1      16.045  -1.397  52.051  1.00  0.00     0.063 A 
HETATM   10 CL1  UNL     1      14.967  -0.481  51.029  1.00  0.00    -0.082 Cl
HETATM   11  C17 UNL     1      15.634  -2.595  52.589  1.00  0.00     0.026 A 
HETATM   12  C18 UNL     1      16.373  -3.421  53.409  1.00  0.00     0.004 A 
HETATM   13  C19 UNL     1      17.637  -2.943  53.673  1.00  0.00     0.033 A 
HETATM   14  C20 UNL     1      18.108  -1.760  53.171  1.00  0.00     0.076 A 
HETATM   15  N3  UNL     1      19.430  -1.475  53.575  1.00  0.00    -0.298 N 
HETATM   16  N4  UNL     1      20.336  -0.573  54.123  1.00  0.00    -0.298 N 
HETATM   17  C21 UNL     1      21.431   0.027  53.403  1.00  0.00     0.073 A 
HETATM   18  C22 UNL     1      22.622   0.367  53.900  1.00  0.00     0.020 A 
HETATM   19  H17 UNL     1      16.991   0.860  51.252  1.00  0.00     0.167 HD
HETATM   20  H21 UNL     1      20.124  -2.243  53.442  1.00  0.00     0.187 HD
HETATM   21  H22 UNL     1      20.157  -0.361  55.125  1.00  0.00     0.187 HD
ENDROOT
BRANCH   1  22
HETATM   22  C9  UNL     1      24.673   0.140  52.496  1.00  0.00     0.059 C 
BRANCH  22  23
HETATM   23  C8  UNL     1      25.967   0.430  53.106  1.00  0.00    -0.018 A 
HETATM   24  C2  UNL     1      26.866   1.244  52.399  1.00  0.00     0.075 A 
HETATM   25  C3  UNL     1      28.096   1.554  52.940  1.00  0.00     0.037 A 
HETATM   26  C4  UNL     1      28.503   1.096  54.170  1.00  0.00     0.003 A 
HETATM   27  C5  UNL     1      27.641   0.301  54.875  1.00  0.00     0.007 A 
HETATM   28  C6  UNL     1      26.409  -0.012  54.337  1.00  0.00    -0.053 A 
HETATM   29  C7  UNL     1      25.514  -0.863  55.125  1.00  0.00     0.049 C 
BRANCH  24  30
HETATM   30  O1  UNL     1      26.517   1.722  51.177  1.00  0.00    -0.355 OA
HETATM   31  C1  UNL     1      26.616   2.996  50.646  1.00  0.00     0.210 C 
ENDBRANCH  24  30
ENDBRANCH  22  23
ENDBRANCH   1  22
TORSDOF 3
ENDMDL
MODEL 3
REMARK VINA RESULT:      -9.0      5.059      7.815
REMARK  3 active torsions:
REMARK  status: ('A' for Active; 'I' for Inactive)
REMARK    1  A    between atoms: O1_2  and  C2_3 
REMARK    2  A    between atoms: C8_9  and  C9_10 
REMARK    3  A    between atoms: C9_10  and  C10_11 
ROOT
HETATM    1  C10 UNL     1      25.263   1.914  52.653  1.00  0.00    -0.000 A 
HETATM    2  C11 UNL     1      26.529   1.970  53.425  1.00  0.00     0.024 C 
HETATM    3  C12 UNL     1      25.608   2.561  51.318  1.00  0.00     0.021 A 
HETATM    4  C13 UNL     1      24.959   3.685  51.100  1.00  0.00     0.083 A 
HETATM    5  N1  UNL     1      24.759   4.774  50.168  1.00  0.00    -0.242 NA
HETATM    6  C14 UNL     1      24.894   5.987  50.634  1.00  0.00     0.208 C 
HETATM    7  N2  UNL     1      24.757   7.231  49.974  1.00  0.00    -0.348 N 
HETATM    8  C15 UNL     1      23.353   7.538  50.003  1.00  0.00     0.083 A 
HETATM    9  C16 UNL     1      23.012   8.654  49.272  1.00  0.00     0.063 A 
HETATM   10 CL1  UNL     1      24.180   9.602  48.386  1.00  0.00    -0.082 Cl
HETATM   11  C17 UNL     1      21.683   9.010  49.259  1.00  0.00     0.026 A 
HETATM   12  C18 UNL     1      20.654   8.359  49.908  1.00  0.00     0.004 A 
HETATM   13  C19 UNL     1      21.067   7.253  50.619  1.00  0.00     0.033 A 
HETATM   14  C20 UNL     1      22.372   6.846  50.674  1.00  0.00     0.076 A 
HETATM   15  N3  UNL     1      22.558   5.689  51.460  1.00  0.00    -0.298 N 
HETATM   16  N4  UNL     1      23.247   5.046  52.483  1.00  0.00    -0.298 N 
HETATM   17  C21 UNL     1      24.117   3.911  52.296  1.00  0.00     0.073 A 
HETATM   18  C22 UNL     1      24.314   2.907  53.154  1.00  0.00     0.020 A 
HETATM   19  H17 UNL     1      25.448   7.864  49.534  1.00  0.00     0.167 HD
HETATM   20  H21 UNL     1      21.922   4.888  51.251  1.00  0.00     0.187 HD
HETATM   21  H22 UNL     1      23.079   5.460  53.422  1.00  0.00     0.187 HD
ENDROOT
BRANCH   1  22
HETATM   22  C9  UNL     1      24.702   0.594  52.302  1.00  0.00     0.059 C 
BRANCH  22  23
HETATM   23  C8  UNL     1      23.503   0.138  52.999  1.00  0.00    -0.018 A 
HETATM   24  C2  UNL     1      22.256   0.390  52.407  1.00  0.00     0.075 A 
HETATM   25  C3  UNL     1      21.096  -0.032  53.023  1.00  0.00     0.037 A 
HETATM   26  C4  UNL     1      21.095  -0.704  54.222  1.00  0.00     0.003 A 
HETATM   27  C5  UNL     1      22.301  -0.958  54.816  1.00  0.00     0.007 A 
HETATM   28  C6  UNL     1      23.464  -0.538  54.202  1.00  0.00    -0.053 A 
HETATM   29  C7  UNL     1      24.734  -0.833  54.869  1.00  0.00     0.049 C 
BRANCH  24  30
HETATM   30  O1  UNL     1      22.199   1.052  51.223  1.00  0.00    -0.355 OA
HETATM   31  C1  UNL     1      21.313   2.015  50.771  1.00  0.00     0.210 C 
ENDBRANCH  24  30
ENDBRANCH  22  23
ENDBRANCH   1  22
TORSDOF 3
ENDMDL
MODEL 4
REMARK VINA RESULT:      -8.9      5.002      7.658
REMARK  3 active torsions:
REMARK  status: ('A' for Active; 'I' for Inactive)
REMARK    1  A    between atoms: O1_2  and  C2_3 
REMARK    2  A    between atoms: C8_9  and  C9_10 
REMARK    3  A    between atoms: C9_10  and  C10_11 
ROOT
HETATM    1  C10 UNL     1      25.075   1.944  52.633  1.00  0.00    -0.000 A 
HETATM    2  C11 UNL     1      26.315   1.970  53.447  1.00  0.00     0.024 C 
HETATM    3  C12 UNL     1      25.475   2.600  51.317  1.00  0.00     0.021 A 
HETATM    4  C13 UNL     1      24.853   3.737  51.091  1.00  0.00     0.083 A 
HETATM    5  N1  UNL     1      24.703   4.840  50.165  1.00  0.00    -0.242 NA
HETATM    6  C14 UNL     1      24.844   6.045  50.649  1.00  0.00     0.208 C 
HETATM    7  N2  UNL     1      24.750   7.298  50.000  1.00  0.00    -0.348 N 
HETATM    8  C15 UNL     1      23.351   7.630  49.986  1.00  0.00     0.083 A 
HETATM    9  C16 UNL     1      23.054   8.760  49.257  1.00  0.00     0.063 A 
HETATM   10 CL1  UNL     1      24.267   9.696  48.420  1.00  0.00    -0.082 Cl
HETATM   11  C17 UNL     1      21.732   9.138  49.204  1.00  0.00     0.026 A 
HETATM   12  C18 UNL     1      20.672   8.499  49.812  1.00  0.00     0.004 A 
HETATM   13  C19 UNL     1      21.042   7.378  50.523  1.00  0.00     0.033 A 
HETATM   14  C20 UNL     1      22.337   6.947  50.616  1.00  0.00     0.076 A 
HETATM   15  N3  UNL     1      22.476   5.779  51.395  1.00  0.00    -0.298 N 
HETATM   16  N4  UNL     1      23.120   5.113  52.432  1.00  0.00    -0.298 N 
HETATM   17  C21 UNL     1      23.976   3.965  52.262  1.00  0.00     0.073 A 
HETATM   18  C22 UNL     1      24.127   2.949  53.114  1.00  0.00     0.020 A 
HETATM   19  H17 UNL     1      25.466   7.924  49.589  1.00  0.00     0.167 HD
HETATM   20  H21 UNL     1      21.834   4.992  51.156  1.00  0.00     0.187 HD
HETATM   21  H22 UNL     1      22.928   5.520  53.370  1.00  0.00     0.187 HD
ENDROOT
BRANCH   1  22
HETATM   22  C9  UNL     1      24.503   0.638  52.249  1.00  0.00     0.059 C 
BRANCH  22  23
HETATM   23  C8  UNL     1      23.283   0.189  52.912  1.00  0.00    -0.018 A 
HETATM   24  C2  UNL     1      23.405  -0.514  54.120  1.00  0.00     0.075 A 
HETATM   25  C3  UNL     1      22.279  -0.948  54.788  1.00  0.00     0.037 A 
HETATM   26  C4  UNL     1      21.006  -0.724  54.321  1.00  0.00     0.003 A 
HETATM   27  C5  UNL     1      20.866  -0.040  53.144  1.00  0.00     0.007 A 
HETATM   28  C6  UNL     1      21.990   0.397  52.473  1.00  0.00    -0.053 A 
HETATM   29  C7  UNL     1      21.797   1.127  51.219  1.00  0.00     0.049 C 
BRANCH  24  30
HETATM   30  O1  UNL     1      24.639  -0.766  54.626  1.00  0.00    -0.355 OA
HETATM   31  C1  UNL     1      25.050  -0.995  55.927  1.00  0.00     0.210 C 
ENDBRANCH  24  30
ENDBRANCH  22  23
ENDBRANCH   1  22
TORSDOF 3
ENDMDL
MODEL 5
REMARK VINA RESULT:      -8.9      6.753     10.802
REMARK  3 active torsions:
REMARK  status: ('A' for Active; 'I' for Inactive)
REMARK    1  A    between atoms: O1_2  and  C2_3 
REMARK    2  A    between atoms: C8_9  and  C9_10 
REMARK    3  A    between atoms: C9_10  and  C10_11 
ROOT
HETATM    1  C10 UNL     1      24.853   3.612  50.286  1.00  0.00    -0.000 A 
HETATM    2  C11 UNL     1      23.844   3.000  49.385  1.00  0.00     0.024 C 
HETATM    3  C12 UNL     1      24.628   5.112  50.138  1.00  0.00     0.021 A 
HETATM    4  C13 UNL     1      25.649   5.740  49.597  1.00  0.00     0.083 A 
HETATM    5  N1  UNL     1      26.155   7.028  49.170  1.00  0.00    -0.242 NA
HETATM    6  C14 UNL     1      26.602   7.114  47.946  1.00  0.00     0.208 C 
HETATM    7  N2  UNL     1      27.152   8.221  47.259  1.00  0.00    -0.348 N 
HETATM    8  C15 UNL     1      28.546   8.248  47.610  1.00  0.00     0.083 A 
HETATM    9  C16 UNL     1      29.217   9.357  47.143  1.00  0.00     0.063 A 
HETATM   10 CL1  UNL     1      28.441  10.616  46.217  1.00  0.00    -0.082 Cl
HETATM   11  C17 UNL     1      30.558   9.446  47.440  1.00  0.00     0.026 A 
HETATM   12  C18 UNL     1      31.300   8.532  48.159  1.00  0.00     0.004 A 
HETATM   13  C19 UNL     1      30.567   7.451  48.594  1.00  0.00     0.033 A 
HETATM   14  C20 UNL     1      29.232   7.301  48.334  1.00  0.00     0.076 A 
HETATM   15  N3  UNL     1      28.691   6.116  48.879  1.00  0.00    -0.298 N 
HETATM   16  N4  UNL     1      27.945   4.958  48.696  1.00  0.00    -0.298 N 
HETATM   17  C21 UNL     1      26.665   4.703  49.309  1.00  0.00     0.073 A 
HETATM   18  C22 UNL     1      26.188   3.518  49.698  1.00  0.00     0.020 A 
HETATM   19  H17 UNL     1      26.735   8.920  46.619  1.00  0.00     0.167 HD
HETATM   20  H21 UNL     1      28.900   5.941  49.887  1.00  0.00     0.187 HD
HETATM   21  H22 UNL     1      28.398   4.266  48.064  1.00  0.00     0.187 HD
ENDROOT
BRANCH   1  22
HETATM   22  C9  UNL     1      24.758   3.355  51.737  1.00  0.00     0.059 C 
BRANCH  22  23
HETATM   23  C8  UNL     1      23.971   2.213  52.192  1.00  0.00    -0.018 A 
HETATM   24  C2  UNL     1      22.607   2.411  52.456  1.00  0.00     0.075 A 
HETATM   25  C3  UNL     1      21.821   1.358  52.878  1.00  0.00     0.037 A 
HETATM   26  C4  UNL     1      22.315   0.089  53.061  1.00  0.00     0.003 A 
HETATM   27  C5  UNL     1      23.643  -0.123  52.810  1.00  0.00     0.007 A 
HETATM   28  C6  UNL     1      24.433   0.926  52.387  1.00  0.00    -0.053 A 
HETATM   29  C7  UNL     1      25.849   0.656  52.126  1.00  0.00     0.049 C 
BRANCH  24  30
HETATM   30  O1  UNL     1      22.066   3.645  52.294  1.00  0.00    -0.355 OA
HETATM   31  C1  UNL     1      20.904   4.044  51.657  1.00  0.00     0.210 C 
ENDBRANCH  24  30
ENDBRANCH  22  23
ENDBRANCH   1  22
TORSDOF 3
ENDMDL
MODEL 6
REMARK VINA RESULT:      -8.8      6.759     10.710
REMARK  3 active torsions:
REMARK  status: ('A' for Active; 'I' for Inactive)
REMARK    1  A    between atoms: O1_2  and  C2_3 
REMARK    2  A    between atoms: C8_9  and  C9_10 
REMARK    3  A    between atoms: C9_10  and  C10_11 
ROOT
HETATM    1  C10 UNL     1      24.958   3.718  50.267  1.00  0.00    -0.000 A 
HETATM    2  C11 UNL     1      24.050   3.001  49.339  1.00  0.00     0.024 C 
HETATM    3  C12 UNL     1      24.638   5.191  50.044  1.00  0.00     0.021 A 
HETATM    4  C13 UNL     1      25.642   5.871  49.534  1.00  0.00     0.083 A 
HETATM    5  N1  UNL     1      26.079   7.175  49.081  1.00  0.00    -0.242 NA
HETATM    6  C14 UNL     1      26.590   7.246  47.881  1.00  0.00     0.208 C 
HETATM    7  N2  UNL     1      27.099   8.363  47.179  1.00  0.00    -0.348 N 
HETATM    8  C15 UNL     1      28.465   8.505  47.606  1.00  0.00     0.083 A 
HETATM    9  C16 UNL     1      29.082   9.641  47.130  1.00  0.00     0.063 A 
HETATM   10 CL1  UNL     1      28.274  10.804  46.110  1.00  0.00    -0.082 Cl
HETATM   11  C17 UNL     1      30.394   9.839  47.496  1.00  0.00     0.026 A 
HETATM   12  C18 UNL     1      31.156   9.009  48.293  1.00  0.00     0.004 A 
HETATM   13  C19 UNL     1      30.476   7.895  48.732  1.00  0.00     0.033 A 
HETATM   14  C20 UNL     1      29.172   7.638  48.405  1.00  0.00     0.076 A 
HETATM   15  N3  UNL     1      28.686   6.440  48.969  1.00  0.00    -0.298 N 
HETATM   16  N4  UNL     1      28.036   5.223  48.795  1.00  0.00    -0.298 N 
HETATM   17  C21 UNL     1      26.743   4.900  49.347  1.00  0.00     0.073 A 
HETATM   18  C22 UNL     1      26.329   3.699  49.758  1.00  0.00     0.020 A 
HETATM   19  H17 UNL     1      26.671   9.006  46.488  1.00  0.00     0.167 HD
HETATM   20  H21 UNL     1      28.848   6.319  49.993  1.00  0.00     0.187 HD
HETATM   21  H22 UNL     1      28.572   4.543  48.219  1.00  0.00     0.187 HD
ENDROOT
BRANCH   1  22
HETATM   22  C9  UNL     1      24.798   3.510  51.720  1.00  0.00     0.059 C 
BRANCH  22  23
HETATM   23  C8  UNL     1      24.526   2.161  52.205  1.00  0.00    -0.018 A 
HETATM   24  C2  UNL     1      25.616   1.309  52.445  1.00  0.00     0.075 A 
HETATM   25  C3  UNL     1      25.407   0.029  52.913  1.00  0.00     0.037 A 
HETATM   26  C4  UNL     1      24.154  -0.474  53.166  1.00  0.00     0.003 A 
HETATM   27  C5  UNL     1      23.078   0.340  52.938  1.00  0.00     0.007 A 
HETATM   28  C6  UNL     1      23.282   1.622  52.470  1.00  0.00    -0.053 A 
HETATM   29  C7  UNL     1      22.104   2.462  52.242  1.00  0.00     0.049 C 
BRANCH  24  30
HETATM   30  O1  UNL     1      26.877   1.754  52.210  1.00  0.00    -0.355 OA
HETATM   31  C1  UNL     1      27.900   2.068  53.087  1.00  0.00     0.210 C 
ENDBRANCH  24  30
ENDBRANCH  22  23
ENDBRANCH   1  22
TORSDOF 3
ENDMDL
MODEL 7
REMARK VINA RESULT:      -8.7      5.716      8.984
REMARK  3 active torsions:
REMARK  status: ('A' for Active; 'I' for Inactive)
REMARK    1  A    between atoms: O1_2  and  C2_3 
REMARK    2  A    between atoms: C8_9  and  C9_10 
REMARK    3  A    between atoms: C9_10  and  C10_11 
ROOT
HETATM    1  C10 UNL     1      24.066   2.735  52.093  1.00  0.00    -0.000 A 
HETATM    2  C11 UNL     1      24.662   2.869  53.445  1.00  0.00     0.024 C 
HETATM    3  C12 UNL     1      25.259   2.806  51.147  1.00  0.00     0.021 A 
HETATM    4  C13 UNL     1      25.242   3.864  50.365  1.00  0.00     0.083 A 
HETATM    5  N1  UNL     1      25.942   4.569  49.312  1.00  0.00    -0.242 NA
HETATM    6  C14 UNL     1      26.203   5.833  49.515  1.00  0.00     0.208 C 
HETATM    7  N2  UNL     1      26.860   6.767  48.681  1.00  0.00    -0.348 N 
HETATM    8  C15 UNL     1      25.851   7.273  47.789  1.00  0.00     0.083 A 
HETATM    9  C16 UNL     1      26.344   8.096  46.800  1.00  0.00     0.063 A 
HETATM   10 CL1  UNL     1      28.040   8.479  46.642  1.00  0.00    -0.082 Cl
HETATM   11  C17 UNL     1      25.433   8.620  45.913  1.00  0.00     0.026 A 
HETATM   12  C18 UNL     1      24.070   8.406  45.916  1.00  0.00     0.004 A 
HETATM   13  C19 UNL     1      23.648   7.575  46.930  1.00  0.00     0.033 A 
HETATM   14  C20 UNL     1      24.501   7.021  47.845  1.00  0.00     0.076 A 
HETATM   15  N3  UNL     1      23.844   6.205  48.791  1.00  0.00    -0.298 N 
HETATM   16  N4  UNL     1      23.625   5.870  50.122  1.00  0.00    -0.298 N 
HETATM   17  C21 UNL     1      24.025   4.625  50.730  1.00  0.00     0.073 A 
HETATM   18  C22 UNL     1      23.390   3.973  51.706  1.00  0.00     0.020 A 
HETATM   19  H17 UNL     1      27.842   7.090  48.637  1.00  0.00     0.167 HD
HETATM   20  H21 UNL     1      23.193   5.488  48.401  1.00  0.00     0.187 HD
HETATM   21  H22 UNL     1      23.133   6.610  50.662  1.00  0.00     0.187 HD
ENDROOT
BRANCH   1  22
HETATM   22  C9  UNL     1      23.377   1.478  51.741  1.00  0.00     0.059 C 
BRANCH  22  23
HETATM   23  C8  UNL     1      22.717   0.724  52.803  1.00  0.00    -0.018 A 
HETATM   24  C2  UNL     1      23.440  -0.297  53.439  1.00  0.00     0.075 A 
HETATM   25  C3  UNL     1      22.861  -1.028  54.455  1.00  0.00     0.037 A 
HETATM   26  C4  UNL     1      21.577  -0.806  54.891  1.00  0.00     0.003 A 
HETATM   27  C5  UNL     1      20.856   0.185  54.283  1.00  0.00     0.007 A 
HETATM   28  C6  UNL     1      21.431   0.919  53.266  1.00  0.00    -0.053 A 
HETATM   29  C7  UNL     1      20.626   1.973  52.643  1.00  0.00     0.049 C 
BRANCH  24  30
HETATM   30  O1  UNL     1      24.712  -0.561  53.046  1.00  0.00    -0.355 OA
HETATM   31  C1  UNL     1      25.886  -0.623  53.776  1.00  0.00     0.210 C 
ENDBRANCH  24  30
ENDBRANCH  22  23
ENDBRANCH   1  22
TORSDOF 3
ENDMDL
MODEL 8
REMARK VINA RESULT:      -8.6      2.101      3.439
REMARK  3 active torsions:
REMARK  status: ('A' for Active; 'I' for Inactive)
REMARK    1  A    between atoms: O1_2  and  C2_3 
REMARK    2  A    between atoms: C8_9  and  C9_10 
REMARK    3  A    between atoms: C9_10  and  C10_11 
ROOT
HETATM    1  C10 UNL     1      20.570   0.780  52.220  1.00  0.00    -0.000 A 
HETATM    2  C11 UNL     1      20.433   2.178  52.696  1.00  0.00     0.024 C 
HETATM    3  C12 UNL     1      19.355   0.565  51.327  1.00  0.00     0.021 A 
HETATM    4  C13 UNL     1      18.518  -0.337  51.793  1.00  0.00     0.083 A 
HETATM    5  N1  UNL     1      17.270  -1.030  51.551  1.00  0.00    -0.242 NA
HETATM    6  C14 UNL     1      16.387  -1.015  52.514  1.00  0.00     0.208 C 
HETATM    7  N2  UNL     1      15.100  -1.599  52.571  1.00  0.00    -0.348 N 
HETATM    8  C15 UNL     1      15.305  -2.961  52.982  1.00  0.00     0.083 A 
HETATM    9  C16 UNL     1      14.162  -3.730  52.951  1.00  0.00     0.063 A 
HETATM   10 CL1  UNL     1      12.611  -3.106  52.449  1.00  0.00    -0.082 Cl
HETATM   11  C17 UNL     1      14.284  -5.045  53.337  1.00  0.00     0.026 A 
HETATM   12  C18 UNL     1      15.440  -5.673  53.755  1.00  0.00     0.004 A 
HETATM   13  C19 UNL     1      16.541  -4.846  53.761  1.00  0.00     0.033 A 
HETATM   14  C20 UNL     1      16.488  -3.529  53.390  1.00  0.00     0.076 A 
HETATM   15  N3  UNL     1      17.739  -2.880  53.477  1.00  0.00    -0.298 N 
HETATM   16  N4  UNL     1      18.486  -1.798  53.928  1.00  0.00    -0.298 N 
HETATM   17  C21 UNL     1      19.094  -0.809  53.072  1.00  0.00     0.073 A 
HETATM   18  C22 UNL     1      20.239  -0.160  53.291  1.00  0.00     0.020 A 
HETATM   19  H17 UNL     1      14.155  -1.220  52.381  1.00  0.00     0.167 HD
HETATM   20  H21 UNL     1      18.539  -3.369  53.018  1.00  0.00     0.187 HD
HETATM   21  H22 UNL     1      18.578  -1.758  54.963  1.00  0.00     0.187 HD
ENDROOT
BRANCH   1  22
HETATM   22  C9  UNL     1      21.729   0.426  51.376  1.00  0.00     0.059 C 
BRANCH  22  23
HETATM   23  C8  UNL     1      22.847   1.362  51.301  1.00  0.00    -0.018 A 
HETATM   24  C2  UNL     1      23.823   1.311  52.308  1.00  0.00     0.075 A 
HETATM   25  C3  UNL     1      24.903   2.168  52.272  1.00  0.00     0.037 A 
HETATM   26  C4  UNL     1      25.081   3.098  51.276  1.00  0.00     0.003 A 
HETATM   27  C5  UNL     1      24.139   3.163  50.285  1.00  0.00     0.007 A 
HETATM   28  C6  UNL     1      23.057   2.307  50.317  1.00  0.00    -0.053 A 
HETATM   29  C7  UNL     1      22.074   2.408  49.236  1.00  0.00     0.049 C 
BRANCH  24  30
HETATM   30  O1  UNL     1      23.697   0.413  53.318  1.00  0.00    -0.355 OA
HETATM   31  C1  UNL     1      24.625  -0.444  53.884  1.00  0.00     0.210 C 
ENDBRANCH  24  30
ENDBRANCH  22  23
ENDBRANCH   1  22
TORSDOF 3
ENDMDL
MODEL 9
REMARK VINA RESULT:      -8.5      5.827      9.117
REMARK  3 active torsions:
REMARK  status: ('A' for Active; 'I' for Inactive)
REMARK    1  A    between atoms: O1_2  and  C2_3 
REMARK    2  A    between atoms: C8_9  and  C9_10 
REMARK    3  A    between atoms: C9_10  and  C10_11 
ROOT
HETATM    1  C10 UNL     1      24.161   2.735  52.088  1.00  0.00    -0.000 A 
HETATM    2  C11 UNL     1      24.704   2.923  53.456  1.00  0.00     0.024 C 
HETATM    3  C12 UNL     1      25.377   2.866  51.180  1.00  0.00     0.021 A 
HETATM    4  C13 UNL     1      25.322   3.911  50.381  1.00  0.00     0.083 A 
HETATM    5  N1  UNL     1      26.012   4.642  49.340  1.00  0.00    -0.242 NA
HETATM    6  C14 UNL     1      26.189   5.922  49.532  1.00  0.00     0.208 C 
HETATM    7  N2  UNL     1      26.815   6.883  48.704  1.00  0.00    -0.348 N 
HETATM    8  C15 UNL     1      25.808   7.315  47.773  1.00  0.00     0.083 A 
HETATM    9  C16 UNL     1      26.281   8.152  46.787  1.00  0.00     0.063 A 
HETATM   10 CL1  UNL     1      27.955   8.636  46.677  1.00  0.00    -0.082 Cl
HETATM   11  C17 UNL     1      25.369   8.608  45.864  1.00  0.00     0.026 A 
HETATM   12  C18 UNL     1      24.023   8.311  45.827  1.00  0.00     0.004 A 
HETATM   13  C19 UNL     1      23.618   7.470  46.840  1.00  0.00     0.033 A 
HETATM   14  C20 UNL     1      24.474   6.981  47.790  1.00  0.00     0.076 A 
HETATM   15  N3  UNL     1      23.837   6.140  48.727  1.00  0.00    -0.298 N 
HETATM   16  N4  UNL     1      23.595   5.810  50.056  1.00  0.00    -0.298 N 
HETATM   17  C21 UNL     1      24.050   4.600  50.696  1.00  0.00     0.073 A 
HETATM   18  C22 UNL     1      23.425   3.924  51.661  1.00  0.00     0.020 A 
HETATM   19  H17 UNL     1      27.777   7.265  48.686  1.00  0.00     0.167 HD
HETATM   20  H21 UNL     1      23.243   5.379  48.328  1.00  0.00     0.187 HD
HETATM   21  H22 UNL     1      23.042   6.526  50.569  1.00  0.00     0.187 HD
ENDROOT
BRANCH   1  22
HETATM   22  C9  UNL     1      23.561   1.433  51.734  1.00  0.00     0.059 C 
BRANCH  22  23
HETATM   23  C8  UNL     1      22.883   0.672  52.778  1.00  0.00    -0.018 A 
HETATM   24  C2  UNL     1      21.526   0.939  53.019  1.00  0.00     0.075 A 
HETATM   25  C3  UNL     1      20.841   0.237  53.988  1.00  0.00     0.037 A 
HETATM   26  C4  UNL     1      21.431  -0.738  54.756  1.00  0.00     0.003 A 
HETATM   27  C5  UNL     1      22.754  -1.013  54.537  1.00  0.00     0.007 A 
HETATM   28  C6  UNL     1      23.443  -0.313  53.567  1.00  0.00    -0.053 A 
HETATM   29  C7  UNL     1      24.856  -0.639  53.363  1.00  0.00     0.049 C 
BRANCH  24  30
HETATM   30  O1  UNL     1      20.893   1.894  52.291  1.00  0.00    -0.355 OA
HETATM   31  C1  UNL     1      19.548   2.198  52.179  1.00  0.00     0.210 C 
ENDBRANCH  24  30
ENDBRANCH  22  23
ENDBRANCH   1  22
TORSDOF 3
ENDMDL
