MODEL 1
REMARK VINA RESULT:      -8.0      0.000      0.000
REMARK  0 active torsions:
REMARK  status: ('A' for Active; 'I' for Inactive)
ROOT
HETATM    1  C1  UNL     1      22.019   5.272  51.942  1.00  0.00     0.048 C 
HETATM    2  C2  UNL     1      22.012   3.776  51.714  1.00  0.00    -0.064 C 
HETATM    3  C3  UNL     1      23.179   3.336  51.265  1.00  0.00    -0.014 C 
HETATM    4  C4  UNL     1      23.831   2.102  50.859  1.00  0.00     0.084 C 
HETATM    5  C5  UNL     1      24.969   1.707  51.728  1.00  0.00     0.037 C 
HETATM    6  N1  UNL     1      24.467   1.570  52.944  1.00  0.00    -0.179 NA
HETATM    7  N2  UNL     1      24.291   0.286  53.467  1.00  0.00    -0.242 N 
HETATM    8  C6  UNL     1      25.145  -0.777  53.897  1.00  0.00     0.188 C 
HETATM    9  C7  UNL     1      26.501  -0.412  53.324  1.00  0.00    -0.055 A 
HETATM   10  C8  UNL     1      27.814  -0.138  53.044  1.00  0.00    -0.012 A 
HETATM   11  C9  UNL     1      26.762   0.011  52.004  1.00  0.00     0.044 A 
HETATM   12  C10 UNL     1      26.422   1.431  51.616  1.00  0.00     0.069 C 
HETATM   13  C11 UNL     1      22.967  -0.207  53.663  1.00  0.00     0.192 A 
HETATM   14  N3  UNL     1      22.097   0.141  52.919  1.00  0.00    -0.198 NA
HETATM   15  C12 UNL     1      20.837  -0.270  53.031  1.00  0.00     0.178 A 
HETATM   16  C13 UNL     1      20.464  -1.173  54.078  1.00  0.00     0.111 A 
HETATM   17  S1  UNL     1      22.201  -1.360  54.905  1.00  0.00    -0.058 SA
HETATM   18  O1  UNL     1      20.515   0.508  51.909  1.00  0.00    -0.304 OA
HETATM   19  C14 UNL     1      20.275   1.878  52.120  1.00  0.00     0.145 C 
HETATM   20  C15 UNL     1      20.769   3.106  52.070  1.00  0.00     0.031 C 
ENDROOT
TORSDOF 0
ENDMDL
MODEL 2
REMARK VINA RESULT:      -7.5      2.516      3.293
REMARK  0 active torsions:
REMARK  status: ('A' for Active; 'I' for Inactive)
ROOT
HETATM    1  C1  UNL     1      25.501   6.469  49.902  1.00  0.00     0.048 C 
HETATM    2  C2  UNL     1      25.124   5.035  49.600  1.00  0.00    -0.064 C 
HETATM    3  C3  UNL     1      26.028   4.178  50.051  1.00  0.00    -0.014 C 
HETATM    4  C4  UNL     1      26.290   2.749  50.104  1.00  0.00     0.084 C 
HETATM    5  C5  UNL     1      26.300   2.188  51.480  1.00  0.00     0.037 C 
HETATM    6  N1  UNL     1      25.106   2.444  51.985  1.00  0.00    -0.179 NA
HETATM    7  N2  UNL     1      24.185   1.400  52.121  1.00  0.00    -0.242 N 
HETATM    8  C6  UNL     1      24.075   0.224  52.925  1.00  0.00     0.188 C 
HETATM    9  C7  UNL     1      25.468   0.035  53.492  1.00  0.00    -0.055 A 
HETATM   10  C8  UNL     1      26.604  -0.172  54.230  1.00  0.00    -0.012 A 
HETATM   11  C9  UNL     1      26.678   0.100  52.771  1.00  0.00     0.044 A 
HETATM   12  C10 UNL     1      27.220   1.457  52.385  1.00  0.00     0.069 C 
HETATM   13  C11 UNL     1      23.022   1.391  51.296  1.00  0.00     0.192 A 
HETATM   14  N3  UNL     1      23.084   1.848  50.191  1.00  0.00    -0.198 NA
HETATM   15  C12 UNL     1      22.048   1.879  49.358  1.00  0.00     0.178 A 
HETATM   16  C13 UNL     1      20.781   1.349  49.765  1.00  0.00     0.111 A 
HETATM   17  S1  UNL     1      21.281   0.787  51.546  1.00  0.00    -0.058 SA
HETATM   18  O1  UNL     1      22.871   2.495  48.405  1.00  0.00    -0.304 OA
HETATM   19  C14 UNL     1      23.056   3.885  48.511  1.00  0.00     0.145 C 
HETATM   20  C15 UNL     1      23.841   4.866  48.929  1.00  0.00     0.031 C 
ENDROOT
TORSDOF 0
ENDMDL
MODEL 3
REMARK VINA RESULT:      -7.4      2.348      4.249
REMARK  0 active torsions:
REMARK  status: ('A' for Active; 'I' for Inactive)
ROOT
HETATM    1  C1  UNL     1      17.940  -0.515  51.379  1.00  0.00     0.048 C 
HETATM    2  C2  UNL     1      18.828   0.546  51.991  1.00  0.00    -0.064 C 
HETATM    3  C3  UNL     1      19.739   0.025  52.800  1.00  0.00    -0.014 C 
HETATM    4  C4  UNL     1      20.837   0.432  53.661  1.00  0.00     0.084 C 
HETATM    5  C5  UNL     1      22.166  -0.063  53.219  1.00  0.00     0.037 C 
HETATM    6  N1  UNL     1      22.348   0.420  52.002  1.00  0.00    -0.179 NA
HETATM    7  N2  UNL     1      23.251   1.472  51.815  1.00  0.00    -0.242 N 
HETATM    8  C6  UNL     1      24.668   1.637  51.897  1.00  0.00     0.188 C 
HETATM    9  C7  UNL     1      25.139   0.408  52.651  1.00  0.00    -0.055 A 
HETATM   10  C8  UNL     1      25.743  -0.717  53.145  1.00  0.00    -0.012 A 
HETATM   11  C9  UNL     1      24.573  -0.112  53.833  1.00  0.00     0.044 A 
HETATM   12  C10 UNL     1      23.282  -0.892  53.737  1.00  0.00     0.069 C 
HETATM   13  C11 UNL     1      22.752   2.758  51.455  1.00  0.00     0.192 A 
HETATM   14  N3  UNL     1      21.678   3.102  51.855  1.00  0.00    -0.198 NA
HETATM   15  C12 UNL     1      21.139   4.283  51.567  1.00  0.00     0.178 A 
HETATM   16  C13 UNL     1      21.846   5.216  50.742  1.00  0.00     0.111 A 
HETATM   17  S1  UNL     1      23.428   4.150  50.424  1.00  0.00    -0.058 SA
HETATM   18  O1  UNL     1      20.019   3.926  52.332  1.00  0.00    -0.304 OA
HETATM   19  C14 UNL     1      19.041   3.127  51.714  1.00  0.00     0.145 C 
HETATM   20  C15 UNL     1      18.555   1.907  51.547  1.00  0.00     0.031 C 
ENDROOT
TORSDOF 0
ENDMDL
MODEL 4
REMARK VINA RESULT:      -7.4      2.292      4.636
REMARK  0 active torsions:
REMARK  status: ('A' for Active; 'I' for Inactive)
ROOT
HETATM    1  C1  UNL     1      22.652   2.991  48.034  1.00  0.00     0.048 C 
HETATM    2  C2  UNL     1      23.237   3.054  49.428  1.00  0.00    -0.064 C 
HETATM    3  C3  UNL     1      22.322   2.836  50.361  1.00  0.00    -0.014 C 
HETATM    4  C4  UNL     1      22.193   2.759  51.807  1.00  0.00     0.084 C 
HETATM    5  C5  UNL     1      21.808   1.414  52.306  1.00  0.00     0.037 C 
HETATM    6  N1  UNL     1      22.756   0.589  51.896  1.00  0.00    -0.179 NA
HETATM    7  N2  UNL     1      23.682   0.101  52.823  1.00  0.00    -0.242 N 
HETATM    8  C6  UNL     1      23.647  -0.785  53.944  1.00  0.00     0.188 C 
HETATM    9  C7  UNL     1      22.171  -0.913  54.265  1.00  0.00    -0.055 A 
HETATM   10  C8  UNL     1      20.887  -1.283  54.567  1.00  0.00    -0.012 A 
HETATM   11  C9  UNL     1      21.245   0.146  54.367  1.00  0.00     0.044 A 
HETATM   12  C10 UNL     1      20.725   0.780  53.098  1.00  0.00     0.069 C 
HETATM   13  C11 UNL     1      25.040   0.529  52.737  1.00  0.00     0.192 A 
HETATM   14  N3  UNL     1      25.282   1.631  52.337  1.00  0.00    -0.198 NA
HETATM   15  C12 UNL     1      26.518   2.109  52.225  1.00  0.00     0.178 A 
HETATM   16  C13 UNL     1      27.640   1.296  52.591  1.00  0.00     0.111 A 
HETATM   17  S1  UNL     1      26.666  -0.284  53.129  1.00  0.00    -0.058 SA
HETATM   18  O1  UNL     1      25.978   3.311  51.747  1.00  0.00    -0.304 OA
HETATM   19  C14 UNL     1      25.640   3.371  50.383  1.00  0.00     0.145 C 
HETATM   20  C15 UNL     1      24.675   3.287  49.480  1.00  0.00     0.031 C 
ENDROOT
TORSDOF 0
ENDMDL
MODEL 5
REMARK VINA RESULT:      -7.3      2.482      5.707
REMARK  0 active torsions:
REMARK  status: ('A' for Active; 'I' for Inactive)
ROOT
HETATM    1  C1  UNL     1      27.961   0.312  54.948  1.00  0.00     0.048 C 
HETATM    2  C2  UNL     1      27.155   0.562  53.692  1.00  0.00    -0.064 C 
HETATM    3  C3  UNL     1      26.133  -0.275  53.582  1.00  0.00    -0.014 C 
HETATM    4  C4  UNL     1      25.029  -0.583  52.689  1.00  0.00     0.084 C 
HETATM    5  C5  UNL     1      23.688  -0.353  53.288  1.00  0.00     0.037 C 
HETATM    6  N1  UNL     1      23.653   0.926  53.620  1.00  0.00    -0.179 NA
HETATM    7  N2  UNL     1      22.891   1.809  52.849  1.00  0.00    -0.242 N 
HETATM    8  C6  UNL     1      21.500   2.022  52.601  1.00  0.00     0.188 C 
HETATM    9  C7  UNL     1      20.838   0.756  53.111  1.00  0.00    -0.055 A 
HETATM   10  C8  UNL     1      20.075  -0.225  53.687  1.00  0.00    -0.012 A 
HETATM   11  C9  UNL     1      21.253  -0.566  52.847  1.00  0.00     0.044 A 
HETATM   12  C10 UNL     1      22.450  -1.113  53.589  1.00  0.00     0.069 C 
HETATM   13  C11 UNL     1      23.558   2.791  52.058  1.00  0.00     0.192 A 
HETATM   14  N3  UNL     1      24.632   2.539  51.594  1.00  0.00    -0.198 NA
HETATM   15  C12 UNL     1      25.321   3.396  50.847  1.00  0.00     0.178 A 
HETATM   16  C13 UNL     1      24.787   4.694  50.561  1.00  0.00     0.111 A 
HETATM   17  S1  UNL     1      23.123   4.520  51.530  1.00  0.00    -0.058 SA
HETATM   18  O1  UNL     1      26.333   2.432  50.728  1.00  0.00    -0.304 OA
HETATM   19  C14 UNL     1      27.258   2.331  51.782  1.00  0.00     0.145 C 
HETATM   20  C15 UNL     1      27.613   1.683  52.882  1.00  0.00     0.031 C 
ENDROOT
TORSDOF 0
ENDMDL
MODEL 6
REMARK VINA RESULT:      -7.3      1.865      4.887
REMARK  0 active torsions:
REMARK  status: ('A' for Active; 'I' for Inactive)
ROOT
HETATM    1  C1  UNL     1      26.540   0.073  51.993  1.00  0.00     0.048 C 
HETATM    2  C2  UNL     1      25.305   0.546  52.727  1.00  0.00    -0.064 C 
HETATM    3  C3  UNL     1      25.187   1.866  52.703  1.00  0.00    -0.014 C 
HETATM    4  C4  UNL     1      24.307   2.921  53.176  1.00  0.00     0.084 C 
HETATM    5  C5  UNL     1      23.641   3.684  52.088  1.00  0.00     0.037 C 
HETATM    6  N1  UNL     1      22.946   2.797  51.396  1.00  0.00    -0.179 NA
HETATM    7  N2  UNL     1      21.554   2.769  51.528  1.00  0.00    -0.242 N 
HETATM    8  C6  UNL     1      20.470   3.629  51.172  1.00  0.00     0.188 C 
HETATM    9  C7  UNL     1      21.138   4.955  50.864  1.00  0.00    -0.055 A 
HETATM   10  C8  UNL     1      21.591   6.151  50.373  1.00  0.00    -0.012 A 
HETATM   11  C9  UNL     1      22.119   5.596  51.648  1.00  0.00     0.044 A 
HETATM   12  C10 UNL     1      23.538   5.081  51.599  1.00  0.00     0.069 C 
HETATM   13  C11 UNL     1      20.942   1.654  52.171  1.00  0.00     0.192 A 
HETATM   14  N3  UNL     1      21.527   1.090  53.050  1.00  0.00    -0.198 NA
HETATM   15  C12 UNL     1      21.029   0.043  53.701  1.00  0.00     0.178 A 
HETATM   16  C13 UNL     1      19.732  -0.464  53.364  1.00  0.00     0.111 A 
HETATM   17  S1  UNL     1      19.310   0.789  51.953  1.00  0.00    -0.058 SA
HETATM   18  O1  UNL     1      22.202  -0.001  54.468  1.00  0.00    -0.304 OA
HETATM   19  C14 UNL     1      23.316  -0.652  53.910  1.00  0.00     0.145 C 
HETATM   20  C15 UNL     1      24.467  -0.516  53.269  1.00  0.00     0.031 C 
ENDROOT
TORSDOF 0
ENDMDL
MODEL 7
REMARK VINA RESULT:      -7.3      2.829      4.566
REMARK  0 active torsions:
REMARK  status: ('A' for Active; 'I' for Inactive)
ROOT
HETATM    1  C1  UNL     1      22.112  -1.378  53.452  1.00  0.00     0.048 C 
HETATM    2  C2  UNL     1      22.039   0.124  53.288  1.00  0.00    -0.064 C 
HETATM    3  C3  UNL     1      23.242   0.675  53.218  1.00  0.00    -0.014 C 
HETATM    4  C4  UNL     1      23.872   1.977  53.073  1.00  0.00     0.084 C 
HETATM    5  C5  UNL     1      24.650   2.135  51.817  1.00  0.00     0.037 C 
HETATM    6  N1  UNL     1      23.792   1.939  50.831  1.00  0.00    -0.179 NA
HETATM    7  N2  UNL     1      23.349   3.037  50.087  1.00  0.00    -0.242 N 
HETATM    8  C6  UNL     1      23.932   3.952  49.157  1.00  0.00     0.188 C 
HETATM    9  C7  UNL     1      25.425   3.762  49.341  1.00  0.00    -0.055 A 
HETATM   10  C8  UNL     1      26.780   3.582  49.248  1.00  0.00    -0.012 A 
HETATM   11  C9  UNL     1      26.113   3.708  50.571  1.00  0.00     0.044 A 
HETATM   12  C10 UNL     1      26.038   2.441  51.390  1.00  0.00     0.069 C 
HETATM   13  C11 UNL     1      21.989   3.450  50.205  1.00  0.00     0.192 A 
HETATM   14  N3  UNL     1      21.422   3.307  51.248  1.00  0.00    -0.198 NA
HETATM   15  C12 UNL     1      20.156   3.665  51.444  1.00  0.00     0.178 A 
HETATM   16  C13 UNL     1      19.402   4.254  50.378  1.00  0.00     0.111 A 
HETATM   17  S1  UNL     1      20.781   4.226  49.023  1.00  0.00    -0.058 SA
HETATM   18  O1  UNL     1      20.263   3.211  52.767  1.00  0.00    -0.304 OA
HETATM   19  C14 UNL     1      20.096   1.834  52.993  1.00  0.00     0.145 C 
HETATM   20  C15 UNL     1      20.691   0.667  53.189  1.00  0.00     0.031 C 
ENDROOT
TORSDOF 0
ENDMDL
MODEL 8
REMARK VINA RESULT:      -7.3      2.024      3.403
REMARK  0 active torsions:
REMARK  status: ('A' for Active; 'I' for Inactive)
ROOT
HETATM    1  C1  UNL     1      19.666   2.812  52.350  1.00  0.00     0.048 C 
HETATM    2  C2  UNL     1      20.819   1.861  52.117  1.00  0.00    -0.064 C 
HETATM    3  C3  UNL     1      21.517   2.181  51.037  1.00  0.00    -0.014 C 
HETATM    4  C4  UNL     1      22.670   1.732  50.274  1.00  0.00     0.084 C 
HETATM    5  C5  UNL     1      23.798   2.699  50.261  1.00  0.00     0.037 C 
HETATM    6  N1  UNL     1      24.139   2.875  51.526  1.00  0.00    -0.179 NA
HETATM    7  N2  UNL     1      25.319   2.293  52.001  1.00  0.00    -0.242 N 
HETATM    8  C6  UNL     1      26.719   2.483  51.785  1.00  0.00     0.188 C 
HETATM    9  C7  UNL     1      26.786   3.320  50.523  1.00  0.00    -0.055 A 
HETATM   10  C8  UNL     1      27.017   4.219  49.515  1.00  0.00    -0.012 A 
HETATM   11  C9  UNL     1      26.068   3.090  49.331  1.00  0.00     0.044 A 
HETATM   12  C10 UNL     1      24.606   3.467  49.281  1.00  0.00     0.069 C 
HETATM   13  C11 UNL     1      25.234   1.223  52.940  1.00  0.00     0.192 A 
HETATM   14  N3  UNL     1      24.304   0.471  52.888  1.00  0.00    -0.198 NA
HETATM   15  C12 UNL     1      24.149  -0.551  53.724  1.00  0.00     0.178 A 
HETATM   16  C13 UNL     1      25.118  -0.797  54.749  1.00  0.00     0.111 A 
HETATM   17  S1  UNL     1      26.314   0.668  54.348  1.00  0.00    -0.058 SA
HETATM   18  O1  UNL     1      22.959  -0.877  53.057  1.00  0.00    -0.304 OA
HETATM   19  C14 UNL     1      21.798  -0.171  53.421  1.00  0.00     0.145 C 
HETATM   20  C15 UNL     1      20.974   0.823  53.128  1.00  0.00     0.031 C 
ENDROOT
TORSDOF 0
ENDMDL
MODEL 9
REMARK VINA RESULT:      -6.9      2.055      5.033
REMARK  0 active torsions:
REMARK  status: ('A' for Active; 'I' for Inactive)
ROOT
HETATM    1  C1  UNL     1      26.686   3.720  49.184  1.00  0.00     0.048 C 
HETATM    2  C2  UNL     1      26.093   3.466  50.553  1.00  0.00    -0.064 C 
HETATM    3  C3  UNL     1      24.960   4.130  50.734  1.00  0.00    -0.014 C 
HETATM    4  C4  UNL     1      23.933   4.339  51.741  1.00  0.00     0.084 C 
HETATM    5  C5  UNL     1      22.592   3.834  51.347  1.00  0.00     0.037 C 
HETATM    6  N1  UNL     1      22.743   2.540  51.122  1.00  0.00    -0.179 NA
HETATM    7  N2  UNL     1      22.245   1.624  52.054  1.00  0.00    -0.242 N 
HETATM    8  C6  UNL     1      20.952   1.211  52.501  1.00  0.00     0.188 C 
HETATM    9  C7  UNL     1      20.023   2.295  51.989  1.00  0.00    -0.055 A 
HETATM   10  C8  UNL     1      19.036   3.075  51.447  1.00  0.00    -0.012 A 
HETATM   11  C9  UNL     1      20.227   3.686  52.093  1.00  0.00     0.044 A 
HETATM   12  C10 UNL     1      21.213   4.347  51.158  1.00  0.00     0.069 C 
HETATM   13  C11 UNL     1      23.164   0.848  52.820  1.00  0.00     0.192 A 
HETATM   14  N3  UNL     1      24.224   1.318  53.115  1.00  0.00    -0.198 NA
HETATM   15  C12 UNL     1      25.137   0.664  53.827  1.00  0.00     0.178 A 
HETATM   16  C13 UNL     1      24.877  -0.670  54.280  1.00  0.00     0.111 A 
HETATM   17  S1  UNL     1      23.105  -0.869  53.533  1.00  0.00    -0.058 SA
HETATM   18  O1  UNL     1      25.971   1.788  53.735  1.00  0.00    -0.304 OA
HETATM   19  C14 UNL     1      26.732   1.935  52.561  1.00  0.00     0.145 C 
HETATM   20  C15 UNL     1      26.833   2.521  51.378  1.00  0.00     0.031 C 
ENDROOT
TORSDOF 0
ENDMDL
