MODEL 1
REMARK VINA RESULT:      -8.1      0.000      0.000
REMARK  1 active torsions:
REMARK  status: ('A' for Active; 'I' for Inactive)
REMARK    1  A    between atoms: O1_2  and  C2_3 
ROOT
HETATM    1  C2  UNL     1      24.921   2.611  50.719  1.00  0.00     0.095 C 
HETATM    2  C3  UNL     1      25.493   2.224  51.836  1.00  0.00     0.143 A 
HETATM    3  C4  UNL     1      26.558   2.120  52.796  1.00  0.00     0.065 A 
HETATM    4  S1  UNL     1      25.279   1.122  52.864  1.00  0.00     0.005 SA
HETATM    5  C5  UNL     1      25.839  -0.273  53.456  1.00  0.00     0.200 A 
HETATM    6  C6  UNL     1      27.190  -0.540  53.844  1.00  0.00     0.061 C 
HETATM    7  C7  UNL     1      28.114   0.422  53.732  1.00  0.00    -0.007 C 
HETATM    8 BR1  UNL     1      29.794  -0.507  53.457  1.00  0.00    -0.056 Br
HETATM    9  C8  UNL     1      27.481   1.790  53.875  1.00  0.00     0.070 C 
HETATM   10  N1  UNL     1      24.539  -0.517  53.242  1.00  0.00     0.054 N 
HETATM   11  C9  UNL     1      23.221  -0.165  53.370  1.00  0.00     0.258 A 
HETATM   12  N2  UNL     1      22.778  -0.718  54.499  1.00  0.00    -0.216 NA
HETATM   13  C10 UNL     1      21.512  -0.532  54.958  1.00  0.00     0.235 A 
HETATM   14  N3  UNL     1      20.640   0.230  54.280  1.00  0.00    -0.253 NA
HETATM   15  C11 UNL     1      21.144   0.771  53.129  1.00  0.00     0.133 A 
HETATM   16  C12 UNL     1      22.436   0.632  52.581  1.00  0.00     0.040 A 
HETATM   17  C13 UNL     1      22.614   1.364  51.332  1.00  0.00     0.056 C 
HETATM   18  C14 UNL     1      23.574   2.051  50.762  1.00  0.00     0.099 C 
HETATM   19  O2  UNL     1      23.131   2.483  49.626  1.00  0.00    -0.353 OA
HETATM   20  C15 UNL     1      22.705   2.882  48.463  1.00  0.00     0.210 C 
HETATM   21  H8  UNL     1      24.773  -1.462  52.769  1.00  0.00     0.310 HD
ENDROOT
BRANCH   1  22
HETATM   22  O1  UNL     1      25.432   3.384  49.674  1.00  0.00    -0.356 OA
HETATM   23  C1  UNL     1      25.668   4.759  50.018  1.00  0.00     0.209 C 
ENDBRANCH   1  22
TORSDOF 1
ENDMDL
MODEL 2
REMARK VINA RESULT:      -8.0      3.555      5.634
REMARK  1 active torsions:
REMARK  status: ('A' for Active; 'I' for Inactive)
REMARK    1  A    between atoms: O1_2  and  C2_3 
ROOT
HETATM    1  C2  UNL     1      22.563   1.381  52.932  1.00  0.00     0.095 C 
HETATM    2  C3  UNL     1      23.170   2.494  52.590  1.00  0.00     0.143 A 
HETATM    3  C4  UNL     1      23.256   3.850  52.121  1.00  0.00     0.065 A 
HETATM    4  S1  UNL     1      24.572   2.901  52.159  1.00  0.00     0.005 SA
HETATM    5  C5  UNL     1      25.499   3.382  50.926  1.00  0.00     0.200 A 
HETATM    6  C6  UNL     1      25.199   4.441  50.012  1.00  0.00     0.061 C 
HETATM    7  C7  UNL     1      24.062   5.133  50.150  1.00  0.00    -0.007 C 
HETATM    8 BR1  UNL     1      23.609   5.741  48.364  1.00  0.00    -0.056 Br
HETATM    9  C8  UNL     1      23.625   5.160  51.599  1.00  0.00     0.070 C 
HETATM   10  N1  UNL     1      26.192   2.373  51.470  1.00  0.00     0.054 N 
HETATM   11  C9  UNL     1      26.729   1.746  52.565  1.00  0.00     0.258 A 
HETATM   12  N2  UNL     1      27.969   2.213  52.712  1.00  0.00    -0.216 NA
HETATM   13  C10 UNL     1      28.777   1.832  53.736  1.00  0.00     0.235 A 
HETATM   14  N3  UNL     1      28.352   0.954  54.658  1.00  0.00    -0.253 NA
HETATM   15  C11 UNL     1      27.076   0.506  54.458  1.00  0.00     0.133 A 
HETATM   16  C12 UNL     1      26.172   0.845  53.431  1.00  0.00     0.040 A 
HETATM   17  C13 UNL     1      24.886   0.165  53.547  1.00  0.00     0.056 C 
HETATM   18  C14 UNL     1      23.629   0.469  53.335  1.00  0.00     0.099 C 
HETATM   19  O2  UNL     1      22.915  -0.570  53.629  1.00  0.00    -0.353 OA
HETATM   20  C15 UNL     1      22.199  -1.625  53.880  1.00  0.00     0.210 C 
HETATM   21  H8  UNL     1      26.377   1.946  50.494  1.00  0.00     0.310 HD
ENDROOT
BRANCH   1  22
HETATM   22  O1  UNL     1      21.201   1.069  52.932  1.00  0.00    -0.356 OA
HETATM   23  C1  UNL     1      20.565   1.208  51.652  1.00  0.00     0.209 C 
ENDBRANCH   1  22
TORSDOF 1
ENDMDL
MODEL 3
REMARK VINA RESULT:      -7.5      3.320      5.041
REMARK  1 active torsions:
REMARK  status: ('A' for Active; 'I' for Inactive)
REMARK    1  A    between atoms: O1_2  and  C2_3 
ROOT
HETATM    1  C2  UNL     1      20.728   2.185  52.429  1.00  0.00     0.095 C 
HETATM    2  C3  UNL     1      21.793   2.949  52.348  1.00  0.00     0.143 A 
HETATM    3  C4  UNL     1      22.515   4.172  52.125  1.00  0.00     0.065 A 
HETATM    4  S1  UNL     1      23.288   2.745  52.151  1.00  0.00     0.005 SA
HETATM    5  C5  UNL     1      24.529   2.897  51.127  1.00  0.00     0.200 A 
HETATM    6  C6  UNL     1      24.860   4.068  50.376  1.00  0.00     0.061 C 
HETATM    7  C7  UNL     1      24.109   5.169  50.499  1.00  0.00    -0.007 C 
HETATM    8 BR1  UNL     1      24.267   6.094  48.801  1.00  0.00    -0.056 Br
HETATM    9  C8  UNL     1      23.479   5.235  51.874  1.00  0.00     0.070 C 
HETATM   10  N1  UNL     1      24.634   1.637  51.569  1.00  0.00     0.054 N 
HETATM   11  C9  UNL     1      24.662   0.729  52.597  1.00  0.00     0.258 A 
HETATM   12  N2  UNL     1      25.938   0.590  52.958  1.00  0.00    -0.216 NA
HETATM   13  C10 UNL     1      26.323  -0.208  53.988  1.00  0.00     0.235 A 
HETATM   14  N3  UNL     1      25.419  -0.902  54.697  1.00  0.00    -0.253 NA
HETATM   15  C11 UNL     1      24.128  -0.724  54.283  1.00  0.00     0.133 A 
HETATM   16  C12 UNL     1      23.640   0.078  53.232  1.00  0.00     0.040 A 
HETATM   17  C13 UNL     1      22.189   0.020  53.088  1.00  0.00     0.056 C 
HETATM   18  C14 UNL     1      21.230   0.862  52.790  1.00  0.00     0.099 C 
HETATM   19  O2  UNL     1      20.110   0.215  52.825  1.00  0.00    -0.353 OA
HETATM   20  C15 UNL     1      18.987  -0.441  52.814  1.00  0.00     0.210 C 
HETATM   21  H8  UNL     1      24.789   1.274  50.562  1.00  0.00     0.310 HD
ENDROOT
BRANCH   1  22
HETATM   22  O1  UNL     1      19.383   2.500  52.224  1.00  0.00    -0.356 OA
HETATM   23  C1  UNL     1      19.103   3.085  50.943  1.00  0.00     0.209 C 
ENDBRANCH   1  22
TORSDOF 1
ENDMDL
MODEL 4
REMARK VINA RESULT:      -7.4      3.219      4.907
REMARK  1 active torsions:
REMARK  status: ('A' for Active; 'I' for Inactive)
REMARK    1  A    between atoms: O1_2  and  C2_3 
ROOT
HETATM    1  C2  UNL     1      26.742   1.672  52.425  1.00  0.00     0.095 C 
HETATM    2  C3  UNL     1      26.325   2.373  51.394  1.00  0.00     0.143 A 
HETATM    3  C4  UNL     1      26.465   3.225  50.246  1.00  0.00     0.065 A 
HETATM    4  S1  UNL     1      25.018   3.011  50.947  1.00  0.00     0.005 SA
HETATM    5  C5  UNL     1      24.217   4.399  50.738  1.00  0.00     0.200 A 
HETATM    6  C6  UNL     1      24.706   5.557  50.057  1.00  0.00     0.061 C 
HETATM    7  C7  UNL     1      25.932   5.542  49.519  1.00  0.00    -0.007 C 
HETATM    8 BR1  UNL     1      26.531   7.387  49.548  1.00  0.00    -0.056 Br
HETATM    9  C8  UNL     1      26.321   4.135  49.116  1.00  0.00     0.070 C 
HETATM   10  N1  UNL     1      23.358   3.637  51.429  1.00  0.00     0.054 N 
HETATM   11  C9  UNL     1      22.696   2.451  51.616  1.00  0.00     0.258 A 
HETATM   12  N2  UNL     1      21.540   2.544  50.960  1.00  0.00    -0.216 NA
HETATM   13  C10 UNL     1      20.650   1.518  50.898  1.00  0.00     0.235 A 
HETATM   14  N3  UNL     1      20.903   0.349  51.507  1.00  0.00    -0.253 NA
HETATM   15  C11 UNL     1      22.101   0.309  52.166  1.00  0.00     0.133 A 
HETATM   16  C12 UNL     1      23.079   1.318  52.282  1.00  0.00     0.040 A 
HETATM   17  C13 UNL     1      24.240   0.909  53.066  1.00  0.00     0.056 C 
HETATM   18  C14 UNL     1      25.535   1.103  53.016  1.00  0.00     0.099 C 
HETATM   19  O2  UNL     1      26.069   0.462  54.006  1.00  0.00    -0.353 OA
HETATM   20  C15 UNL     1      26.605  -0.142  55.024  1.00  0.00     0.210 C 
HETATM   21  H8  UNL     1      23.142   4.456  52.102  1.00  0.00     0.310 HD
ENDROOT
BRANCH   1  22
HETATM   22  O1  UNL     1      28.038   1.476  52.907  1.00  0.00    -0.356 OA
HETATM   23  C1  UNL     1      28.609   2.628  53.548  1.00  0.00     0.209 C 
ENDBRANCH   1  22
TORSDOF 1
ENDMDL
MODEL 5
REMARK VINA RESULT:      -7.3      3.769      6.092
REMARK  1 active torsions:
REMARK  status: ('A' for Active; 'I' for Inactive)
REMARK    1  A    between atoms: O1_2  and  C2_3 
ROOT
HETATM    1  C2  UNL     1      24.612  -0.337  53.807  1.00  0.00     0.095 C 
HETATM    2  C3  UNL     1      23.375   0.104  53.779  1.00  0.00     0.143 A 
HETATM    3  C4  UNL     1      22.005   0.194  54.206  1.00  0.00     0.065 A 
HETATM    4  S1  UNL     1      22.464   0.781  52.764  1.00  0.00     0.005 SA
HETATM    5  C5  UNL     1      21.190   0.597  51.787  1.00  0.00     0.200 A 
HETATM    6  C6  UNL     1      19.925   0.039  52.152  1.00  0.00     0.061 C 
HETATM    7  C7  UNL     1      19.722  -0.380  53.408  1.00  0.00    -0.007 C 
HETATM    8 BR1  UNL     1      18.402  -1.794  53.273  1.00  0.00    -0.056 Br
HETATM    9  C8  UNL     1      20.574   0.411  54.378  1.00  0.00     0.070 C 
HETATM   10  N1  UNL     1      22.121   1.145  50.996  1.00  0.00     0.054 N 
HETATM   11  C9  UNL     1      23.073   2.103  50.757  1.00  0.00     0.258 A 
HETATM   12  N2  UNL     1      22.459   3.117  50.145  1.00  0.00    -0.216 NA
HETATM   13  C10 UNL     1      23.104   4.262  49.801  1.00  0.00     0.235 A 
HETATM   14  N3  UNL     1      24.410   4.423  50.068  1.00  0.00    -0.253 NA
HETATM   15  C11 UNL     1      24.990   3.354  50.693  1.00  0.00     0.133 A 
HETATM   16  C12 UNL     1      24.401   2.135  51.085  1.00  0.00     0.040 A 
HETATM   17  C13 UNL     1      25.338   1.225  51.736  1.00  0.00     0.056 C 
HETATM   18  C14 UNL     1      25.296   0.369  52.727  1.00  0.00     0.099 C 
HETATM   19  O2  UNL     1      26.474  -0.153  52.850  1.00  0.00    -0.353 OA
HETATM   20  C15 UNL     1      27.643  -0.713  52.947  1.00  0.00     0.210 C 
HETATM   21  H8  UNL     1      21.908   0.430  50.213  1.00  0.00     0.310 HD
ENDROOT
BRANCH   1  22
HETATM   22  O1  UNL     1      25.208  -1.276  54.651  1.00  0.00    -0.356 OA
HETATM   23  C1  UNL     1      24.935  -1.071  56.046  1.00  0.00     0.209 C 
ENDBRANCH   1  22
TORSDOF 1
ENDMDL
MODEL 6
REMARK VINA RESULT:      -7.1      3.873      5.953
REMARK  1 active torsions:
REMARK  status: ('A' for Active; 'I' for Inactive)
REMARK    1  A    between atoms: O1_2  and  C2_3 
ROOT
HETATM    1  C2  UNL     1      23.271   5.429  48.189  1.00  0.00     0.095 C 
HETATM    2  C3  UNL     1      24.427   5.900  48.600  1.00  0.00     0.143 A 
HETATM    3  C4  UNL     1      25.481   6.870  48.713  1.00  0.00     0.065 A 
HETATM    4  S1  UNL     1      25.731   5.322  49.130  1.00  0.00     0.005 SA
HETATM    5  C5  UNL     1      27.285   5.023  48.804  1.00  0.00     0.200 A 
HETATM    6  C6  UNL     1      28.227   5.957  48.269  1.00  0.00     0.061 C 
HETATM    7  C7  UNL     1      27.839   7.210  48.002  1.00  0.00    -0.007 C 
HETATM    8 BR1  UNL     1      28.985   7.807  46.555  1.00  0.00    -0.056 Br
HETATM    9  C8  UNL     1      26.710   7.627  48.920  1.00  0.00     0.070 C 
HETATM   10  N1  UNL     1      26.828   3.854  49.271  1.00  0.00     0.054 N 
HETATM   11  C9  UNL     1      26.143   3.129  50.212  1.00  0.00     0.258 A 
HETATM   12  N2  UNL     1      27.030   2.748  51.131  1.00  0.00    -0.216 NA
HETATM   13  C10 UNL     1      26.679   2.044  52.240  1.00  0.00     0.235 A 
HETATM   14  N3  UNL     1      25.400   1.696  52.458  1.00  0.00    -0.253 NA
HETATM   15  C11 UNL     1      24.534   2.110  51.484  1.00  0.00     0.133 A 
HETATM   16  C12 UNL     1      24.809   2.839  50.309  1.00  0.00     0.040 A 
HETATM   17  C13 UNL     1      23.621   3.104  49.504  1.00  0.00     0.056 C 
HETATM   18  C14 UNL     1      23.171   4.094  48.773  1.00  0.00     0.099 C 
HETATM   19  O2  UNL     1      22.022   3.742  48.293  1.00  0.00    -0.353 OA
HETATM   20  C15 UNL     1      20.889   3.375  47.773  1.00  0.00     0.210 C 
HETATM   21  H8  UNL     1      27.307   3.319  48.462  1.00  0.00     0.310 HD
ENDROOT
BRANCH   1  22
HETATM   22  O1  UNL     1      22.305   6.018  47.371  1.00  0.00    -0.356 OA
HETATM   23  C1  UNL     1      21.814   7.279  47.853  1.00  0.00     0.209 C 
ENDBRANCH   1  22
TORSDOF 1
ENDMDL
MODEL 7
REMARK VINA RESULT:      -7.0      3.137      5.060
REMARK  1 active torsions:
REMARK  status: ('A' for Active; 'I' for Inactive)
REMARK    1  A    between atoms: O1_2  and  C2_3 
ROOT
HETATM    1  C2  UNL     1      25.815   2.762  50.939  1.00  0.00     0.095 C 
HETATM    2  C3  UNL     1      24.636   2.761  50.361  1.00  0.00     0.143 A 
HETATM    3  C4  UNL     1      23.676   3.081  49.341  1.00  0.00     0.065 A 
HETATM    4  S1  UNL     1      23.193   2.542  50.793  1.00  0.00     0.005 SA
HETATM    5  C5  UNL     1      21.766   3.247  51.073  1.00  0.00     0.200 A 
HETATM    6  C6  UNL     1      21.086   4.147  50.194  1.00  0.00     0.061 C 
HETATM    7  C7  UNL     1      21.636   4.465  49.015  1.00  0.00    -0.007 C 
HETATM    8 BR1  UNL     1      20.979   6.243  48.602  1.00  0.00    -0.056 Br
HETATM    9  C8  UNL     1      22.505   3.333  48.509  1.00  0.00     0.070 C 
HETATM   10  N1  UNL     1      21.980   2.513  52.173  1.00  0.00     0.054 N 
HETATM   11  C9  UNL     1      22.321   1.328  52.771  1.00  0.00     0.258 A 
HETATM   12  N2  UNL     1      21.189   0.651  52.966  1.00  0.00    -0.216 NA
HETATM   13  C10 UNL     1      21.167  -0.597  53.503  1.00  0.00     0.235 A 
HETATM   14  N3  UNL     1      22.304  -1.211  53.867  1.00  0.00    -0.253 NA
HETATM   15  C11 UNL     1      23.434  -0.471  53.648  1.00  0.00     0.133 A 
HETATM   16  C12 UNL     1      23.550   0.822  53.099  1.00  0.00     0.040 A 
HETATM   17  C13 UNL     1      24.929   1.291  53.014  1.00  0.00     0.056 C 
HETATM   18  C14 UNL     1      25.641   1.995  52.169  1.00  0.00     0.099 C 
HETATM   19  O2  UNL     1      26.844   2.081  52.641  1.00  0.00    -0.353 OA
HETATM   20  C15 UNL     1      28.041   2.207  53.132  1.00  0.00     0.210 C 
HETATM   21  H8  UNL     1      21.694   3.342  52.807  1.00  0.00     0.310 HD
ENDROOT
BRANCH   1  22
HETATM   22  O1  UNL     1      27.013   3.349  50.526  1.00  0.00    -0.356 OA
HETATM   23  C1  UNL     1      26.908   4.112  49.314  1.00  0.00     0.209 C 
ENDBRANCH   1  22
TORSDOF 1
ENDMDL
MODEL 8
REMARK VINA RESULT:      -7.0      3.307      5.028
REMARK  1 active torsions:
REMARK  status: ('A' for Active; 'I' for Inactive)
REMARK    1  A    between atoms: O1_2  and  C2_3 
ROOT
HETATM    1  C2  UNL     1      24.567   0.836  52.813  1.00  0.00     0.095 C 
HETATM    2  C3  UNL     1      24.171   1.696  51.903  1.00  0.00     0.143 A 
HETATM    3  C4  UNL     1      24.338   2.670  50.859  1.00  0.00     0.065 A 
HETATM    4  S1  UNL     1      22.913   2.503  51.616  1.00  0.00     0.005 SA
HETATM    5  C5  UNL     1      22.243   3.973  51.626  1.00  0.00     0.200 A 
HETATM    6  C6  UNL     1      22.810   5.159  51.061  1.00  0.00     0.061 C 
HETATM    7  C7  UNL     1      24.001   5.099  50.452  1.00  0.00    -0.007 C 
HETATM    8 BR1  UNL     1      24.779   6.863  50.667  1.00  0.00    -0.056 Br
HETATM    9  C8  UNL     1      24.229   3.725  49.859  1.00  0.00     0.070 C 
HETATM   10  N1  UNL     1      21.349   3.213  52.271  1.00  0.00     0.054 N 
HETATM   11  C9  UNL     1      20.583   2.078  52.353  1.00  0.00     0.258 A 
HETATM   12  N2  UNL     1      19.410   2.359  51.785  1.00  0.00    -0.216 NA
HETATM   13  C10 UNL     1      18.422   1.435  51.653  1.00  0.00     0.235 A 
HETATM   14  N3  UNL     1      18.589   0.180  52.099  1.00  0.00    -0.253 NA
HETATM   15  C11 UNL     1      19.808  -0.052  52.674  1.00  0.00     0.133 A 
HETATM   16  C12 UNL     1      20.885   0.840  52.852  1.00  0.00     0.040 A 
HETATM   17  C13 UNL     1      22.036   0.230  53.508  1.00  0.00     0.056 C 
HETATM   18  C14 UNL     1      23.340   0.310  53.404  1.00  0.00     0.099 C 
HETATM   19  O2  UNL     1      23.857  -0.497  54.275  1.00  0.00    -0.353 OA
HETATM   20  C15 UNL     1      24.380  -1.272  55.178  1.00  0.00     0.210 C 
HETATM   21  H8  UNL     1      21.247   3.956  53.050  1.00  0.00     0.310 HD
ENDROOT
BRANCH   1  22
HETATM   22  O1  UNL     1      25.859   0.463  53.189  1.00  0.00    -0.356 OA
HETATM   23  C1  UNL     1      26.641  -0.106  52.127  1.00  0.00     0.209 C 
ENDBRANCH   1  22
TORSDOF 1
ENDMDL
MODEL 9
REMARK VINA RESULT:      -6.9      6.540      8.721
REMARK  1 active torsions:
REMARK  status: ('A' for Active; 'I' for Inactive)
REMARK    1  A    between atoms: O1_2  and  C2_3 
ROOT
HETATM    1  C2  UNL     1      29.480   9.328  48.124  1.00  0.00     0.095 C 
HETATM    2  C3  UNL     1      30.160   8.297  48.571  1.00  0.00     0.143 A 
HETATM    3  C4  UNL     1      31.332   7.591  49.010  1.00  0.00     0.065 A 
HETATM    4  S1  UNL     1      29.983   6.786  48.606  1.00  0.00     0.005 SA
HETATM    5  C5  UNL     1      30.477   5.373  47.997  1.00  0.00     0.200 A 
HETATM    6  C6  UNL     1      31.835   4.943  47.867  1.00  0.00     0.061 C 
HETATM    7  C7  UNL     1      32.826   5.744  48.277  1.00  0.00    -0.007 C 
HETATM    8 BR1  UNL     1      34.351   5.287  47.168  1.00  0.00    -0.056 Br
HETATM    9  C8  UNL     1      32.359   6.636  49.408  1.00  0.00     0.070 C 
HETATM   10  N1  UNL     1      29.142   5.311  47.900  1.00  0.00     0.054 N 
HETATM   11  C9  UNL     1      27.896   5.454  48.454  1.00  0.00     0.258 A 
HETATM   12  N2  UNL     1      27.563   4.271  48.970  1.00  0.00    -0.216 NA
HETATM   13  C10 UNL     1      26.398   4.068  49.640  1.00  0.00     0.235 A 
HETATM   14  N3  UNL     1      25.520   5.068  49.814  1.00  0.00    -0.253 NA
HETATM   15  C11 UNL     1      25.911   6.258  49.264  1.00  0.00     0.133 A 
HETATM   16  C12 UNL     1      27.093   6.557  48.556  1.00  0.00     0.040 A 
HETATM   17  C13 UNL     1      27.167   7.947  48.119  1.00  0.00     0.056 C 
HETATM   18  C14 UNL     1      28.102   8.858  48.008  1.00  0.00     0.099 C 
HETATM   19  O2  UNL     1      27.551   9.939  47.556  1.00  0.00    -0.353 OA
HETATM   20  C15 UNL     1      27.009  11.012  47.060  1.00  0.00     0.210 C 
HETATM   21  H8  UNL     1      29.212   4.946  46.884  1.00  0.00     0.310 HD
ENDROOT
BRANCH   1  22
HETATM   22  O1  UNL     1      29.915  10.616  47.806  1.00  0.00    -0.356 OA
HETATM   23  C1  UNL     1      30.590  11.293  48.878  1.00  0.00     0.209 C 
ENDBRANCH   1  22
TORSDOF 1
ENDMDL
