MODEL 1
REMARK VINA RESULT:      -7.8      0.000      0.000
REMARK  7 active torsions:
REMARK  status: ('A' for Active; 'I' for Inactive)
REMARK    1  A    between atoms: C2_2  and  C3_3 
REMARK    2  A    between atoms: C3_3  and  C4_4 
REMARK    3  A    between atoms: C4_4  and  C5_5 
REMARK    4  A    between atoms: C5_5  and  C6_6 
REMARK    5  A    between atoms: C6_6  and  N1_7 
REMARK    6  A    between atoms: N1_7  and  C7_8 
REMARK    7  A    between atoms: C12_15  and  C13_16 
ROOT
HETATM    1  C7  UNL     1      23.053   3.607  52.237  1.00  0.00     0.137 A 
HETATM    2  N2  UNL     1      21.786   3.922  51.955  1.00  0.00    -0.224 NA
HETATM    3  C8  UNL     1      20.785   3.058  52.062  1.00  0.00     0.235 A 
HETATM    4  N3  UNL     1      20.974   1.788  52.467  1.00  0.00    -0.241 NA
HETATM    5  C9  UNL     1      22.219   1.384  52.772  1.00  0.00     0.072 A 
HETATM    6  C10 UNL     1      22.443   0.093  53.189  1.00  0.00     0.033 A 
HETATM    7  C11 UNL     1      23.716  -0.345  53.509  1.00  0.00     0.014 A 
HETATM    8  C12 UNL     1      24.730   0.580  53.385  1.00  0.00    -0.022 A 
HETATM    9  C17 UNL     1      24.497   1.873  52.967  1.00  0.00     0.030 A 
HETATM   10  C18 UNL     1      23.242   2.309  52.650  1.00  0.00     0.039 A 
ENDROOT
BRANCH   1  11
HETATM   11  N1  UNL     1      24.095   4.559  52.110  1.00  0.00    -0.371 N 
HETATM   12  H8  UNL     1      24.827   4.759  52.795  1.00  0.00     0.161 HD
BRANCH  11  13
HETATM   13  C6  UNL     1      24.158   5.359  50.881  1.00  0.00     0.148 C 
BRANCH  13  14
HETATM   14  C5  UNL     1      24.459   4.502  49.707  1.00  0.00    -0.007 C 
BRANCH  14  15
HETATM   15  C4  UNL     1      25.282   3.478  49.561  1.00  0.00     0.005 C 
BRANCH  15  16
HETATM   16  C3  UNL     1      26.705   3.622  49.513  1.00  0.00     0.050 C 
BRANCH  16  17
HETATM   17  C2  UNL     1      27.261   4.646  48.880  1.00  0.00    -0.155 C 
HETATM   18  C1  UNL     1      28.054   5.588  48.398  1.00  0.00     0.096 C 
ENDBRANCH  16  17
ENDBRANCH  15  16
ENDBRANCH  14  15
ENDBRANCH  13  14
ENDBRANCH  11  13
ENDBRANCH   1  11
BRANCH   8  19
HETATM   19  C13 UNL     1      26.073   0.124  53.723  1.00  0.00     0.010 A 
HETATM   20  C14 UNL     1      26.780   0.328  54.909  1.00  0.00     0.152 A 
HETATM   21  N4  UNL     1      28.007  -0.263  54.821  1.00  0.00    -0.185 NA
HETATM   22  N5  UNL     1      28.101  -0.834  53.626  1.00  0.00    -0.285 N 
HETATM   23  C15 UNL     1      29.277  -1.554  53.192  1.00  0.00     0.179 C 
HETATM   24  C16 UNL     1      26.958  -0.612  52.960  1.00  0.00     0.125 A 
ENDBRANCH   8  19
TORSDOF 7
ENDMDL
MODEL 2
REMARK VINA RESULT:      -7.6      1.261      2.342
REMARK  7 active torsions:
REMARK  status: ('A' for Active; 'I' for Inactive)
REMARK    1  A    between atoms: C2_2  and  C3_3 
REMARK    2  A    between atoms: C3_3  and  C4_4 
REMARK    3  A    between atoms: C4_4  and  C5_5 
REMARK    4  A    between atoms: C5_5  and  C6_6 
REMARK    5  A    between atoms: C6_6  and  N1_7 
REMARK    6  A    between atoms: N1_7  and  C7_8 
REMARK    7  A    between atoms: C12_15  and  C13_16 
ROOT
HETATM    1  C7  UNL     1      22.882   3.635  52.374  1.00  0.00     0.137 A 
HETATM    2  N2  UNL     1      21.616   4.038  52.246  1.00  0.00    -0.224 NA
HETATM    3  C8  UNL     1      20.579   3.219  52.368  1.00  0.00     0.235 A 
HETATM    4  N3  UNL     1      20.730   1.907  52.635  1.00  0.00    -0.241 NA
HETATM    5  C9  UNL     1      21.972   1.415  52.779  1.00  0.00     0.072 A 
HETATM    6  C10 UNL     1      22.158   0.080  53.052  1.00  0.00     0.033 A 
HETATM    7  C11 UNL     1      23.427  -0.449  53.206  1.00  0.00     0.014 A 
HETATM    8  C12 UNL     1      24.478   0.431  53.071  1.00  0.00    -0.022 A 
HETATM    9  C17 UNL     1      24.283   1.769  52.798  1.00  0.00     0.030 A 
HETATM   10  C18 UNL     1      23.032   2.296  52.645  1.00  0.00     0.039 A 
ENDROOT
BRANCH   1  11
HETATM   11  N1  UNL     1      23.962   4.543  52.235  1.00  0.00    -0.371 N 
HETATM   12  H8  UNL     1      24.628   4.816  52.961  1.00  0.00     0.161 HD
BRANCH  11  13
HETATM   13  C6  UNL     1      24.175   5.174  50.927  1.00  0.00     0.148 C 
BRANCH  13  14
HETATM   14  C5  UNL     1      24.912   4.264  50.015  1.00  0.00    -0.007 C 
BRANCH  14  15
HETATM   15  C4  UNL     1      24.496   3.270  49.249  1.00  0.00     0.005 C 
BRANCH  15  16
HETATM   16  C3  UNL     1      23.150   3.160  48.776  1.00  0.00     0.050 C 
BRANCH  16  17
HETATM   17  C2  UNL     1      22.419   2.092  49.058  1.00  0.00    -0.155 C 
HETATM   18  C1  UNL     1      21.532   1.111  49.109  1.00  0.00     0.096 C 
ENDBRANCH  16  17
ENDBRANCH  15  16
ENDBRANCH  14  15
ENDBRANCH  13  14
ENDBRANCH  11  13
ENDBRANCH   1  11
BRANCH   8  19
HETATM   19  C13 UNL     1      25.817  -0.121  53.234  1.00  0.00     0.010 A 
HETATM   20  C14 UNL     1      26.288  -1.373  52.835  1.00  0.00     0.152 A 
HETATM   21  N4  UNL     1      27.603  -1.500  53.174  1.00  0.00    -0.185 NA
HETATM   22  N5  UNL     1      27.982  -0.376  53.770  1.00  0.00    -0.285 N 
HETATM   23  C15 UNL     1      29.324  -0.165  54.263  1.00  0.00     0.179 C 
HETATM   24  C16 UNL     1      26.930   0.454  53.814  1.00  0.00     0.125 A 
ENDBRANCH   8  19
TORSDOF 7
ENDMDL
MODEL 3
REMARK VINA RESULT:      -7.6      2.322      3.057
REMARK  7 active torsions:
REMARK  status: ('A' for Active; 'I' for Inactive)
REMARK    1  A    between atoms: C2_2  and  C3_3 
REMARK    2  A    between atoms: C3_3  and  C4_4 
REMARK    3  A    between atoms: C4_4  and  C5_5 
REMARK    4  A    between atoms: C5_5  and  C6_6 
REMARK    5  A    between atoms: C6_6  and  N1_7 
REMARK    6  A    between atoms: N1_7  and  C7_8 
REMARK    7  A    between atoms: C12_15  and  C13_16 
ROOT
HETATM    1  C7  UNL     1      21.120   0.383  51.382  1.00  0.00     0.137 A 
HETATM    2  N2  UNL     1      19.786   0.331  51.421  1.00  0.00    -0.224 NA
HETATM    3  C8  UNL     1      19.111  -0.158  52.453  1.00  0.00     0.235 A 
HETATM    4  N3  UNL     1      19.727  -0.641  53.549  1.00  0.00    -0.241 NA
HETATM    5  C9  UNL     1      21.070  -0.628  53.596  1.00  0.00     0.072 A 
HETATM    6  C10 UNL     1      21.728  -1.115  54.701  1.00  0.00     0.033 A 
HETATM    7  C11 UNL     1      23.109  -1.110  54.771  1.00  0.00     0.014 A 
HETATM    8  C12 UNL     1      23.776  -0.597  53.681  1.00  0.00    -0.022 A 
HETATM    9  C17 UNL     1      23.109  -0.110  52.576  1.00  0.00     0.030 A 
HETATM   10  C18 UNL     1      21.745  -0.112  52.502  1.00  0.00     0.039 A 
ENDROOT
BRANCH   1  11
HETATM   11  N1  UNL     1      21.804   0.912  50.260  1.00  0.00    -0.371 N 
HETATM   12  H8  UNL     1      22.408   0.399  49.614  1.00  0.00     0.161 HD
BRANCH  11  13
HETATM   13  C6  UNL     1      21.652   2.342  49.965  1.00  0.00     0.148 C 
BRANCH  13  14
HETATM   14  C5  UNL     1      22.777   3.123  50.538  1.00  0.00    -0.007 C 
BRANCH  14  15
HETATM   15  C4  UNL     1      23.058   3.463  51.784  1.00  0.00     0.005 C 
BRANCH  15  16
HETATM   16  C3  UNL     1      24.329   3.213  52.394  1.00  0.00     0.050 C 
BRANCH  16  17
HETATM   17  C2  UNL     1      25.292   2.596  51.724  1.00  0.00    -0.155 C 
HETATM   18  C1  UNL     1      26.416   2.055  51.283  1.00  0.00     0.096 C 
ENDBRANCH  16  17
ENDBRANCH  15  16
ENDBRANCH  14  15
ENDBRANCH  13  14
ENDBRANCH  11  13
ENDBRANCH   1  11
BRANCH   8  19
HETATM   19  C13 UNL     1      25.231  -0.589  53.750  1.00  0.00     0.010 A 
HETATM   20  C14 UNL     1      26.135  -1.350  53.006  1.00  0.00     0.152 A 
HETATM   21  N4  UNL     1      27.411  -1.042  53.377  1.00  0.00    -0.185 NA
HETATM   22  N5  UNL     1      27.349  -0.115  54.325  1.00  0.00    -0.285 N 
HETATM   23  C15 UNL     1      28.526   0.445  54.951  1.00  0.00     0.179 C 
HETATM   24  C16 UNL     1      26.059   0.165  54.559  1.00  0.00     0.125 A 
ENDBRANCH   8  19
TORSDOF 7
ENDMDL
MODEL 4
REMARK VINA RESULT:      -7.4      1.863      4.989
REMARK  7 active torsions:
REMARK  status: ('A' for Active; 'I' for Inactive)
REMARK    1  A    between atoms: C2_2  and  C3_3 
REMARK    2  A    between atoms: C3_3  and  C4_4 
REMARK    3  A    between atoms: C4_4  and  C5_5 
REMARK    4  A    between atoms: C5_5  and  C6_6 
REMARK    5  A    between atoms: C6_6  and  N1_7 
REMARK    6  A    between atoms: N1_7  and  C7_8 
REMARK    7  A    between atoms: C12_15  and  C13_16 
ROOT
HETATM    1  C7  UNL     1      26.520   2.239  52.321  1.00  0.00     0.137 A 
HETATM    2  N2  UNL     1      27.832   2.205  52.569  1.00  0.00    -0.224 NA
HETATM    3  C8  UNL     1      28.397   1.296  53.353  1.00  0.00     0.235 A 
HETATM    4  N3  UNL     1      27.682   0.331  53.962  1.00  0.00    -0.241 NA
HETATM    5  C9  UNL     1      26.352   0.290  53.768  1.00  0.00     0.072 A 
HETATM    6  C10 UNL     1      25.595  -0.684  54.376  1.00  0.00     0.033 A 
HETATM    7  C11 UNL     1      24.226  -0.747  54.190  1.00  0.00     0.014 A 
HETATM    8  C12 UNL     1      23.676   0.214  53.371  1.00  0.00    -0.022 A 
HETATM    9  C17 UNL     1      24.441   1.188  52.764  1.00  0.00     0.030 A 
HETATM   10  C18 UNL     1      25.794   1.253  52.945  1.00  0.00     0.039 A 
ENDROOT
BRANCH   1  11
HETATM   11  N1  UNL     1      25.956   3.228  51.477  1.00  0.00    -0.371 N 
HETATM   12  H8  UNL     1      25.445   4.064  51.771  1.00  0.00     0.161 HD
BRANCH  11  13
HETATM   13  C6  UNL     1      26.099   3.066  50.026  1.00  0.00     0.148 C 
BRANCH  13  14
HETATM   14  C5  UNL     1      26.947   4.143  49.455  1.00  0.00    -0.007 C 
BRANCH  14  15
HETATM   15  C4  UNL     1      26.632   5.266  48.835  1.00  0.00     0.005 C 
BRANCH  15  16
HETATM   16  C3  UNL     1      27.611   6.195  48.357  1.00  0.00     0.050 C 
BRANCH  16  17
HETATM   17  C2  UNL     1      28.844   5.797  48.081  1.00  0.00    -0.155 C 
HETATM   18  C1  UNL     1      30.143   5.678  47.859  1.00  0.00     0.096 C 
ENDBRANCH  16  17
ENDBRANCH  15  16
ENDBRANCH  14  15
ENDBRANCH  13  14
ENDBRANCH  11  13
ENDBRANCH   1  11
BRANCH   8  19
HETATM   19  C13 UNL     1      22.233   0.152  53.171  1.00  0.00     0.010 A 
HETATM   20  C14 UNL     1      21.241  -0.112  54.118  1.00  0.00     0.152 A 
HETATM   21  N4  UNL     1      20.015  -0.077  53.521  1.00  0.00    -0.185 NA
HETATM   22  N5  UNL     1      20.193   0.198  52.235  1.00  0.00    -0.285 N 
HETATM   23  C15 UNL     1      19.097   0.311  51.299  1.00  0.00     0.179 C 
HETATM   24  C16 UNL     1      21.508   0.337  52.011  1.00  0.00     0.125 A 
ENDBRANCH   8  19
TORSDOF 7
ENDMDL
MODEL 5
REMARK VINA RESULT:      -7.3      3.146      6.402
REMARK  7 active torsions:
REMARK  status: ('A' for Active; 'I' for Inactive)
REMARK    1  A    between atoms: C2_2  and  C3_3 
REMARK    2  A    between atoms: C3_3  and  C4_4 
REMARK    3  A    between atoms: C4_4  and  C5_5 
REMARK    4  A    between atoms: C5_5  and  C6_6 
REMARK    5  A    between atoms: C6_6  and  N1_7 
REMARK    6  A    between atoms: N1_7  and  C7_8 
REMARK    7  A    between atoms: C12_15  and  C13_16 
ROOT
HETATM    1  C7  UNL     1      24.849  -0.204  53.831  1.00  0.00     0.137 A 
HETATM    2  N2  UNL     1      25.392  -0.737  54.928  1.00  0.00    -0.224 NA
HETATM    3  C8  UNL     1      24.682  -1.377  55.849  1.00  0.00     0.235 A 
HETATM    4  N3  UNL     1      23.349  -1.538  55.743  1.00  0.00    -0.241 NA
HETATM    5  C9  UNL     1      22.719  -1.032  54.669  1.00  0.00     0.072 A 
HETATM    6  C10 UNL     1      21.359  -1.181  54.532  1.00  0.00     0.033 A 
HETATM    7  C11 UNL     1      20.690  -0.670  53.434  1.00  0.00     0.014 A 
HETATM    8  C12 UNL     1      21.459  -0.012  52.501  1.00  0.00    -0.022 A 
HETATM    9  C17 UNL     1      22.823   0.133  52.644  1.00  0.00     0.030 A 
HETATM   10  C18 UNL     1      23.488  -0.370  53.726  1.00  0.00     0.039 A 
ENDROOT
BRANCH   1  11
HETATM   11  N1  UNL     1      25.642   0.472  52.870  1.00  0.00    -0.371 N 
HETATM   12  H8  UNL     1      25.982   0.095  51.983  1.00  0.00     0.161 HD
BRANCH  11  13
HETATM   13  C6  UNL     1      26.035   1.859  53.146  1.00  0.00     0.148 C 
BRANCH  13  14
HETATM   14  C5  UNL     1      27.439   2.104  52.733  1.00  0.00    -0.007 C 
BRANCH  14  15
HETATM   15  C4  UNL     1      28.569   2.068  53.416  1.00  0.00     0.005 C 
BRANCH  15  16
HETATM   16  C3  UNL     1      28.865   1.055  54.384  1.00  0.00     0.050 C 
BRANCH  16  17
HETATM   17  C2  UNL     1      29.209  -0.166  54.001  1.00  0.00    -0.155 C 
HETATM   18  C1  UNL     1      29.818  -1.267  53.593  1.00  0.00     0.096 C 
ENDBRANCH  16  17
ENDBRANCH  15  16
ENDBRANCH  14  15
ENDBRANCH  13  14
ENDBRANCH  11  13
ENDBRANCH   1  11
BRANCH   8  19
HETATM   19  C13 UNL     1      20.759   0.527  51.342  1.00  0.00     0.010 A 
HETATM   20  C14 UNL     1      21.272   0.796  50.071  1.00  0.00     0.152 A 
HETATM   21  N4  UNL     1      20.286   1.294  49.272  1.00  0.00    -0.185 NA
HETATM   22  N5  UNL     1      19.169   1.351  49.987  1.00  0.00    -0.285 N 
HETATM   23  C15 UNL     1      17.917   1.834  49.449  1.00  0.00     0.179 C 
HETATM   24  C16 UNL     1      19.434   0.898  51.221  1.00  0.00     0.125 A 
ENDBRANCH   8  19
TORSDOF 7
ENDMDL
MODEL 6
REMARK VINA RESULT:      -7.3      1.938      5.441
REMARK  7 active torsions:
REMARK  status: ('A' for Active; 'I' for Inactive)
REMARK    1  A    between atoms: C2_2  and  C3_3 
REMARK    2  A    between atoms: C3_3  and  C4_4 
REMARK    3  A    between atoms: C4_4  and  C5_5 
REMARK    4  A    between atoms: C5_5  and  C6_6 
REMARK    5  A    between atoms: C6_6  and  N1_7 
REMARK    6  A    between atoms: N1_7  and  C7_8 
REMARK    7  A    between atoms: C12_15  and  C13_16 
ROOT
HETATM    1  C7  UNL     1      26.842   2.193  52.175  1.00  0.00     0.137 A 
HETATM    2  N2  UNL     1      28.075   1.879  52.580  1.00  0.00    -0.224 NA
HETATM    3  C8  UNL     1      28.338   0.840  53.361  1.00  0.00     0.235 A 
HETATM    4  N3  UNL     1      27.370   0.017  53.809  1.00  0.00    -0.241 NA
HETATM    5  C9  UNL     1      26.098   0.258  53.450  1.00  0.00     0.072 A 
HETATM    6  C10 UNL     1      25.088  -0.564  53.891  1.00  0.00     0.033 A 
HETATM    7  C11 UNL     1      23.771  -0.336  53.534  1.00  0.00     0.014 A 
HETATM    8  C12 UNL     1      23.537   0.752  52.723  1.00  0.00    -0.022 A 
HETATM    9  C17 UNL     1      24.555   1.573  52.284  1.00  0.00     0.030 A 
HETATM   10  C18 UNL     1      25.857   1.351  52.634  1.00  0.00     0.039 A 
ENDROOT
BRANCH   1  11
HETATM   11  N1  UNL     1      26.603   3.313  51.340  1.00  0.00    -0.371 N 
HETATM   12  H8  UNL     1      26.495   4.286  51.637  1.00  0.00     0.161 HD
BRANCH  11  13
HETATM   13  C6  UNL     1      26.494   3.089  49.893  1.00  0.00     0.148 C 
BRANCH  13  14
HETATM   14  C5  UNL     1      25.381   3.886  49.317  1.00  0.00    -0.007 C 
BRANCH  14  15
HETATM   15  C4  UNL     1      24.103   3.962  49.642  1.00  0.00     0.005 C 
BRANCH  15  16
HETATM   16  C3  UNL     1      23.045   3.675  48.722  1.00  0.00     0.050 C 
BRANCH  16  17
HETATM   17  C2  UNL     1      22.559   2.447  48.612  1.00  0.00    -0.155 C 
HETATM   18  C1  UNL     1      21.820   1.351  48.561  1.00  0.00     0.096 C 
ENDBRANCH  16  17
ENDBRANCH  15  16
ENDBRANCH  14  15
ENDBRANCH  13  14
ENDBRANCH  11  13
ENDBRANCH   1  11
BRANCH   8  19
HETATM   19  C13 UNL     1      22.151   0.997  52.343  1.00  0.00     0.010 A 
HETATM   20  C14 UNL     1      21.487   2.221  52.244  1.00  0.00     0.152 A 
HETATM   21  N4  UNL     1      20.195   2.014  51.858  1.00  0.00    -0.185 NA
HETATM   22  N5  UNL     1      20.018   0.707  51.707  1.00  0.00    -0.285 N 
HETATM   23  C15 UNL     1      18.756   0.130  51.301  1.00  0.00     0.179 C 
HETATM   24  C16 UNL     1      21.172   0.088  51.993  1.00  0.00     0.125 A 
ENDBRANCH   8  19
TORSDOF 7
ENDMDL
MODEL 7
REMARK VINA RESULT:      -6.9      2.366      5.528
REMARK  7 active torsions:
REMARK  status: ('A' for Active; 'I' for Inactive)
REMARK    1  A    between atoms: C2_2  and  C3_3 
REMARK    2  A    between atoms: C3_3  and  C4_4 
REMARK    3  A    between atoms: C4_4  and  C5_5 
REMARK    4  A    between atoms: C5_5  and  C6_6 
REMARK    5  A    between atoms: C6_6  and  N1_7 
REMARK    6  A    between atoms: N1_7  and  C7_8 
REMARK    7  A    between atoms: C12_15  and  C13_16 
ROOT
HETATM    1  C7  UNL     1      23.490  -0.266  53.975  1.00  0.00     0.137 A 
HETATM    2  N2  UNL     1      22.891  -1.291  54.585  1.00  0.00    -0.224 NA
HETATM    3  C8  UNL     1      21.573  -1.437  54.626  1.00  0.00     0.235 A 
HETATM    4  N3  UNL     1      20.735  -0.554  54.050  1.00  0.00    -0.241 NA
HETATM    5  C9  UNL     1      21.253   0.510  53.414  1.00  0.00     0.072 A 
HETATM    6  C10 UNL     1      20.423   1.429  52.816  1.00  0.00     0.033 A 
HETATM    7  C11 UNL     1      20.934   2.532  52.155  1.00  0.00     0.014 A 
HETATM    8  C12 UNL     1      22.306   2.650  52.133  1.00  0.00    -0.022 A 
HETATM    9  C17 UNL     1      23.133   1.724  52.735  1.00  0.00     0.030 A 
HETATM   10  C18 UNL     1      22.632   0.634  53.389  1.00  0.00     0.039 A 
ENDROOT
BRANCH   1  11
HETATM   11  N1  UNL     1      24.903  -0.146  53.954  1.00  0.00    -0.371 N 
HETATM   12  H8  UNL     1      25.468   0.520  54.486  1.00  0.00     0.161 HD
BRANCH  11  13
HETATM   13  C6  UNL     1      25.664  -1.055  53.089  1.00  0.00     0.148 C 
BRANCH  13  14
HETATM   14  C5  UNL     1      26.597  -0.298  52.216  1.00  0.00    -0.007 C 
BRANCH  14  15
HETATM   15  C4  UNL     1      26.474   0.872  51.614  1.00  0.00     0.005 C 
BRANCH  15  16
HETATM   16  C3  UNL     1      26.849   2.109  52.229  1.00  0.00     0.050 C 
BRANCH  16  17
HETATM   17  C2  UNL     1      27.965   2.202  52.937  1.00  0.00    -0.155 C 
HETATM   18  C1  UNL     1      28.909   2.436  53.834  1.00  0.00     0.096 C 
ENDBRANCH  16  17
ENDBRANCH  15  16
ENDBRANCH  14  15
ENDBRANCH  13  14
ENDBRANCH  11  13
ENDBRANCH   1  11
BRANCH   8  19
HETATM   19  C13 UNL     1      22.850   3.809  51.437  1.00  0.00     0.010 A 
HETATM   20  C14 UNL     1      23.065   3.970  50.066  1.00  0.00     0.152 A 
HETATM   21  N4  UNL     1      23.589   5.206  49.825  1.00  0.00    -0.185 NA
HETATM   22  N5  UNL     1      23.714   5.832  50.988  1.00  0.00    -0.285 N 
HETATM   23  C15 UNL     1      24.241   7.173  51.103  1.00  0.00     0.179 C 
HETATM   24  C16 UNL     1      23.278   5.014  51.957  1.00  0.00     0.125 A 
ENDBRANCH   8  19
TORSDOF 7
ENDMDL
MODEL 8
REMARK VINA RESULT:      -6.8      3.071      6.986
REMARK  7 active torsions:
REMARK  status: ('A' for Active; 'I' for Inactive)
REMARK    1  A    between atoms: C2_2  and  C3_3 
REMARK    2  A    between atoms: C3_3  and  C4_4 
REMARK    3  A    between atoms: C4_4  and  C5_5 
REMARK    4  A    between atoms: C5_5  and  C6_6 
REMARK    5  A    between atoms: C6_6  and  N1_7 
REMARK    6  A    between atoms: N1_7  and  C7_8 
REMARK    7  A    between atoms: C12_15  and  C13_16 
ROOT
HETATM    1  C7  UNL     1      21.573  -0.077  52.638  1.00  0.00     0.137 A 
HETATM    2  N2  UNL     1      21.275  -0.975  53.581  1.00  0.00    -0.224 NA
HETATM    3  C8  UNL     1      22.152  -1.398  54.481  1.00  0.00     0.235 A 
HETATM    4  N3  UNL     1      23.422  -0.948  54.512  1.00  0.00    -0.241 NA
HETATM    5  C9  UNL     1      23.809  -0.042  53.598  1.00  0.00     0.072 A 
HETATM    6  C10 UNL     1      25.099   0.436  53.603  1.00  0.00     0.033 A 
HETATM    7  C11 UNL     1      25.520   1.371  52.674  1.00  0.00     0.014 A 
HETATM    8  C12 UNL     1      24.581   1.785  51.755  1.00  0.00    -0.022 A 
HETATM    9  C17 UNL     1      23.290   1.301  51.756  1.00  0.00     0.030 A 
HETATM   10  C18 UNL     1      22.869   0.379  52.672  1.00  0.00     0.039 A 
ENDROOT
BRANCH   1  11
HETATM   11  N1  UNL     1      20.606   0.348  51.694  1.00  0.00    -0.371 N 
HETATM   12  H8  UNL     1      20.695   0.326  50.675  1.00  0.00     0.161 HD
BRANCH  11  13
HETATM   13  C6  UNL     1      19.334   0.882  52.195  1.00  0.00     0.148 C 
BRANCH  13  14
HETATM   14  C5  UNL     1      18.186   0.121  51.642  1.00  0.00    -0.007 C 
BRANCH  14  15
HETATM   15  C4  UNL     1      17.557  -0.953  52.084  1.00  0.00     0.005 C 
BRANCH  15  16
HETATM   16  C3  UNL     1      17.824  -1.545  53.360  1.00  0.00     0.050 C 
BRANCH  16  17
HETATM   17  C2  UNL     1      17.573  -2.828  53.578  1.00  0.00    -0.155 C 
HETATM   18  C1  UNL     1      17.094  -4.060  53.620  1.00  0.00     0.096 C 
ENDBRANCH  16  17
ENDBRANCH  15  16
ENDBRANCH  14  15
ENDBRANCH  13  14
ENDBRANCH  11  13
ENDBRANCH   1  11
BRANCH   8  19
HETATM   19  C13 UNL     1      25.020   2.769  50.774  1.00  0.00     0.010 A 
HETATM   20  C14 UNL     1      24.232   3.599  49.972  1.00  0.00     0.152 A 
HETATM   21  N4  UNL     1      25.033   4.376  49.188  1.00  0.00    -0.185 NA
HETATM   22  N5  UNL     1      26.296   4.071  49.463  1.00  0.00    -0.285 N 
HETATM   23  C15 UNL     1      27.416   4.710  48.809  1.00  0.00     0.179 C 
HETATM   24  C16 UNL     1      26.304   3.116  50.404  1.00  0.00     0.125 A 
ENDBRANCH   8  19
TORSDOF 7
ENDMDL
MODEL 9
REMARK VINA RESULT:      -6.8      2.164      6.783
REMARK  7 active torsions:
REMARK  status: ('A' for Active; 'I' for Inactive)
REMARK    1  A    between atoms: C2_2  and  C3_3 
REMARK    2  A    between atoms: C3_3  and  C4_4 
REMARK    3  A    between atoms: C4_4  and  C5_5 
REMARK    4  A    between atoms: C5_5  and  C6_6 
REMARK    5  A    between atoms: C6_6  and  N1_7 
REMARK    6  A    between atoms: N1_7  and  C7_8 
REMARK    7  A    between atoms: C12_15  and  C13_16 
ROOT
HETATM    1  C7  UNL     1      24.823  -0.323  53.742  1.00  0.00     0.137 A 
HETATM    2  N2  UNL     1      25.810  -1.216  53.843  1.00  0.00    -0.224 NA
HETATM    3  C8  UNL     1      26.928  -1.142  53.132  1.00  0.00     0.235 A 
HETATM    4  N3  UNL     1      27.151  -0.150  52.249  1.00  0.00    -0.241 NA
HETATM    5  C9  UNL     1      26.209   0.793  52.083  1.00  0.00     0.072 A 
HETATM    6  C10 UNL     1      26.408   1.818  51.188  1.00  0.00     0.033 A 
HETATM    7  C11 UNL     1      25.453   2.802  51.001  1.00  0.00     0.014 A 
HETATM    8  C12 UNL     1      24.306   2.691  51.756  1.00  0.00    -0.022 A 
HETATM    9  C17 UNL     1      24.113   1.660  52.652  1.00  0.00     0.030 A 
HETATM   10  C18 UNL     1      25.054   0.687  52.839  1.00  0.00     0.039 A 
ENDROOT
BRANCH   1  11
HETATM   11  N1  UNL     1      23.643  -0.438  54.520  1.00  0.00    -0.371 N 
HETATM   12  H8  UNL     1      23.395   0.119  55.341  1.00  0.00     0.161 HD
BRANCH  11  13
HETATM   13  C6  UNL     1      22.654  -1.452  54.135  1.00  0.00     0.148 C 
BRANCH  13  14
HETATM   14  C5  UNL     1      21.279  -0.896  54.187  1.00  0.00    -0.007 C 
BRANCH  14  15
HETATM   15  C4  UNL     1      20.840   0.351  54.172  1.00  0.00     0.005 C 
BRANCH  15  16
HETATM   16  C3  UNL     1      20.215   0.944  53.029  1.00  0.00     0.050 C 
BRANCH  16  17
HETATM   17  C2  UNL     1      20.694   0.736  51.811  1.00  0.00    -0.155 C 
HETATM   18  C1  UNL     1      21.285   0.288  50.715  1.00  0.00     0.096 C 
ENDBRANCH  16  17
ENDBRANCH  15  16
ENDBRANCH  14  15
ENDBRANCH  13  14
ENDBRANCH  11  13
ENDBRANCH   1  11
BRANCH   8  19
HETATM   19  C13 UNL     1      23.296   3.724  51.564  1.00  0.00     0.010 A 
HETATM   20  C14 UNL     1      23.108   4.894  52.303  1.00  0.00     0.152 A 
HETATM   21  N4  UNL     1      22.051   5.593  51.797  1.00  0.00    -0.185 NA
HETATM   22  N5  UNL     1      21.565   4.911  50.766  1.00  0.00    -0.285 N 
HETATM   23  C15 UNL     1      20.433   5.365  49.991  1.00  0.00     0.179 C 
HETATM   24  C16 UNL     1      22.295   3.797  50.616  1.00  0.00     0.125 A 
ENDBRANCH   8  19
TORSDOF 7
ENDMDL
