MODEL 1
REMARK VINA RESULT:      -7.9      0.000      0.000
REMARK  7 active torsions:
REMARK  status: ('A' for Active; 'I' for Inactive)
REMARK    1  A    between atoms: S1_2  and  C2_3 
REMARK    2  A    between atoms: C2_3  and  O1_4 
REMARK    3  A    between atoms: O1_4  and  C3_5 
REMARK    4  A    between atoms: C3_5  and  C4_6 
REMARK    5  A    between atoms: C6_11  and  C7_12 
REMARK    6  A    between atoms: C16_21  and  C17_22 
REMARK    7  A    between atoms: N4_26  and  O2_27 
ROOT
HETATM    1  C4  UNL     1      26.066  -1.070  52.912  1.00  0.00     0.260 C 
HETATM    2  N1  UNL     1      25.494  -1.134  54.236  1.00  0.00    -0.253 NA
HETATM    3  C5  UNL     1      24.331  -0.772  54.651  1.00  0.00     0.226 C 
HETATM    4  N2  UNL     1      23.267  -0.200  53.924  1.00  0.00    -0.253 N 
HETATM    5  N3  UNL     1      21.893  -0.513  54.097  1.00  0.00    -0.175 NA
HETATM    6  C6  UNL     1      21.244  -0.273  52.981  1.00  0.00     0.067 C 
HETATM    7  C13 UNL     1      22.231   0.243  51.958  1.00  0.00     0.095 C 
HETATM    8  C14 UNL     1      23.297   0.796  52.877  1.00  0.00     0.168 C 
HETATM    9  C15 UNL     1      24.588   1.043  52.267  1.00  0.00     0.062 C 
HETATM   10  C16 UNL     1      24.730   2.182  51.608  1.00  0.00     0.029 C 
HETATM   11  N4  UNL     1      25.725   0.193  52.301  1.00  0.00    -0.235 N 
ENDROOT
BRANCH   6  12
HETATM   12  C7  UNL     1      19.812  -0.481  52.796  1.00  0.00    -0.010 A 
HETATM   13  C8  UNL     1      19.194  -1.391  53.630  1.00  0.00     0.013 A 
HETATM   14  C9  UNL     1      17.827  -1.556  53.416  1.00  0.00     0.001 A 
HETATM   15  C10 UNL     1      17.147  -0.858  52.441  1.00  0.00     0.000 A 
HETATM   16  C11 UNL     1      17.802   0.051  51.621  1.00  0.00     0.001 A 
HETATM   17  C12 UNL     1      19.147   0.220  51.823  1.00  0.00     0.013 A 
ENDBRANCH   6  12
BRANCH  10  18
HETATM   18  C17 UNL     1      23.712   3.180  51.453  1.00  0.00     0.004 C 
HETATM   19  C18 UNL     1      23.152   3.475  50.284  1.00  0.00    -0.088 C 
HETATM   20  C19 UNL     1      23.382   2.927  48.930  1.00  0.00     0.043 C 
HETATM   21  C20 UNL     1      22.100   4.500  50.093  1.00  0.00     0.043 C 
ENDBRANCH  10  18
BRANCH  11  22
HETATM   22  O2  UNL     1      26.771   0.694  51.564  1.00  0.00    -0.285 OA
HETATM   23  H26 UNL     1      26.451   1.205  50.802  1.00  0.00     0.245 HD
ENDBRANCH  11  22
BRANCH   1  24
HETATM   24  C3  UNL     1      27.558  -1.257  52.972  1.00  0.00     0.219 C 
BRANCH  24  25
HETATM   25  O1  UNL     1      28.090  -0.842  54.192  1.00  0.00    -0.377 OA
BRANCH  25  26
HETATM   26  C2  UNL     1      29.284  -0.201  53.887  1.00  0.00     0.241 C 
BRANCH  26  27
HETATM   27  S1  UNL     1      29.432   1.443  54.585  1.00  0.00    -0.148 SA
HETATM   28  C1  UNL     1      28.434   2.548  53.514  1.00  0.00     0.092 C 
ENDBRANCH  26  27
ENDBRANCH  25  26
ENDBRANCH  24  25
ENDBRANCH   1  24
TORSDOF 7
ENDMDL
MODEL 2
REMARK VINA RESULT:      -7.8      3.935      7.979
REMARK  7 active torsions:
REMARK  status: ('A' for Active; 'I' for Inactive)
REMARK    1  A    between atoms: S1_2  and  C2_3 
REMARK    2  A    between atoms: C2_3  and  O1_4 
REMARK    3  A    between atoms: O1_4  and  C3_5 
REMARK    4  A    between atoms: C3_5  and  C4_6 
REMARK    5  A    between atoms: C6_11  and  C7_12 
REMARK    6  A    between atoms: C16_21  and  C17_22 
REMARK    7  A    between atoms: N4_26  and  O2_27 
ROOT
HETATM    1  C4  UNL     1      20.888   1.108  51.826  1.00  0.00     0.260 C 
HETATM    2  N1  UNL     1      20.694   2.496  52.173  1.00  0.00    -0.253 NA
HETATM    3  C5  UNL     1      21.545   3.461  52.221  1.00  0.00     0.226 C 
HETATM    4  N2  UNL     1      22.927   3.441  51.945  1.00  0.00    -0.253 N 
HETATM    5  N3  UNL     1      23.642   4.459  51.259  1.00  0.00    -0.175 NA
HETATM    6  C6  UNL     1      24.707   3.940  50.693  1.00  0.00     0.067 C 
HETATM    7  C13 UNL     1      24.740   2.461  51.003  1.00  0.00     0.095 C 
HETATM    8  C14 UNL     1      23.917   2.440  52.271  1.00  0.00     0.168 C 
HETATM    9  C15 UNL     1      23.408   1.144  52.671  1.00  0.00     0.062 C 
HETATM   10  C16 UNL     1      24.236   0.353  53.334  1.00  0.00     0.029 C 
HETATM   11  N4  UNL     1      22.107   0.626  52.430  1.00  0.00    -0.235 N 
ENDROOT
BRANCH   6  12
HETATM   12  C7  UNL     1      25.674   4.696  49.904  1.00  0.00    -0.010 A 
HETATM   13  C8  UNL     1      25.429   6.043  49.727  1.00  0.00     0.013 A 
HETATM   14  C9  UNL     1      26.380   6.723  48.968  1.00  0.00     0.001 A 
HETATM   15  C10 UNL     1      27.481   6.089  48.434  1.00  0.00     0.000 A 
HETATM   16  C11 UNL     1      27.695   4.732  48.632  1.00  0.00     0.001 A 
HETATM   17  C12 UNL     1      26.766   4.055  49.378  1.00  0.00     0.013 A 
ENDBRANCH   6  12
BRANCH  10  18
HETATM   18  C17 UNL     1      25.589   0.680  53.683  1.00  0.00     0.004 C 
HETATM   19  C18 UNL     1      26.641  -0.005  53.246  1.00  0.00    -0.088 C 
HETATM   20  C19 UNL     1      26.732  -1.187  52.362  1.00  0.00     0.043 C 
HETATM   21  C20 UNL     1      28.047   0.308  53.589  1.00  0.00     0.043 C 
ENDBRANCH  10  18
BRANCH  11  22
HETATM   22  O2  UNL     1      21.969  -0.664  52.882  1.00  0.00    -0.285 OA
HETATM   23  H26 UNL     1      21.641  -1.250  52.181  1.00  0.00     0.245 HD
ENDBRANCH  11  22
BRANCH   1  24
HETATM   24  C3  UNL     1      19.706   0.285  52.261  1.00  0.00     0.219 C 
BRANCH  24  25
HETATM   25  O1  UNL     1      18.919  -0.115  51.182  1.00  0.00    -0.377 OA
BRANCH  25  26
HETATM   26  C2  UNL     1      17.732  -0.583  51.731  1.00  0.00     0.241 C 
BRANCH  26  27
HETATM   27  S1  UNL     1      17.898  -1.229  53.395  1.00  0.00    -0.148 SA
HETATM   28  C1  UNL     1      17.407  -2.994  53.312  1.00  0.00     0.092 C 
ENDBRANCH  26  27
ENDBRANCH  25  26
ENDBRANCH  24  25
ENDBRANCH   1  24
TORSDOF 7
ENDMDL
MODEL 3
REMARK VINA RESULT:      -7.8      3.623      7.404
REMARK  7 active torsions:
REMARK  status: ('A' for Active; 'I' for Inactive)
REMARK    1  A    between atoms: S1_2  and  C2_3 
REMARK    2  A    between atoms: C2_3  and  O1_4 
REMARK    3  A    between atoms: O1_4  and  C3_5 
REMARK    4  A    between atoms: C3_5  and  C4_6 
REMARK    5  A    between atoms: C6_11  and  C7_12 
REMARK    6  A    between atoms: C16_21  and  C17_22 
REMARK    7  A    between atoms: N4_26  and  O2_27 
ROOT
HETATM    1  C4  UNL     1      22.854   4.235  50.863  1.00  0.00     0.260 C 
HETATM    2  N1  UNL     1      23.386   4.754  52.101  1.00  0.00    -0.253 NA
HETATM    3  C5  UNL     1      24.080   4.166  53.011  1.00  0.00     0.226 C 
HETATM    4  N2  UNL     1      24.527   2.830  53.064  1.00  0.00    -0.253 N 
HETATM    5  N3  UNL     1      25.799   2.407  53.531  1.00  0.00    -0.175 NA
HETATM    6  C6  UNL     1      26.115   1.264  52.968  1.00  0.00     0.067 C 
HETATM    7  C13 UNL     1      24.987   0.859  52.045  1.00  0.00     0.095 C 
HETATM    8  C14 UNL     1      23.843   1.615  52.682  1.00  0.00     0.168 C 
HETATM    9  C15 UNL     1      22.661   1.778  51.860  1.00  0.00     0.062 C 
HETATM   10  C16 UNL     1      21.814   0.762  51.820  1.00  0.00     0.029 C 
HETATM   11  N4  UNL     1      22.308   2.918  51.089  1.00  0.00    -0.235 N 
ENDROOT
BRANCH   6  12
HETATM   12  C7  UNL     1      27.355   0.536  53.215  1.00  0.00    -0.010 A 
HETATM   13  C8  UNL     1      28.426   1.260  53.697  1.00  0.00     0.013 A 
HETATM   14  C9  UNL     1      29.588   0.522  53.918  1.00  0.00     0.001 A 
HETATM   15  C10 UNL     1      29.655  -0.833  53.670  1.00  0.00     0.000 A 
HETATM   16  C11 UNL     1      28.557  -1.528  53.184  1.00  0.00     0.001 A 
HETATM   17  C12 UNL     1      27.409  -0.811  52.964  1.00  0.00     0.013 A 
ENDBRANCH   6  12
BRANCH  10  18
HETATM   18  C17 UNL     1      21.978  -0.479  52.523  1.00  0.00     0.004 C 
HETATM   19  C18 UNL     1      21.523  -0.684  53.754  1.00  0.00    -0.088 C 
HETATM   20  C19 UNL     1      20.788   0.205  54.681  1.00  0.00     0.043 C 
HETATM   21  C20 UNL     1      21.677  -1.952  54.504  1.00  0.00     0.043 C 
ENDBRANCH  10  18
BRANCH  11  22
HETATM   22  O2  UNL     1      21.153   2.721  50.370  1.00  0.00    -0.285 OA
HETATM   23  H26 UNL     1      21.022   1.780  50.165  1.00  0.00     0.245 HD
ENDBRANCH  11  22
BRANCH   1  24
HETATM   24  C3  UNL     1      21.810   5.165  50.306  1.00  0.00     0.219 C 
BRANCH  24  25
HETATM   25  O1  UNL     1      21.869   5.247  48.916  1.00  0.00    -0.377 OA
BRANCH  25  26
HETATM   26  C2  UNL     1      23.220   5.307  48.597  1.00  0.00     0.241 C 
BRANCH  26  27
HETATM   27  S1  UNL     1      23.884   6.971  48.533  1.00  0.00    -0.148 SA
HETATM   28  C1  UNL     1      25.156   7.067  49.851  1.00  0.00     0.092 C 
ENDBRANCH  26  27
ENDBRANCH  25  26
ENDBRANCH  24  25
ENDBRANCH   1  24
TORSDOF 7
ENDMDL
MODEL 4
REMARK VINA RESULT:      -7.6      1.507      1.969
REMARK  7 active torsions:
REMARK  status: ('A' for Active; 'I' for Inactive)
REMARK    1  A    between atoms: S1_2  and  C2_3 
REMARK    2  A    between atoms: C2_3  and  O1_4 
REMARK    3  A    between atoms: O1_4  and  C3_5 
REMARK    4  A    between atoms: C3_5  and  C4_6 
REMARK    5  A    between atoms: C6_11  and  C7_12 
REMARK    6  A    between atoms: C16_21  and  C17_22 
REMARK    7  A    between atoms: N4_26  and  O2_27 
ROOT
HETATM    1  C4  UNL     1      24.408  -0.671  53.384  1.00  0.00     0.260 C 
HETATM    2  N1  UNL     1      23.596  -0.979  54.537  1.00  0.00    -0.253 NA
HETATM    3  C5  UNL     1      22.345  -0.761  54.747  1.00  0.00     0.226 C 
HETATM    4  N2  UNL     1      21.395  -0.152  53.902  1.00  0.00    -0.253 N 
HETATM    5  N3  UNL     1      20.050  -0.576  53.739  1.00  0.00    -0.175 NA
HETATM    6  C6  UNL     1      19.613  -0.205  52.558  1.00  0.00     0.067 C 
HETATM    7  C13 UNL     1      20.728   0.527  51.846  1.00  0.00     0.095 C 
HETATM    8  C14 UNL     1      21.536   0.995  53.035  1.00  0.00     0.168 C 
HETATM    9  C15 UNL     1      22.892   1.418  52.749  1.00  0.00     0.062 C 
HETATM   10  C16 UNL     1      23.053   2.653  52.300  1.00  0.00     0.029 C 
HETATM   11  N4  UNL     1      24.076   0.647  52.900  1.00  0.00    -0.235 N 
ENDROOT
BRANCH   6  12
HETATM   12  C7  UNL     1      18.271  -0.473  52.051  1.00  0.00    -0.010 A 
HETATM   13  C8  UNL     1      17.434  -1.226  52.849  1.00  0.00     0.013 A 
HETATM   14  C9  UNL     1      16.164  -1.456  52.324  1.00  0.00     0.001 A 
HETATM   15  C10 UNL     1      15.778  -0.963  51.095  1.00  0.00     0.000 A 
HETATM   16  C11 UNL     1      16.648  -0.209  50.319  1.00  0.00     0.001 A 
HETATM   17  C12 UNL     1      17.900   0.022  50.828  1.00  0.00     0.013 A 
ENDBRANCH   6  12
BRANCH  10  18
HETATM   18  C17 UNL     1      21.995   3.596  52.078  1.00  0.00     0.004 C 
HETATM   19  C18 UNL     1      21.674   4.062  50.876  1.00  0.00    -0.088 C 
HETATM   20  C19 UNL     1      22.248   3.785  49.541  1.00  0.00     0.043 C 
HETATM   21  C20 UNL     1      20.589   5.036  50.616  1.00  0.00     0.043 C 
ENDBRANCH  10  18
BRANCH  11  22
HETATM   22  O2  UNL     1      25.194   1.324  52.474  1.00  0.00    -0.285 OA
HETATM   23  H26 UNL     1      25.081   2.284  52.569  1.00  0.00     0.245 HD
ENDBRANCH  11  22
BRANCH   1  24
HETATM   24  C3  UNL     1      25.870  -0.769  53.727  1.00  0.00     0.219 C 
BRANCH  24  25
HETATM   25  O1  UNL     1      26.193  -0.028  54.862  1.00  0.00    -0.377 OA
BRANCH  25  26
HETATM   26  C2  UNL     1      27.565   0.183  54.800  1.00  0.00     0.241 C 
BRANCH  26  27
HETATM   27  S1  UNL     1      28.338  -0.460  53.316  1.00  0.00    -0.148 SA
HETATM   28  C1  UNL     1      30.069  -0.860  53.771  1.00  0.00     0.092 C 
ENDBRANCH  26  27
ENDBRANCH  25  26
ENDBRANCH  24  25
ENDBRANCH   1  24
TORSDOF 7
ENDMDL
MODEL 5
REMARK VINA RESULT:      -7.6      3.953      7.619
REMARK  7 active torsions:
REMARK  status: ('A' for Active; 'I' for Inactive)
REMARK    1  A    between atoms: S1_2  and  C2_3 
REMARK    2  A    between atoms: C2_3  and  O1_4 
REMARK    3  A    between atoms: O1_4  and  C3_5 
REMARK    4  A    between atoms: C3_5  and  C4_6 
REMARK    5  A    between atoms: C6_11  and  C7_12 
REMARK    6  A    between atoms: C16_21  and  C17_22 
REMARK    7  A    between atoms: N4_26  and  O2_27 
ROOT
HETATM    1  C4  UNL     1      22.212   3.462  52.184  1.00  0.00     0.260 C 
HETATM    2  N1  UNL     1      22.076   2.070  51.826  1.00  0.00    -0.253 NA
HETATM    3  C5  UNL     1      22.981   1.195  51.556  1.00  0.00     0.226 C 
HETATM    4  N2  UNL     1      24.382   1.345  51.529  1.00  0.00    -0.253 N 
HETATM    5  N3  UNL     1      25.320   0.389  52.001  1.00  0.00    -0.175 NA
HETATM    6  C6  UNL     1      26.430   0.998  52.348  1.00  0.00     0.067 C 
HETATM    7  C13 UNL     1      26.258   2.480  52.102  1.00  0.00     0.095 C 
HETATM    8  C14 UNL     1      25.181   2.447  51.042  1.00  0.00     0.168 C 
HETATM    9  C15 UNL     1      24.480   3.695  50.817  1.00  0.00     0.062 C 
HETATM   10  C16 UNL     1      25.068   4.579  50.026  1.00  0.00     0.029 C 
HETATM   11  N4  UNL     1      23.221   4.076  51.354  1.00  0.00    -0.235 N 
ENDROOT
BRANCH   6  12
HETATM   12  C7  UNL     1      27.611   0.324  52.878  1.00  0.00    -0.010 A 
HETATM   13  C8  UNL     1      27.629  -1.055  52.823  1.00  0.00     0.013 A 
HETATM   14  C9  UNL     1      28.776  -1.653  53.340  1.00  0.00     0.001 A 
HETATM   15  C10 UNL     1      29.814  -0.915  53.867  1.00  0.00     0.000 A 
HETATM   16  C11 UNL     1      29.762   0.471  53.906  1.00  0.00     0.001 A 
HETATM   17  C12 UNL     1      28.637   1.069  53.399  1.00  0.00     0.013 A 
ENDBRANCH   6  12
BRANCH  10  18
HETATM   18  C17 UNL     1      26.337   4.395  49.381  1.00  0.00     0.004 C 
HETATM   19  C18 UNL     1      27.067   5.400  48.910  1.00  0.00    -0.088 C 
HETATM   20  C19 UNL     1      26.824   6.860  48.904  1.00  0.00     0.043 C 
HETATM   21  C20 UNL     1      28.378   5.242  48.240  1.00  0.00     0.043 C 
ENDBRANCH  10  18
BRANCH  11  22
HETATM   22  O2  UNL     1      22.870   5.355  50.997  1.00  0.00    -0.285 OA
HETATM   23  H26 UNL     1      23.039   5.517  50.054  1.00  0.00     0.245 HD
ENDBRANCH  11  22
BRANCH   1  24
HETATM   24  C3  UNL     1      20.893   4.173  52.047  1.00  0.00     0.219 C 
BRANCH  24  25
HETATM   25  O1  UNL     1      20.250   3.860  50.851  1.00  0.00    -0.377 OA
BRANCH  25  26
HETATM   26  C2  UNL     1      18.890   3.892  51.132  1.00  0.00     0.241 C 
BRANCH  26  27
HETATM   27  S1  UNL     1      17.902   2.818  50.091  1.00  0.00    -0.148 SA
HETATM   28  C1  UNL     1      18.859   1.265  49.899  1.00  0.00     0.092 C 
ENDBRANCH  26  27
ENDBRANCH  25  26
ENDBRANCH  24  25
ENDBRANCH   1  24
TORSDOF 7
ENDMDL
MODEL 6
REMARK VINA RESULT:      -7.5      3.668      5.849
REMARK  7 active torsions:
REMARK  status: ('A' for Active; 'I' for Inactive)
REMARK    1  A    between atoms: S1_2  and  C2_3 
REMARK    2  A    between atoms: C2_3  and  O1_4 
REMARK    3  A    between atoms: O1_4  and  C3_5 
REMARK    4  A    between atoms: C3_5  and  C4_6 
REMARK    5  A    between atoms: C6_11  and  C7_12 
REMARK    6  A    between atoms: C16_21  and  C17_22 
REMARK    7  A    between atoms: N4_26  and  O2_27 
ROOT
HETATM    1  C4  UNL     1      23.783   5.384  49.955  1.00  0.00     0.260 C 
HETATM    2  N1  UNL     1      22.944   4.634  49.050  1.00  0.00    -0.253 NA
HETATM    3  C5  UNL     1      22.558   3.408  49.108  1.00  0.00     0.226 C 
HETATM    4  N2  UNL     1      22.845   2.431  50.082  1.00  0.00    -0.253 N 
HETATM    5  N3  UNL     1      21.922   1.476  50.584  1.00  0.00    -0.175 NA
HETATM    6  C6  UNL     1      22.284   1.110  51.792  1.00  0.00     0.067 C 
HETATM    7  C13 UNL     1      23.544   1.859  52.160  1.00  0.00     0.095 C 
HETATM    8  C14 UNL     1      24.082   2.162  50.780  1.00  0.00     0.168 C 
HETATM    9  C15 UNL     1      25.093   3.198  50.711  1.00  0.00     0.062 C 
HETATM   10  C16 UNL     1      26.336   2.841  50.990  1.00  0.00     0.029 C 
HETATM   11  N4  UNL     1      24.894   4.564  50.373  1.00  0.00    -0.235 N 
ENDROOT
BRANCH   6  12
HETATM   12  C7  UNL     1      21.564   0.140  52.612  1.00  0.00    -0.010 A 
HETATM   13  C8  UNL     1      20.186   0.190  52.584  1.00  0.00     0.013 A 
HETATM   14  C9  UNL     1      19.543  -0.755  53.381  1.00  0.00     0.001 A 
HETATM   15  C10 UNL     1      20.241  -1.670  54.142  1.00  0.00     0.000 A 
HETATM   16  C11 UNL     1      21.628  -1.690  54.145  1.00  0.00     0.001 A 
HETATM   17  C12 UNL     1      22.270  -0.765  53.363  1.00  0.00     0.013 A 
ENDBRANCH   6  12
BRANCH  10  18
HETATM   18  C17 UNL     1      26.755   1.518  51.353  1.00  0.00     0.004 C 
HETATM   19  C18 UNL     1      27.251   1.212  52.547  1.00  0.00    -0.088 C 
HETATM   20  C19 UNL     1      27.501   2.049  53.740  1.00  0.00     0.043 C 
HETATM   21  C20 UNL     1      27.692  -0.144  52.950  1.00  0.00     0.043 C 
ENDBRANCH  10  18
BRANCH  11  22
HETATM   22  O2  UNL     1      26.053   5.296  50.468  1.00  0.00    -0.285 OA
HETATM   23  H26 UNL     1      26.026   5.901  51.227  1.00  0.00     0.245 HD
ENDBRANCH  11  22
BRANCH   1  24
HETATM   24  C3  UNL     1      24.261   6.653  49.303  1.00  0.00     0.219 C 
BRANCH  24  25
HETATM   25  O1  UNL     1      24.939   6.406  48.110  1.00  0.00    -0.377 OA
BRANCH  25  26
HETATM   26  C2  UNL     1      25.580   7.594  47.785  1.00  0.00     0.241 C 
BRANCH  26  27
HETATM   27  S1  UNL     1      27.241   7.734  48.443  1.00  0.00    -0.148 SA
HETATM   28  C1  UNL     1      27.149   8.943  49.819  1.00  0.00     0.092 C 
ENDBRANCH  26  27
ENDBRANCH  25  26
ENDBRANCH  24  25
ENDBRANCH   1  24
TORSDOF 7
ENDMDL
MODEL 7
REMARK VINA RESULT:      -7.5      2.190      5.320
REMARK  7 active torsions:
REMARK  status: ('A' for Active; 'I' for Inactive)
REMARK    1  A    between atoms: S1_2  and  C2_3 
REMARK    2  A    between atoms: C2_3  and  O1_4 
REMARK    3  A    between atoms: O1_4  and  C3_5 
REMARK    4  A    between atoms: C3_5  and  C4_6 
REMARK    5  A    between atoms: C6_11  and  C7_12 
REMARK    6  A    between atoms: C16_21  and  C17_22 
REMARK    7  A    between atoms: N4_26  and  O2_27 
ROOT
HETATM    1  C4  UNL     1      26.688   2.113  52.552  1.00  0.00     0.260 C 
HETATM    2  N1  UNL     1      26.904   2.492  51.176  1.00  0.00    -0.253 NA
HETATM    3  C5  UNL     1      26.070   2.938  50.303  1.00  0.00     0.226 C 
HETATM    4  N2  UNL     1      24.689   3.187  50.438  1.00  0.00    -0.253 N 
HETATM    5  N3  UNL     1      23.996   4.294  49.883  1.00  0.00    -0.175 NA
HETATM    6  C6  UNL     1      22.925   4.545  50.600  1.00  0.00     0.067 C 
HETATM    7  C13 UNL     1      22.865   3.546  51.733  1.00  0.00     0.095 C 
HETATM    8  C14 UNL     1      23.680   2.422  51.135  1.00  0.00     0.168 C 
HETATM    9  C15 UNL     1      24.165   1.428  52.073  1.00  0.00     0.062 C 
HETATM   10  C16 UNL     1      23.319   0.473  52.423  1.00  0.00     0.029 C 
HETATM   11  N4  UNL     1      25.458   1.366  52.658  1.00  0.00    -0.235 N 
ENDROOT
BRANCH   6  12
HETATM   12  C7  UNL     1      21.975   5.617  50.319  1.00  0.00    -0.010 A 
HETATM   13  C8  UNL     1      22.324   6.890  50.723  1.00  0.00     0.013 A 
HETATM   14  C9  UNL     1      21.387   7.880  50.433  1.00  0.00     0.001 A 
HETATM   15  C10 UNL     1      20.199   7.601  49.790  1.00  0.00     0.000 A 
HETATM   16  C11 UNL     1      19.882   6.307  49.399  1.00  0.00     0.001 A 
HETATM   17  C12 UNL     1      20.798   5.327  49.679  1.00  0.00     0.013 A 
ENDBRANCH   6  12
BRANCH  10  18
HETATM   18  C17 UNL     1      21.970   0.348  51.950  1.00  0.00     0.004 C 
HETATM   19  C18 UNL     1      20.918   0.270  52.758  1.00  0.00    -0.088 C 
HETATM   20  C19 UNL     1      20.822   0.284  54.234  1.00  0.00     0.043 C 
HETATM   21  C20 UNL     1      19.516   0.140  52.299  1.00  0.00     0.043 C 
ENDBRANCH  10  18
BRANCH  11  22
HETATM   22  O2  UNL     1      25.570   0.334  53.559  1.00  0.00    -0.285 OA
HETATM   23  H26 UNL     1      25.520   0.658  54.473  1.00  0.00     0.245 HD
ENDBRANCH  11  22
BRANCH   1  24
HETATM   24  C3  UNL     1      27.853   1.312  53.068  1.00  0.00     0.219 C 
BRANCH  24  25
HETATM   25  O1  UNL     1      28.004   1.435  54.449  1.00  0.00    -0.377 OA
BRANCH  25  26
HETATM   26  C2  UNL     1      28.657   0.282  54.863  1.00  0.00     0.241 C 
BRANCH  26  27
HETATM   27  S1  UNL     1      29.754  -0.422  53.633  1.00  0.00    -0.148 SA
HETATM   28  C1  UNL     1      29.158  -2.130  53.330  1.00  0.00     0.092 C 
ENDBRANCH  26  27
ENDBRANCH  25  26
ENDBRANCH  24  25
ENDBRANCH   1  24
TORSDOF 7
ENDMDL
MODEL 8
REMARK VINA RESULT:      -7.4      2.081      2.717
REMARK  7 active torsions:
REMARK  status: ('A' for Active; 'I' for Inactive)
REMARK    1  A    between atoms: S1_2  and  C2_3 
REMARK    2  A    between atoms: C2_3  and  O1_4 
REMARK    3  A    between atoms: O1_4  and  C3_5 
REMARK    4  A    between atoms: C3_5  and  C4_6 
REMARK    5  A    between atoms: C6_11  and  C7_12 
REMARK    6  A    between atoms: C16_21  and  C17_22 
REMARK    7  A    between atoms: N4_26  and  O2_27 
ROOT
HETATM    1  C4  UNL     1      26.351   1.907  52.343  1.00  0.00     0.260 C 
HETATM    2  N1  UNL     1      25.559   2.342  53.470  1.00  0.00    -0.253 NA
HETATM    3  C5  UNL     1      24.296   2.571  53.551  1.00  0.00     0.226 C 
HETATM    4  N2  UNL     1      23.307   2.463  52.552  1.00  0.00    -0.253 N 
HETATM    5  N3  UNL     1      21.995   1.955  52.747  1.00  0.00    -0.175 NA
HETATM    6  C6  UNL     1      21.537   1.480  51.612  1.00  0.00     0.067 C 
HETATM    7  C13 UNL     1      22.598   1.669  50.552  1.00  0.00     0.095 C 
HETATM    8  C14 UNL     1      23.368   2.823  51.154  1.00  0.00     0.168 C 
HETATM    9  C15 UNL     1      24.691   3.049  50.609  1.00  0.00     0.062 C 
HETATM   10  C16 UNL     1      24.765   3.739  49.482  1.00  0.00     0.029 C 
HETATM   11  N4  UNL     1      25.927   2.611  51.157  1.00  0.00    -0.235 N 
ENDROOT
BRANCH   6  12
HETATM   12  C7  UNL     1      20.218   0.879  51.441  1.00  0.00    -0.010 A 
HETATM   13  C8  UNL     1      19.751   0.080  52.466  1.00  0.00     0.013 A 
HETATM   14  C9  UNL     1      18.488  -0.471  52.257  1.00  0.00     0.001 A 
HETATM   15  C10 UNL     1      17.764  -0.233  51.108  1.00  0.00     0.000 A 
HETATM   16  C11 UNL     1      18.266   0.575  50.099  1.00  0.00     0.001 A 
HETATM   17  C12 UNL     1      19.507   1.123  50.294  1.00  0.00     0.013 A 
ENDBRANCH   6  12
BRANCH  10  18
HETATM   18  C17 UNL     1      23.643   4.275  48.765  1.00  0.00     0.004 C 
HETATM   19  C18 UNL     1      23.600   5.519  48.302  1.00  0.00    -0.088 C 
HETATM   20  C19 UNL     1      24.588   6.618  48.374  1.00  0.00     0.043 C 
HETATM   21  C20 UNL     1      22.457   6.099  47.560  1.00  0.00     0.043 C 
ENDBRANCH  10  18
BRANCH  11  22
HETATM   22  O2  UNL     1      26.994   2.936  50.355  1.00  0.00    -0.285 OA
HETATM   23  H26 UNL     1      27.675   3.419  50.853  1.00  0.00     0.245 HD
ENDBRANCH  11  22
BRANCH   1  24
HETATM   24  C3  UNL     1      27.815   2.127  52.609  1.00  0.00     0.219 C 
BRANCH  24  25
HETATM   25  O1  UNL     1      28.051   2.567  53.911  1.00  0.00    -0.377 OA
BRANCH  25  26
HETATM   26  C2  UNL     1      29.115   1.808  54.381  1.00  0.00     0.241 C 
BRANCH  26  27
HETATM   27  S1  UNL     1      28.717   0.083  54.662  1.00  0.00    -0.148 SA
HETATM   28  C1  UNL     1      29.856  -0.887  53.601  1.00  0.00     0.092 C 
ENDBRANCH  26  27
ENDBRANCH  25  26
ENDBRANCH  24  25
ENDBRANCH   1  24
TORSDOF 7
ENDMDL
MODEL 9
REMARK VINA RESULT:      -7.2      4.072      7.595
REMARK  7 active torsions:
REMARK  status: ('A' for Active; 'I' for Inactive)
REMARK    1  A    between atoms: S1_2  and  C2_3 
REMARK    2  A    between atoms: C2_3  and  O1_4 
REMARK    3  A    between atoms: O1_4  and  C3_5 
REMARK    4  A    between atoms: C3_5  and  C4_6 
REMARK    5  A    between atoms: C6_11  and  C7_12 
REMARK    6  A    between atoms: C16_21  and  C17_22 
REMARK    7  A    between atoms: N4_26  and  O2_27 
ROOT
HETATM    1  C4  UNL     1      20.592   2.376  51.858  1.00  0.00     0.260 C 
HETATM    2  N1  UNL     1      20.938   0.976  51.783  1.00  0.00    -0.253 NA
HETATM    3  C5  UNL     1      22.094   0.414  51.727  1.00  0.00     0.226 C 
HETATM    4  N2  UNL     1      23.372   1.009  51.723  1.00  0.00    -0.253 N 
HETATM    5  N3  UNL     1      24.511   0.513  52.411  1.00  0.00    -0.175 NA
HETATM    6  C6  UNL     1      25.332   1.504  52.669  1.00  0.00     0.067 C 
HETATM    7  C13 UNL     1      24.728   2.779  52.124  1.00  0.00     0.095 C 
HETATM    8  C14 UNL     1      23.828   2.206  51.053  1.00  0.00     0.168 C 
HETATM    9  C15 UNL     1      22.796   3.093  50.557  1.00  0.00     0.062 C 
HETATM   10  C16 UNL     1      23.152   3.966  49.627  1.00  0.00     0.029 C 
HETATM   11  N4  UNL     1      21.434   3.128  50.959  1.00  0.00    -0.235 N 
ENDROOT
BRANCH   6  12
HETATM   12  C7  UNL     1      26.606   1.362  53.367  1.00  0.00    -0.010 A 
HETATM   13  C8  UNL     1      26.739   0.287  54.223  1.00  0.00     0.013 A 
HETATM   14  C9  UNL     1      27.972   0.192  54.866  1.00  0.00     0.001 A 
HETATM   15  C10 UNL     1      28.981   1.109  54.657  1.00  0.00     0.000 A 
HETATM   16  C11 UNL     1      28.811   2.177  53.788  1.00  0.00     0.001 A 
HETATM   17  C12 UNL     1      27.602   2.279  53.151  1.00  0.00     0.013 A 
ENDBRANCH   6  12
BRANCH  10  18
HETATM   18  C17 UNL     1      24.471   4.097  49.079  1.00  0.00     0.004 C 
HETATM   19  C18 UNL     1      25.294   5.092  49.392  1.00  0.00    -0.088 C 
HETATM   20  C19 UNL     1      25.123   6.247  50.301  1.00  0.00     0.043 C 
HETATM   21  C20 UNL     1      26.660   5.255  48.843  1.00  0.00     0.043 C 
ENDBRANCH  10  18
BRANCH  11  22
HETATM   22  O2  UNL     1      20.735   4.137  50.340  1.00  0.00    -0.285 OA
HETATM   23  H26 UNL     1      20.672   3.986  49.383  1.00  0.00     0.245 HD
ENDBRANCH  11  22
BRANCH   1  24
HETATM   24  C3  UNL     1      19.136   2.578  51.533  1.00  0.00     0.219 C 
BRANCH  24  25
HETATM   25  O1  UNL     1      18.630   3.746  52.101  1.00  0.00    -0.377 OA
BRANCH  25  26
HETATM   26  C2  UNL     1      17.333   3.871  51.619  1.00  0.00     0.241 C 
BRANCH  26  27
HETATM   27  S1  UNL     1      17.133   3.361  49.913  1.00  0.00    -0.148 SA
HETATM   28  C1  UNL     1      17.693   4.773  48.885  1.00  0.00     0.092 C 
ENDBRANCH  26  27
ENDBRANCH  25  26
ENDBRANCH  24  25
ENDBRANCH   1  24
TORSDOF 7
ENDMDL
