MODEL 1
REMARK VINA RESULT:      -7.7      0.000      0.000
REMARK  2 active torsions:
REMARK  status: ('A' for Active; 'I' for Inactive)
REMARK    1  A    between atoms: C8_13  and  N4_14 
REMARK    2  A    between atoms: N4_14  and  C9_15 
ROOT
HETATM    1  F1  UNL     1      27.057   1.958  51.583  1.00  0.00    -0.182 F 
HETATM    2  C1  UNL     1      26.607   1.183  52.617  1.00  0.00     0.234 A 
HETATM    3  N1  UNL     1      27.627   0.940  53.358  1.00  0.00    -0.239 NA
HETATM    4  C2  UNL     1      27.732   0.186  54.559  1.00  0.00     0.301 A 
HETATM    5  N2  UNL     1      26.561  -0.416  55.070  1.00  0.00    -0.266 NA
HETATM    6  C3  UNL     1      25.314  -0.527  54.795  1.00  0.00     0.083 A 
HETATM    7  C4  UNL     1      24.532  -1.271  55.663  1.00  0.00     0.150 A 
HETATM    8  N3  UNL     1      23.207  -1.422  55.423  1.00  0.00    -0.251 NA
HETATM    9  C5  UNL     1      22.628  -0.859  54.346  1.00  0.00     0.103 A 
HETATM   10 BR1  UNL     1      20.747  -1.132  54.094  1.00  0.00    -0.029 Br
HETATM   11  C6  UNL     1      23.374  -0.103  53.445  1.00  0.00     0.055 A 
HETATM   12  C7  UNL     1      24.720   0.048  53.695  1.00  0.00     0.028 A 
HETATM   13  C8  UNL     1      25.207   0.793  52.718  1.00  0.00     0.103 A 
ENDROOT
BRANCH  13  14
HETATM   14  N4  UNL     1      24.441   1.300  51.661  1.00  0.00    -0.355 N 
HETATM   15  H5  UNL     1      23.992   0.861  50.827  1.00  0.00     0.166 HD
BRANCH  14  16
HETATM   16  C9  UNL     1      24.132   2.696  51.579  1.00  0.00     0.014 A 
HETATM   17  C10 UNL     1      23.792   3.354  52.676  1.00  0.00     0.025 A 
HETATM   18  C11 UNL     1      23.458   4.771  52.713  1.00  0.00     0.002 A 
HETATM   19  C12 UNL     1      23.480   5.482  51.613  1.00  0.00     0.004 A 
HETATM   20  P1  UNL     1      23.910   4.856  49.948  1.00  0.00    -0.100 P 
HETATM   21  C13 UNL     1      24.300   3.037  50.142  1.00  0.00     0.092 A 
HETATM   22  H9  UNL     1      22.796   5.060  49.034  1.00  0.00     0.062 HD
ENDBRANCH  14  16
ENDBRANCH  13  14
TORSDOF 2
ENDMDL
MODEL 2
REMARK VINA RESULT:      -7.3      2.424      3.621
REMARK  2 active torsions:
REMARK  status: ('A' for Active; 'I' for Inactive)
REMARK    1  A    between atoms: C8_13  and  N4_14 
REMARK    2  A    between atoms: N4_14  and  C9_15 
ROOT
HETATM    1  F1  UNL     1      21.206   0.710  51.279  1.00  0.00    -0.182 F 
HETATM    2  C1  UNL     1      21.787   0.163  52.391  1.00  0.00     0.234 A 
HETATM    3  N1  UNL     1      20.851  -0.448  53.023  1.00  0.00    -0.239 NA
HETATM    4  C2  UNL     1      20.892  -1.186  54.239  1.00  0.00     0.301 A 
HETATM    5  N2  UNL     1      22.134  -1.302  54.902  1.00  0.00    -0.266 NA
HETATM    6  C3  UNL     1      23.354  -0.935  54.773  1.00  0.00     0.083 A 
HETATM    7  C4  UNL     1      24.249  -1.328  55.755  1.00  0.00     0.150 A 
HETATM    8  N3  UNL     1      25.552  -0.969  55.671  1.00  0.00    -0.251 NA
HETATM    9  C5  UNL     1      26.002  -0.228  54.641  1.00  0.00     0.103 A 
HETATM   10 BR1  UNL     1      27.864   0.229  54.612  1.00  0.00    -0.029 Br
HETATM   11  C6  UNL     1      25.142   0.192  53.630  1.00  0.00     0.055 A 
HETATM   12  C7  UNL     1      23.818  -0.177  53.721  1.00  0.00     0.028 A 
HETATM   13  C8  UNL     1      23.208   0.330  52.665  1.00  0.00     0.103 A 
ENDROOT
BRANCH  13  14
HETATM   14  N4  UNL     1      23.849   1.090  51.678  1.00  0.00    -0.355 N 
HETATM   15  H5  UNL     1      24.512   0.851  50.908  1.00  0.00     0.166 HD
BRANCH  14  16
HETATM   16  C9  UNL     1      23.643   2.504  51.589  1.00  0.00     0.014 A 
HETATM   17  C10 UNL     1      23.616   3.231  52.695  1.00  0.00     0.025 A 
HETATM   18  C11 UNL     1      23.414   4.672  52.726  1.00  0.00     0.002 A 
HETATM   19  C12 UNL     1      23.243   5.338  51.611  1.00  0.00     0.004 A 
HETATM   20  P1  UNL     1      23.232   4.614  49.929  1.00  0.00    -0.100 P 
HETATM   21  C13 UNL     1      23.508   2.776  50.134  1.00  0.00     0.092 A 
HETATM   22  H9  UNL     1      21.960   4.886  49.277  1.00  0.00     0.062 HD
ENDBRANCH  14  16
ENDBRANCH  13  14
TORSDOF 2
ENDMDL
MODEL 3
REMARK VINA RESULT:      -6.8      1.634      2.247
REMARK  2 active torsions:
REMARK  status: ('A' for Active; 'I' for Inactive)
REMARK    1  A    between atoms: C8_13  and  N4_14 
REMARK    2  A    between atoms: N4_14  and  C9_15 
ROOT
HETATM    1  F1  UNL     1      25.946   1.183  52.098  1.00  0.00    -0.182 F 
HETATM    2  C1  UNL     1      24.939   0.550  52.775  1.00  0.00     0.234 A 
HETATM    3  N1  UNL     1      25.493  -0.061  53.759  1.00  0.00    -0.239 NA
HETATM    4  C2  UNL     1      24.920  -0.870  54.779  1.00  0.00     0.301 A 
HETATM    5  N2  UNL     1      23.521  -1.069  54.760  1.00  0.00    -0.266 NA
HETATM    6  C3  UNL     1      22.492  -0.740  54.073  1.00  0.00     0.083 A 
HETATM    7  C4  UNL     1      21.262  -1.222  54.491  1.00  0.00     0.150 A 
HETATM    8  N3  UNL     1      20.138  -0.906  53.803  1.00  0.00    -0.251 NA
HETATM    9  C5  UNL     1      20.192  -0.125  52.708  1.00  0.00     0.103 A 
HETATM   10 BR1  UNL     1      18.547   0.265  51.804  1.00  0.00    -0.029 Br
HETATM   11  C6  UNL     1      21.405   0.384  52.249  1.00  0.00     0.055 A 
HETATM   12  C7  UNL     1      22.543   0.060  52.954  1.00  0.00     0.028 A 
HETATM   13  C8  UNL     1      23.553   0.649  52.337  1.00  0.00     0.103 A 
ENDROOT
BRANCH  13  14
HETATM   14  N4  UNL     1      23.417   1.440  51.189  1.00  0.00    -0.355 N 
HETATM   15  H5  UNL     1      23.196   1.224  50.192  1.00  0.00     0.166 HD
BRANCH  14  16
HETATM   16  C9  UNL     1      23.593   2.860  51.249  1.00  0.00     0.014 A 
HETATM   17  C10 UNL     1      23.108   3.535  52.279  1.00  0.00     0.025 A 
HETATM   18  C11 UNL     1      23.226   4.976  52.445  1.00  0.00     0.002 A 
HETATM   19  C12 UNL     1      23.845   5.695  51.542  1.00  0.00     0.004 A 
HETATM   20  P1  UNL     1      24.618   5.050  50.013  1.00  0.00    -0.100 P 
HETATM   21  C13 UNL     1      24.347   3.199  50.014  1.00  0.00     0.092 A 
HETATM   22  H9  UNL     1      24.012   5.670  48.846  1.00  0.00     0.062 HD
ENDBRANCH  14  16
ENDBRANCH  13  14
TORSDOF 2
ENDMDL
MODEL 4
REMARK VINA RESULT:      -6.8      2.758      3.958
REMARK  2 active torsions:
REMARK  status: ('A' for Active; 'I' for Inactive)
REMARK    1  A    between atoms: C8_13  and  N4_14 
REMARK    2  A    between atoms: N4_14  and  C9_15 
ROOT
HETATM    1  F1  UNL     1      21.696   2.782  52.493  1.00  0.00    -0.182 F 
HETATM    2  C1  UNL     1      22.587   1.793  52.808  1.00  0.00     0.234 A 
HETATM    3  N1  UNL     1      21.914   0.700  52.849  1.00  0.00    -0.239 NA
HETATM    4  C2  UNL     1      22.335  -0.629  53.129  1.00  0.00     0.301 A 
HETATM    5  N2  UNL     1      23.702  -0.846  53.414  1.00  0.00    -0.266 NA
HETATM    6  C3  UNL     1      24.799  -0.192  53.516  1.00  0.00     0.083 A 
HETATM    7  C4  UNL     1      25.942  -0.907  53.836  1.00  0.00     0.150 A 
HETATM    8  N3  UNL     1      27.131  -0.269  53.957  1.00  0.00    -0.251 NA
HETATM    9  C5  UNL     1      27.226   1.061  53.774  1.00  0.00     0.103 A 
HETATM   10 BR1  UNL     1      28.952   1.872  53.969  1.00  0.00    -0.029 Br
HETATM   11  C6  UNL     1      26.105   1.823  53.452  1.00  0.00     0.055 A 
HETATM   12  C7  UNL     1      24.900   1.168  53.329  1.00  0.00     0.028 A 
HETATM   13  C8  UNL     1      23.998   2.084  53.024  1.00  0.00     0.103 A 
ENDROOT
BRANCH  13  14
HETATM   14  N4  UNL     1      24.284   3.447  52.871  1.00  0.00    -0.355 N 
HETATM   15  H5  UNL     1      24.577   4.196  53.535  1.00  0.00     0.166 HD
BRANCH  14  16
HETATM   16  C9  UNL     1      24.197   4.077  51.587  1.00  0.00     0.014 A 
HETATM   17  C10 UNL     1      24.665   3.451  50.519  1.00  0.00     0.025 A 
HETATM   18  C11 UNL     1      24.630   3.994  49.169  1.00  0.00     0.002 A 
HETATM   19  C12 UNL     1      24.112   5.176  48.947  1.00  0.00     0.004 A 
HETATM   20  P1  UNL     1      23.386   6.276  50.216  1.00  0.00    -0.100 P 
HETATM   21  C13 UNL     1      23.537   5.382  51.852  1.00  0.00     0.092 A 
HETATM   22  H9  UNL     1      24.097   7.545  50.243  1.00  0.00     0.062 HD
ENDBRANCH  14  16
ENDBRANCH  13  14
TORSDOF 2
ENDMDL
MODEL 5
REMARK VINA RESULT:      -6.6      3.312      4.605
REMARK  2 active torsions:
REMARK  status: ('A' for Active; 'I' for Inactive)
REMARK    1  A    between atoms: C8_13  and  N4_14 
REMARK    2  A    between atoms: N4_14  and  C9_15 
ROOT
HETATM    1  F1  UNL     1      19.748   1.423  52.780  1.00  0.00    -0.182 F 
HETATM    2  C1  UNL     1      20.880   0.773  53.190  1.00  0.00     0.234 A 
HETATM    3  N1  UNL     1      20.486  -0.259  53.845  1.00  0.00    -0.239 NA
HETATM    4  C2  UNL     1      21.238  -1.280  54.491  1.00  0.00     0.301 A 
HETATM    5  N2  UNL     1      22.647  -1.201  54.437  1.00  0.00    -0.266 NA
HETATM    6  C3  UNL     1      23.571  -0.453  53.959  1.00  0.00     0.083 A 
HETATM    7  C4  UNL     1      24.884  -0.829  54.194  1.00  0.00     0.150 A 
HETATM    8  N3  UNL     1      25.902  -0.076  53.712  1.00  0.00    -0.251 NA
HETATM    9  C5  UNL     1      25.663   1.043  53.004  1.00  0.00     0.103 A 
HETATM   10 BR1  UNL     1      27.172   2.040  52.367  1.00  0.00    -0.029 Br
HETATM   11  C6  UNL     1      24.361   1.461  52.743  1.00  0.00     0.055 A 
HETATM   12  C7  UNL     1      23.330   0.691  53.234  1.00  0.00     0.028 A 
HETATM   13  C8  UNL     1      22.206   1.280  52.865  1.00  0.00     0.103 A 
ENDROOT
BRANCH  13  14
HETATM   14  N4  UNL     1      22.149   2.462  52.115  1.00  0.00    -0.355 N 
HETATM   15  H5  UNL     1      22.400   3.454  52.321  1.00  0.00     0.166 HD
BRANCH  14  16
HETATM   16  C9  UNL     1      21.662   2.456  50.768  1.00  0.00     0.014 A 
HETATM   17  C10 UNL     1      22.006   1.470  49.954  1.00  0.00     0.025 A 
HETATM   18  C11 UNL     1      21.573   1.361  48.568  1.00  0.00     0.002 A 
HETATM   19  C12 UNL     1      20.792   2.275  48.048  1.00  0.00     0.004 A 
HETATM   20  P1  UNL     1      20.153   3.752  48.919  1.00  0.00    -0.100 P 
HETATM   21  C13 UNL     1      20.828   3.682  50.662  1.00  0.00     0.092 A 
HETATM   22  H9  UNL     1      20.584   4.962  48.236  1.00  0.00     0.062 HD
ENDBRANCH  14  16
ENDBRANCH  13  14
TORSDOF 2
ENDMDL
MODEL 6
REMARK VINA RESULT:      -6.4      2.236      3.049
REMARK  2 active torsions:
REMARK  status: ('A' for Active; 'I' for Inactive)
REMARK    1  A    between atoms: C8_13  and  N4_14 
REMARK    2  A    between atoms: N4_14  and  C9_15 
ROOT
HETATM    1  F1  UNL     1      24.653   4.264  50.551  1.00  0.00    -0.182 F 
HETATM    2  C1  UNL     1      24.966   3.151  51.282  1.00  0.00     0.234 A 
HETATM    3  N1  UNL     1      26.244   3.036  51.238  1.00  0.00    -0.239 NA
HETATM    4  C2  UNL     1      27.101   2.061  51.820  1.00  0.00     0.301 A 
HETATM    5  N2  UNL     1      26.510   1.030  52.584  1.00  0.00    -0.266 NA
HETATM    6  C3  UNL     1      25.355   0.632  52.968  1.00  0.00     0.083 A 
HETATM    7  C4  UNL     1      25.300  -0.508  53.753  1.00  0.00     0.150 A 
HETATM    8  N3  UNL     1      24.105  -0.976  54.190  1.00  0.00    -0.251 NA
HETATM    9  C5  UNL     1      22.957  -0.349  53.871  1.00  0.00     0.103 A 
HETATM   10 BR1  UNL     1      21.318  -1.090  54.537  1.00  0.00    -0.029 Br
HETATM   11  C6  UNL     1      22.961   0.800  53.085  1.00  0.00     0.055 A 
HETATM   12  C7  UNL     1      24.179   1.271  52.645  1.00  0.00     0.028 A 
HETATM   13  C8  UNL     1      23.932   2.352  51.928  1.00  0.00     0.103 A 
ENDROOT
BRANCH  13  14
HETATM   14  N4  UNL     1      22.649   2.867  51.700  1.00  0.00    -0.355 N 
HETATM   15  H5  UNL     1      21.952   3.350  52.309  1.00  0.00     0.166 HD
BRANCH  14  16
HETATM   16  C9  UNL     1      22.042   2.781  50.406  1.00  0.00     0.014 A 
HETATM   17  C10 UNL     1      22.184   1.677  49.690  1.00  0.00     0.025 A 
HETATM   18  C11 UNL     1      21.613   1.478  48.365  1.00  0.00     0.002 A 
HETATM   19  C12 UNL     1      20.905   2.426  47.804  1.00  0.00     0.004 A 
HETATM   20  P1  UNL     1      20.535   4.059  48.543  1.00  0.00    -0.100 P 
HETATM   21  C13 UNL     1      21.357   4.087  50.223  1.00  0.00     0.092 A 
HETATM   22  H9  UNL     1      21.044   5.121  47.689  1.00  0.00     0.062 HD
ENDBRANCH  14  16
ENDBRANCH  13  14
TORSDOF 2
ENDMDL
MODEL 7
REMARK VINA RESULT:      -6.3      1.966      2.504
REMARK  2 active torsions:
REMARK  status: ('A' for Active; 'I' for Inactive)
REMARK    1  A    between atoms: C8_13  and  N4_14 
REMARK    2  A    between atoms: N4_14  and  C9_15 
ROOT
HETATM    1  F1  UNL     1      26.941   2.830  53.723  1.00  0.00    -0.182 F 
HETATM    2  C1  UNL     1      26.016   1.830  53.605  1.00  0.00     0.234 A 
HETATM    3  N1  UNL     1      26.627   0.736  53.886  1.00  0.00    -0.239 NA
HETATM    4  C2  UNL     1      26.149  -0.603  53.920  1.00  0.00     0.301 A 
HETATM    5  N2  UNL     1      24.790  -0.830  53.604  1.00  0.00    -0.266 NA
HETATM    6  C3  UNL     1      23.740  -0.180  53.265  1.00  0.00     0.083 A 
HETATM    7  C4  UNL     1      22.579  -0.907  53.056  1.00  0.00     0.150 A 
HETATM    8  N3  UNL     1      21.436  -0.273  52.696  1.00  0.00    -0.251 NA
HETATM    9  C5  UNL     1      21.406   1.063  52.533  1.00  0.00     0.103 A 
HETATM   10 BR1  UNL     1      19.742   1.865  52.021  1.00  0.00    -0.029 Br
HETATM   11  C6  UNL     1      22.548   1.835  52.731  1.00  0.00     0.055 A 
HETATM   12  C7  UNL     1      23.705   1.186  53.098  1.00  0.00     0.028 A 
HETATM   13  C8  UNL     1      24.638   2.112  53.225  1.00  0.00     0.103 A 
ENDROOT
BRANCH  13  14
HETATM   14  N4  UNL     1      24.420   3.480  53.012  1.00  0.00    -0.355 N 
HETATM   15  H5  UNL     1      24.175   4.273  53.644  1.00  0.00     0.166 HD
BRANCH  14  16
HETATM   16  C9  UNL     1      24.520   4.045  51.700  1.00  0.00     0.014 A 
HETATM   17  C10 UNL     1      25.321   3.485  50.807  1.00  0.00     0.025 A 
HETATM   18  C11 UNL     1      25.502   3.972  49.447  1.00  0.00     0.002 A 
HETATM   19  C12 UNL     1      24.851   5.031  49.034  1.00  0.00     0.004 A 
HETATM   20  P1  UNL     1      23.675   6.015  50.033  1.00  0.00    -0.100 P 
HETATM   21  C13 UNL     1      23.601   5.213  51.721  1.00  0.00     0.092 A 
HETATM   22  H9  UNL     1      24.130   7.394  50.125  1.00  0.00     0.062 HD
ENDBRANCH  14  16
ENDBRANCH  13  14
TORSDOF 2
ENDMDL
MODEL 8
REMARK VINA RESULT:      -6.0      4.520      6.291
REMARK  2 active torsions:
REMARK  status: ('A' for Active; 'I' for Inactive)
REMARK    1  A    between atoms: C8_13  and  N4_14 
REMARK    2  A    between atoms: N4_14  and  C9_15 
ROOT
HETATM    1  F1  UNL     1      27.733   4.493  48.620  1.00  0.00    -0.182 F 
HETATM    2  C1  UNL     1      26.670   4.318  49.464  1.00  0.00     0.234 A 
HETATM    3  N1  UNL     1      26.925   3.265  50.153  1.00  0.00    -0.239 NA
HETATM    4  C2  UNL     1      26.166   2.627  51.173  1.00  0.00     0.301 A 
HETATM    5  N2  UNL     1      24.924   3.196  51.530  1.00  0.00    -0.266 NA
HETATM    6  C3  UNL     1      24.172   4.186  51.219  1.00  0.00     0.083 A 
HETATM    7  C4  UNL     1      22.974   4.318  51.902  1.00  0.00     0.150 A 
HETATM    8  N3  UNL     1      22.139   5.347  51.616  1.00  0.00    -0.251 NA
HETATM    9  C5  UNL     1      22.452   6.252  50.671  1.00  0.00     0.103 A 
HETATM   10 BR1  UNL     1      21.205   7.670  50.340  1.00  0.00    -0.029 Br
HETATM   11  C6  UNL     1      23.645   6.161  49.958  1.00  0.00     0.055 A 
HETATM   12  C7  UNL     1      24.490   5.115  50.254  1.00  0.00     0.028 A 
HETATM   13  C8  UNL     1      25.540   5.237  49.461  1.00  0.00     0.103 A 
ENDROOT
BRANCH  13  14
HETATM   14  N4  UNL     1      25.697   6.263  48.520  1.00  0.00    -0.355 N 
HETATM   15  H5  UNL     1      25.293   6.435  47.574  1.00  0.00     0.166 HD
BRANCH  14  16
HETATM   16  C9  UNL     1      26.566   7.371  48.780  1.00  0.00     0.014 A 
HETATM   17  C10 UNL     1      26.470   8.021  49.929  1.00  0.00     0.025 A 
HETATM   18  C11 UNL     1      27.298   9.160  50.300  1.00  0.00     0.002 A 
HETATM   19  C12 UNL     1      28.212   9.607  49.475  1.00  0.00     0.004 A 
HETATM   20  P1  UNL     1      28.581   8.919  47.820  1.00  0.00    -0.100 P 
HETATM   21  C13 UNL     1      27.411   7.482  47.562  1.00  0.00     0.092 A 
HETATM   22  H9  UNL     1      28.392   9.940  46.801  1.00  0.00     0.062 HD
ENDBRANCH  14  16
ENDBRANCH  13  14
TORSDOF 2
ENDMDL
MODEL 9
REMARK VINA RESULT:      -6.0      3.706      4.992
REMARK  2 active torsions:
REMARK  status: ('A' for Active; 'I' for Inactive)
REMARK    1  A    between atoms: C8_13  and  N4_14 
REMARK    2  A    between atoms: N4_14  and  C9_15 
ROOT
HETATM    1  F1  UNL     1      22.953   1.667  53.142  1.00  0.00    -0.182 F 
HETATM    2  C1  UNL     1      22.025   0.689  53.373  1.00  0.00     0.234 A 
HETATM    3  N1  UNL     1      22.588  -0.169  54.145  1.00  0.00    -0.239 NA
HETATM    4  C2  UNL     1      22.084  -1.379  54.697  1.00  0.00     0.301 A 
HETATM    5  N2  UNL     1      20.758  -1.750  54.383  1.00  0.00    -0.266 NA
HETATM    6  C3  UNL     1      19.755  -1.330  53.705  1.00  0.00     0.083 A 
HETATM    7  C4  UNL     1      18.606  -2.104  53.716  1.00  0.00     0.150 A 
HETATM    8  N3  UNL     1      17.514  -1.709  53.018  1.00  0.00    -0.251 NA
HETATM    9  C5  UNL     1      17.523  -0.568  52.304  1.00  0.00     0.103 A 
HETATM   10 BR1  UNL     1      15.929  -0.096  51.349  1.00  0.00    -0.029 Br
HETATM   11  C6  UNL     1      18.655   0.243  52.261  1.00  0.00     0.055 A 
HETATM   12  C7  UNL     1      19.761  -0.163  52.974  1.00  0.00     0.028 A 
HETATM   13  C8  UNL     1      20.694   0.752  52.783  1.00  0.00     0.103 A 
ENDROOT
BRANCH  13  14
HETATM   14  N4  UNL     1      20.521   1.896  51.993  1.00  0.00    -0.355 N 
HETATM   15  H5  UNL     1      19.985   2.782  52.122  1.00  0.00     0.166 HD
BRANCH  14  16
HETATM   16  C9  UNL     1      21.155   2.008  50.714  1.00  0.00     0.014 A 
HETATM   17  C10 UNL     1      21.094   0.996  49.863  1.00  0.00     0.025 A 
HETATM   18  C11 UNL     1      21.700   0.998  48.539  1.00  0.00     0.002 A 
HETATM   19  C12 UNL     1      22.360   2.048  48.118  1.00  0.00     0.004 A 
HETATM   20  P1  UNL     1      22.615   3.595  49.062  1.00  0.00    -0.100 P 
HETATM   21  C13 UNL     1      21.758   3.367  50.709  1.00  0.00     0.092 A 
HETATM   22  H9  UNL     1      24.037   3.844  49.239  1.00  0.00     0.062 HD
ENDBRANCH  14  16
ENDBRANCH  13  14
TORSDOF 2
ENDMDL
