MODEL 1
REMARK VINA RESULT:      -8.3      0.000      0.000
REMARK  6 active torsions:
REMARK  status: ('A' for Active; 'I' for Inactive)
REMARK    1  A    between atoms: C2_2  and  C3_3 
REMARK       I    between atoms: C3_3  and  N1_5 
REMARK    2  A    between atoms: C6_8  and  C7_9 
REMARK    3  A    between atoms: C12_17  and  N4_18 
REMARK    4  A    between atoms: N4_18  and  C13_19 
REMARK    5  A    between atoms: C13_19  and  C14_20 
REMARK    6  A    between atoms: C13_19  and  C16_22 
ROOT
HETATM    1  C7  UNL     1      23.838  -0.151  53.063  1.00  0.00     0.009 A 
HETATM    2  C8  UNL     1      24.304   0.982  52.529  1.00  0.00     0.035 A 
HETATM    3  C9  UNL     1      25.579   1.414  52.779  1.00  0.00     0.044 A 
HETATM    4  C10 UNL     1      26.343   0.603  53.613  1.00  0.00     0.108 A 
HETATM    5  S1  UNL     1      25.250  -0.780  54.048  1.00  0.00    -0.072 SA
HETATM    6  N2  UNL     1      27.541   0.800  53.980  1.00  0.00    -0.262 NA
HETATM    7  C11 UNL     1      28.334   1.943  53.575  1.00  0.00     0.273 A 
HETATM    8  N3  UNL     1      27.489   2.743  52.714  1.00  0.00    -0.358 N 
HETATM    9  C12 UNL     1      26.151   2.511  52.311  1.00  0.00     0.112 A 
HETATM   10  H12 UNL     1      28.024   3.580  52.399  1.00  0.00     0.162 HD
ENDROOT
BRANCH   9  11
HETATM   11  N4  UNL     1      25.484   3.424  51.453  1.00  0.00    -0.367 N 
HETATM   12  H13 UNL     1      24.880   4.158  51.910  1.00  0.00     0.161 HD
BRANCH  11  13
HETATM   13  C13 UNL     1      25.606   3.372  50.033  1.00  0.00     0.116 C 
BRANCH  13  14
HETATM   14  C14 UNL     1      24.238   3.183  49.367  1.00  0.00     0.025 C 
HETATM   15  C15 UNL     1      23.127   3.628  50.327  1.00  0.00     0.007 C 
ENDBRANCH  13  14
BRANCH  13  16
HETATM   16  C16 UNL     1      26.268   4.514  49.405  1.00  0.00    -0.036 A 
HETATM   17  C17 UNL     1      27.575   4.396  48.920  1.00  0.00     0.009 A 
HETATM   18  C18 UNL     1      28.246   5.438  48.319  1.00  0.00     0.001 A 
HETATM   19  C19 UNL     1      27.630   6.662  48.175  1.00  0.00     0.000 A 
HETATM   20  C20 UNL     1      26.335   6.837  48.637  1.00  0.00     0.001 A 
HETATM   21  C21 UNL     1      25.714   5.750  49.231  1.00  0.00     0.009 A 
ENDBRANCH  13  16
ENDBRANCH  11  13
ENDBRANCH   9  11
BRANCH   1  22
HETATM   22  C6  UNL     1      22.579  -0.913  53.032  1.00  0.00     0.129 C 
HETATM   23  N1  UNL     1      21.461   0.030  53.048  1.00  0.00    -0.339 N 
HETATM   24  C3  UNL     1      20.427   0.638  52.320  1.00  0.00     0.240 C 
HETATM   25  C4  UNL     1      21.826   0.226  54.459  1.00  0.00     0.129 C 
HETATM   26  O1  UNL     1      19.701   1.462  52.923  1.00  0.00    -0.269 OA
HETATM   27  C5  UNL     1      22.096  -1.286  54.442  1.00  0.00     0.050 C 
BRANCH  24  28
HETATM   28  C2  UNL     1      20.202   0.333  50.932  1.00  0.00     0.048 C 
HETATM   29  C1  UNL     1      21.042   0.603  49.958  1.00  0.00     0.037 C 
ENDBRANCH  24  28
ENDBRANCH   1  22
TORSDOF 6
ENDMDL
MODEL 2
REMARK VINA RESULT:      -8.3      2.724      6.526
REMARK  6 active torsions:
REMARK  status: ('A' for Active; 'I' for Inactive)
REMARK    1  A    between atoms: C2_2  and  C3_3 
REMARK       I    between atoms: C3_3  and  N1_5 
REMARK    2  A    between atoms: C6_8  and  C7_9 
REMARK    3  A    between atoms: C12_17  and  N4_18 
REMARK    4  A    between atoms: N4_18  and  C13_19 
REMARK    5  A    between atoms: C13_19  and  C14_20 
REMARK    6  A    between atoms: C13_19  and  C16_22 
ROOT
HETATM    1  C7  UNL     1      25.987   1.383  53.274  1.00  0.00     0.009 A 
HETATM    2  C8  UNL     1      24.814   1.876  52.866  1.00  0.00     0.035 A 
HETATM    3  C9  UNL     1      24.729   2.696  51.773  1.00  0.00     0.044 A 
HETATM    4  C10 UNL     1      25.930   2.975  51.127  1.00  0.00     0.108 A 
HETATM    5  S1  UNL     1      27.189   2.070  52.073  1.00  0.00    -0.072 SA
HETATM    6  N2  UNL     1      26.094   3.703  50.102  1.00  0.00    -0.262 NA
HETATM    7  C11 UNL     1      25.017   4.388  49.415  1.00  0.00     0.273 A 
HETATM    8  N3  UNL     1      23.803   4.060  50.130  1.00  0.00    -0.358 N 
HETATM    9  C12 UNL     1      23.633   3.244  51.274  1.00  0.00     0.112 A 
HETATM   10  H12 UNL     1      22.999   4.536  49.666  1.00  0.00     0.162 HD
ENDROOT
BRANCH   9  11
HETATM   11  N4  UNL     1      22.345   3.043  51.837  1.00  0.00    -0.367 N 
HETATM   12  H13 UNL     1      21.988   3.786  52.496  1.00  0.00     0.161 HD
BRANCH  11  13
HETATM   13  C13 UNL     1      21.550   1.897  51.543  1.00  0.00     0.116 C 
BRANCH  13  14
HETATM   14  C14 UNL     1      22.014   1.218  50.249  1.00  0.00     0.025 C 
HETATM   15  C15 UNL     1      20.881   1.239  49.216  1.00  0.00     0.007 C 
ENDBRANCH  13  14
BRANCH  13  16
HETATM   16  C16 UNL     1      21.477   0.881  52.592  1.00  0.00    -0.036 A 
HETATM   17  C17 UNL     1      22.098  -0.360  52.420  1.00  0.00     0.009 A 
HETATM   18  C18 UNL     1      22.061  -1.352  53.375  1.00  0.00     0.001 A 
HETATM   19  C19 UNL     1      21.392  -1.143  54.561  1.00  0.00     0.000 A 
HETATM   20  C20 UNL     1      20.759   0.069  54.786  1.00  0.00     0.001 A 
HETATM   21  C21 UNL     1      20.832   1.026  53.787  1.00  0.00     0.009 A 
ENDBRANCH  13  16
ENDBRANCH  11  13
ENDBRANCH   9  11
BRANCH   1  22
HETATM   22  C6  UNL     1      26.464   0.506  54.356  1.00  0.00     0.129 C 
HETATM   23  N1  UNL     1      27.075  -0.683  53.760  1.00  0.00    -0.339 N 
HETATM   24  C3  UNL     1      28.261  -1.375  53.473  1.00  0.00     0.240 C 
HETATM   25  C4  UNL     1      25.690  -1.071  53.451  1.00  0.00     0.129 C 
HETATM   26  O1  UNL     1      28.162  -2.472  52.875  1.00  0.00    -0.269 OA
HETATM   27  C5  UNL     1      25.375  -0.469  54.829  1.00  0.00     0.050 C 
BRANCH  24  28
HETATM   28  C2  UNL     1      29.548  -0.851  53.847  1.00  0.00     0.048 C 
HETATM   29  C1  UNL     1      30.017   0.321  53.484  1.00  0.00     0.037 C 
ENDBRANCH  24  28
ENDBRANCH   1  22
TORSDOF 6
ENDMDL
MODEL 3
REMARK VINA RESULT:      -8.2      3.027      6.077
REMARK  6 active torsions:
REMARK  status: ('A' for Active; 'I' for Inactive)
REMARK    1  A    between atoms: C2_2  and  C3_3 
REMARK       I    between atoms: C3_3  and  N1_5 
REMARK    2  A    between atoms: C6_8  and  C7_9 
REMARK    3  A    between atoms: C12_17  and  N4_18 
REMARK    4  A    between atoms: N4_18  and  C13_19 
REMARK    5  A    between atoms: C13_19  and  C14_20 
REMARK    6  A    between atoms: C13_19  and  C16_22 
ROOT
HETATM    1  C7  UNL     1      25.643   0.474  52.694  1.00  0.00     0.009 A 
HETATM    2  C8  UNL     1      24.340   0.747  52.583  1.00  0.00     0.035 A 
HETATM    3  C9  UNL     1      23.411   0.111  53.362  1.00  0.00     0.044 A 
HETATM    4  C10 UNL     1      23.912  -0.825  54.263  1.00  0.00     0.108 A 
HETATM    5  S1  UNL     1      25.710  -0.803  54.006  1.00  0.00    -0.072 SA
HETATM    6  N2  UNL     1      23.246  -1.530  55.080  1.00  0.00    -0.262 NA
HETATM    7  C11 UNL     1      21.804  -1.473  55.210  1.00  0.00     0.273 A 
HETATM    8  N3  UNL     1      21.346  -0.489  54.253  1.00  0.00    -0.358 N 
HETATM    9  C12 UNL     1      22.100   0.293  53.346  1.00  0.00     0.112 A 
HETATM   10  H12 UNL     1      20.307  -0.417  54.314  1.00  0.00     0.162 HD
ENDROOT
BRANCH   9  11
HETATM   11  N4  UNL     1      21.461   1.215  52.476  1.00  0.00    -0.367 N 
HETATM   12  H13 UNL     1      21.316   2.195  52.839  1.00  0.00     0.161 HD
BRANCH  11  13
HETATM   13  C13 UNL     1      21.023   0.858  51.167  1.00  0.00     0.116 C 
BRANCH  13  14
HETATM   14  C14 UNL     1      19.510   1.060  51.016  1.00  0.00     0.025 C 
HETATM   15  C15 UNL     1      18.760  -0.054  51.757  1.00  0.00     0.007 C 
ENDBRANCH  13  14
BRANCH  13  16
HETATM   16  C16 UNL     1      21.689   1.541  50.060  1.00  0.00    -0.036 A 
HETATM   17  C17 UNL     1      21.496   1.110  48.743  1.00  0.00     0.009 A 
HETATM   18  C18 UNL     1      22.099   1.716  47.663  1.00  0.00     0.001 A 
HETATM   19  C19 UNL     1      22.932   2.797  47.855  1.00  0.00     0.000 A 
HETATM   20  C20 UNL     1      23.159   3.267  49.138  1.00  0.00     0.001 A 
HETATM   21  C21 UNL     1      22.524   2.615  50.182  1.00  0.00     0.009 A 
ENDBRANCH  13  16
ENDBRANCH  11  13
ENDBRANCH   9  11
BRANCH   1  22
HETATM   22  C6  UNL     1      26.892   0.930  52.061  1.00  0.00     0.129 C 
HETATM   23  N1  UNL     1      27.832   1.324  53.110  1.00  0.00    -0.339 N 
HETATM   24  C3  UNL     1      28.999   1.006  53.821  1.00  0.00     0.240 C 
HETATM   25  C4  UNL     1      26.958   2.497  53.261  1.00  0.00     0.129 C 
HETATM   26  O1  UNL     1      29.372   1.807  54.710  1.00  0.00    -0.269 OA
HETATM   27  C5  UNL     1      26.856   2.429  51.730  1.00  0.00     0.050 C 
BRANCH  24  28
HETATM   28  C2  UNL     1      29.745  -0.194  53.547  1.00  0.00     0.048 C 
HETATM   29  C1  UNL     1      29.240  -1.407  53.537  1.00  0.00     0.037 C 
ENDBRANCH  24  28
ENDBRANCH   1  22
TORSDOF 6
ENDMDL
MODEL 4
REMARK VINA RESULT:      -8.1      2.255      4.252
REMARK  6 active torsions:
REMARK  status: ('A' for Active; 'I' for Inactive)
REMARK    1  A    between atoms: C2_2  and  C3_3 
REMARK       I    between atoms: C3_3  and  N1_5 
REMARK    2  A    between atoms: C6_8  and  C7_9 
REMARK    3  A    between atoms: C12_17  and  N4_18 
REMARK    4  A    between atoms: N4_18  and  C13_19 
REMARK    5  A    between atoms: C13_19  and  C14_20 
REMARK    6  A    between atoms: C13_19  and  C16_22 
ROOT
HETATM    1  C7  UNL     1      20.703   0.354  51.943  1.00  0.00     0.009 A 
HETATM    2  C8  UNL     1      22.033   0.350  52.066  1.00  0.00     0.035 A 
HETATM    3  C9  UNL     1      22.644  -0.192  53.166  1.00  0.00     0.044 A 
HETATM    4  C10 UNL     1      21.795  -0.730  54.129  1.00  0.00     0.108 A 
HETATM    5  S1  UNL     1      20.122  -0.467  53.474  1.00  0.00    -0.072 SA
HETATM    6  N2  UNL     1      22.131  -1.281  55.220  1.00  0.00    -0.262 NA
HETATM    7  C11 UNL     1      23.504  -1.444  55.655  1.00  0.00     0.273 A 
HETATM    8  N3  UNL     1      24.333  -0.868  54.618  1.00  0.00    -0.358 N 
HETATM    9  C12 UNL     1      23.944  -0.255  53.402  1.00  0.00     0.112 A 
HETATM   10  H12 UNL     1      25.334  -0.964  54.893  1.00  0.00     0.162 HD
ENDROOT
BRANCH   9  11
HETATM   11  N4  UNL     1      24.917   0.257  52.504  1.00  0.00    -0.367 N 
HETATM   12  H13 UNL     1      25.176  -0.351  51.681  1.00  0.00     0.161 HD
BRANCH  11  13
HETATM   13  C13 UNL     1      25.533   1.530  52.683  1.00  0.00     0.116 C 
BRANCH  13  14
HETATM   14  C14 UNL     1      26.993   1.380  53.126  1.00  0.00     0.025 C 
HETATM   15  C15 UNL     1      27.465  -0.059  52.885  1.00  0.00     0.007 C 
ENDBRANCH  13  14
BRANCH  13  16
HETATM   16  C16 UNL     1      25.494   2.428  51.530  1.00  0.00    -0.036 A 
HETATM   17  C17 UNL     1      24.311   3.094  51.191  1.00  0.00     0.009 A 
HETATM   18  C18 UNL     1      24.218   3.950  50.116  1.00  0.00     0.001 A 
HETATM   19  C19 UNL     1      25.320   4.182  49.322  1.00  0.00     0.000 A 
HETATM   20  C20 UNL     1      26.519   3.550  49.611  1.00  0.00     0.001 A 
HETATM   21  C21 UNL     1      26.548   2.700  50.705  1.00  0.00     0.009 A 
ENDBRANCH  13  16
ENDBRANCH  11  13
ENDBRANCH   9  11
BRANCH   1  22
HETATM   22  C6  UNL     1      19.719   0.822  50.952  1.00  0.00     0.129 C 
HETATM   23  N1  UNL     1      20.090   2.172  50.527  1.00  0.00    -0.339 N 
HETATM   24  C3  UNL     1      20.623   2.978  49.509  1.00  0.00     0.240 C 
HETATM   25  C4  UNL     1      19.608   2.576  51.857  1.00  0.00     0.129 C 
HETATM   26  O1  UNL     1      20.712   4.208  49.731  1.00  0.00    -0.269 OA
HETATM   27  C5  UNL     1      18.520   1.517  51.616  1.00  0.00     0.050 C 
BRANCH  24  28
HETATM   28  C2  UNL     1      21.053   2.420  48.254  1.00  0.00     0.048 C 
HETATM   29  C1  UNL     1      22.119   1.669  48.091  1.00  0.00     0.037 C 
ENDBRANCH  24  28
ENDBRANCH   1  22
TORSDOF 6
ENDMDL
MODEL 5
REMARK VINA RESULT:      -8.1      0.931      2.785
REMARK  6 active torsions:
REMARK  status: ('A' for Active; 'I' for Inactive)
REMARK    1  A    between atoms: C2_2  and  C3_3 
REMARK       I    between atoms: C3_3  and  N1_5 
REMARK    2  A    between atoms: C6_8  and  C7_9 
REMARK    3  A    between atoms: C12_17  and  N4_18 
REMARK    4  A    between atoms: N4_18  and  C13_19 
REMARK    5  A    between atoms: C13_19  and  C14_20 
REMARK    6  A    between atoms: C13_19  and  C16_22 
ROOT
HETATM    1  C7  UNL     1      23.935  -0.054  52.895  1.00  0.00     0.009 A 
HETATM    2  C8  UNL     1      24.550   0.880  52.164  1.00  0.00     0.035 A 
HETATM    3  C9  UNL     1      25.766   1.388  52.537  1.00  0.00     0.044 A 
HETATM    4  C10 UNL     1      26.306   0.871  53.711  1.00  0.00     0.108 A 
HETATM    5  S1  UNL     1      25.086  -0.342  54.291  1.00  0.00    -0.072 SA
HETATM    6  N2  UNL     1      27.411   1.188  54.246  1.00  0.00    -0.262 NA
HETATM    7  C11 UNL     1      28.321   2.176  53.701  1.00  0.00     0.273 A 
HETATM    8  N3  UNL     1      27.707   2.673  52.488  1.00  0.00    -0.358 N 
HETATM    9  C12 UNL     1      26.470   2.310  51.900  1.00  0.00     0.112 A 
HETATM   10  H12 UNL     1      28.332   3.389  52.062  1.00  0.00     0.162 HD
ENDROOT
BRANCH   9  11
HETATM   11  N4  UNL     1      26.035   2.918  50.695  1.00  0.00    -0.367 N 
HETATM   12  H13 UNL     1      26.152   2.361  49.806  1.00  0.00     0.161 HD
BRANCH  11  13
HETATM   13  C13 UNL     1      25.462   4.223  50.656  1.00  0.00     0.116 C 
BRANCH  13  14
HETATM   14  C14 UNL     1      25.830   4.951  49.358  1.00  0.00     0.025 C 
HETATM   15  C15 UNL     1      27.247   4.556  48.925  1.00  0.00     0.007 C 
ENDBRANCH  13  14
BRANCH  13  16
HETATM   16  C16 UNL     1      24.011   4.291  50.824  1.00  0.00    -0.036 A 
HETATM   17  C17 UNL     1      23.169   4.301  49.707  1.00  0.00     0.009 A 
HETATM   18  C18 UNL     1      21.797   4.363  49.806  1.00  0.00     0.001 A 
HETATM   19  C19 UNL     1      21.197   4.419  51.046  1.00  0.00     0.000 A 
HETATM   20  C20 UNL     1      21.982   4.411  52.188  1.00  0.00     0.001 A 
HETATM   21  C21 UNL     1      23.356   4.347  52.021  1.00  0.00     0.009 A 
ENDBRANCH  13  16
ENDBRANCH  11  13
ENDBRANCH   9  11
BRANCH   1  22
HETATM   22  C6  UNL     1      22.675  -0.813  52.825  1.00  0.00     0.129 C 
HETATM   23  N1  UNL     1      21.559   0.132  52.824  1.00  0.00    -0.339 N 
HETATM   24  C3  UNL     1      20.544   0.750  52.078  1.00  0.00     0.240 C 
HETATM   25  C4  UNL     1      21.890   0.312  54.246  1.00  0.00     0.129 C 
HETATM   26  O1  UNL     1      19.804   1.568  52.672  1.00  0.00    -0.269 OA
HETATM   27  C5  UNL     1      22.158  -1.200  54.218  1.00  0.00     0.050 C 
BRANCH  24  28
HETATM   28  C2  UNL     1      20.352   0.461  50.681  1.00  0.00     0.048 C 
HETATM   29  C1  UNL     1      21.216   0.739  49.731  1.00  0.00     0.037 C 
ENDBRANCH  24  28
ENDBRANCH   1  22
TORSDOF 6
ENDMDL
MODEL 6
REMARK VINA RESULT:      -8.0      2.371      6.756
REMARK  6 active torsions:
REMARK  status: ('A' for Active; 'I' for Inactive)
REMARK    1  A    between atoms: C2_2  and  C3_3 
REMARK       I    between atoms: C3_3  and  N1_5 
REMARK    2  A    between atoms: C6_8  and  C7_9 
REMARK    3  A    between atoms: C12_17  and  N4_18 
REMARK    4  A    between atoms: N4_18  and  C13_19 
REMARK    5  A    between atoms: C13_19  and  C14_20 
REMARK    6  A    between atoms: C13_19  and  C16_22 
ROOT
HETATM    1  C7  UNL     1      24.775   3.164  50.542  1.00  0.00     0.009 A 
HETATM    2  C8  UNL     1      24.200   2.337  51.420  1.00  0.00     0.035 A 
HETATM    3  C9  UNL     1      24.946   1.472  52.176  1.00  0.00     0.044 A 
HETATM    4  C10 UNL     1      26.321   1.515  51.969  1.00  0.00     0.108 A 
HETATM    5  S1  UNL     1      26.562   2.788  50.697  1.00  0.00    -0.072 SA
HETATM    6  N2  UNL     1      27.203   0.812  52.551  1.00  0.00    -0.262 NA
HETATM    7  C11 UNL     1      26.906  -0.185  53.560  1.00  0.00     0.273 A 
HETATM    8  N3  UNL     1      25.469  -0.181  53.729  1.00  0.00    -0.358 N 
HETATM    9  C12 UNL     1      24.495   0.609  53.073  1.00  0.00     0.112 A 
HETATM   10  H12 UNL     1      25.213  -0.889  54.450  1.00  0.00     0.162 HD
ENDROOT
BRANCH   9  11
HETATM   11  N4  UNL     1      23.117   0.464  53.379  1.00  0.00    -0.367 N 
HETATM   12  H13 UNL     1      22.714   1.121  54.100  1.00  0.00     0.161 HD
BRANCH  11  13
HETATM   13  C13 UNL     1      22.291  -0.518  52.756  1.00  0.00     0.116 C 
BRANCH  13  14
HETATM   14  C14 UNL     1      21.699  -1.480  53.792  1.00  0.00     0.025 C 
HETATM   15  C15 UNL     1      22.276  -1.169  55.179  1.00  0.00     0.007 C 
ENDBRANCH  13  14
BRANCH  13  16
HETATM   16  C16 UNL     1      21.199  -0.006  51.930  1.00  0.00    -0.036 A 
HETATM   17  C17 UNL     1      19.887   0.003  52.417  1.00  0.00     0.009 A 
HETATM   18  C18 UNL     1      18.821   0.473  51.682  1.00  0.00     0.001 A 
HETATM   19  C19 UNL     1      19.024   0.964  50.410  1.00  0.00     0.000 A 
HETATM   20  C20 UNL     1      20.303   0.980  49.877  1.00  0.00     0.001 A 
HETATM   21  C21 UNL     1      21.332   0.493  50.666  1.00  0.00     0.009 A 
ENDBRANCH  13  16
ENDBRANCH  11  13
ENDBRANCH   9  11
BRANCH   1  22
HETATM   22  C6  UNL     1      24.330   4.194  49.589  1.00  0.00     0.129 C 
HETATM   23  N1  UNL     1      24.952   5.467  49.953  1.00  0.00    -0.339 N 
HETATM   24  C3  UNL     1      25.920   6.433  49.641  1.00  0.00     0.240 C 
HETATM   25  C4  UNL     1      23.997   5.456  51.072  1.00  0.00     0.129 C 
HETATM   26  O1  UNL     1      26.009   7.430  50.395  1.00  0.00    -0.269 OA
HETATM   27  C5  UNL     1      23.025   4.868  50.038  1.00  0.00     0.050 C 
BRANCH  24  28
HETATM   28  C2  UNL     1      26.784   6.292  48.499  1.00  0.00     0.048 C 
HETATM   29  C1  UNL     1      27.855   5.533  48.456  1.00  0.00     0.037 C 
ENDBRANCH  24  28
ENDBRANCH   1  22
TORSDOF 6
ENDMDL
MODEL 7
REMARK VINA RESULT:      -7.9      2.917      5.257
REMARK  6 active torsions:
REMARK  status: ('A' for Active; 'I' for Inactive)
REMARK    1  A    between atoms: C2_2  and  C3_3 
REMARK       I    between atoms: C3_3  and  N1_5 
REMARK    2  A    between atoms: C6_8  and  C7_9 
REMARK    3  A    between atoms: C12_17  and  N4_18 
REMARK    4  A    between atoms: N4_18  and  C13_19 
REMARK    5  A    between atoms: C13_19  and  C14_20 
REMARK    6  A    between atoms: C13_19  and  C16_22 
ROOT
HETATM    1  C7  UNL     1      20.951   0.896  52.175  1.00  0.00     0.009 A 
HETATM    2  C8  UNL     1      22.258   0.938  52.449  1.00  0.00     0.035 A 
HETATM    3  C9  UNL     1      22.801   0.171  53.446  1.00  0.00     0.044 A 
HETATM    4  C10 UNL     1      21.910  -0.642  54.141  1.00  0.00     0.108 A 
HETATM    5  S1  UNL     1      20.293  -0.319  53.379  1.00  0.00    -0.072 SA
HETATM    6  N2  UNL     1      22.182  -1.431  55.095  1.00  0.00    -0.262 NA
HETATM    7  C11 UNL     1      23.514  -1.619  55.635  1.00  0.00     0.273 A 
HETATM    8  N3  UNL     1      24.390  -0.752  54.875  1.00  0.00    -0.358 N 
HETATM    9  C12 UNL     1      24.072   0.126  53.810  1.00  0.00     0.112 A 
HETATM   10  H12 UNL     1      25.363  -0.857  55.234  1.00  0.00     0.162 HD
ENDROOT
BRANCH   9  11
HETATM   11  N4  UNL     1      25.082   0.903  53.186  1.00  0.00    -0.367 N 
HETATM   12  H13 UNL     1      25.138   1.922  53.455  1.00  0.00     0.161 HD
BRANCH  11  13
HETATM   13  C13 UNL     1      25.993   0.358  52.234  1.00  0.00     0.116 C 
BRANCH  13  14
HETATM   14  C14 UNL     1      26.250   1.343  51.087  1.00  0.00     0.025 C 
HETATM   15  C15 UNL     1      25.350   2.574  51.249  1.00  0.00     0.007 C 
ENDBRANCH  13  14
BRANCH  13  16
HETATM   16  C16 UNL     1      27.284  -0.080  52.760  1.00  0.00    -0.036 A 
HETATM   17  C17 UNL     1      27.639  -1.434  52.730  1.00  0.00     0.009 A 
HETATM   18  C18 UNL     1      28.841  -1.901  53.212  1.00  0.00     0.001 A 
HETATM   19  C19 UNL     1      29.756  -1.023  53.753  1.00  0.00     0.000 A 
HETATM   20  C20 UNL     1      29.458   0.329  53.808  1.00  0.00     0.001 A 
HETATM   21  C21 UNL     1      28.232   0.736  53.307  1.00  0.00     0.009 A 
ENDBRANCH  13  16
ENDBRANCH  11  13
ENDBRANCH   9  11
BRANCH   1  22
HETATM   22  C6  UNL     1      20.034   1.542  51.222  1.00  0.00     0.129 C 
HETATM   23  N1  UNL     1      20.701   2.713  50.653  1.00  0.00    -0.339 N 
HETATM   24  C3  UNL     1      21.326   3.280  49.531  1.00  0.00     0.240 C 
HETATM   25  C4  UNL     1      20.466   3.318  51.973  1.00  0.00     0.129 C 
HETATM   26  O1  UNL     1      21.752   4.454  49.637  1.00  0.00    -0.269 OA
HETATM   27  C5  UNL     1      19.124   2.573  51.906  1.00  0.00     0.050 C 
BRANCH  24  28
HETATM   28  C2  UNL     1      21.478   2.547  48.303  1.00  0.00     0.048 C 
HETATM   29  C1  UNL     1      22.607   2.034  47.868  1.00  0.00     0.037 C 
ENDBRANCH  24  28
ENDBRANCH   1  22
TORSDOF 6
ENDMDL
MODEL 8
REMARK VINA RESULT:      -7.6      2.265      6.152
REMARK  6 active torsions:
REMARK  status: ('A' for Active; 'I' for Inactive)
REMARK    1  A    between atoms: C2_2  and  C3_3 
REMARK       I    between atoms: C3_3  and  N1_5 
REMARK    2  A    between atoms: C6_8  and  C7_9 
REMARK    3  A    between atoms: C12_17  and  N4_18 
REMARK    4  A    between atoms: N4_18  and  C13_19 
REMARK    5  A    between atoms: C13_19  and  C14_20 
REMARK    6  A    between atoms: C13_19  and  C16_22 
ROOT
HETATM    1  C7  UNL     1      24.783   3.353  51.275  1.00  0.00     0.009 A 
HETATM    2  C8  UNL     1      24.211   2.377  51.985  1.00  0.00     0.035 A 
HETATM    3  C9  UNL     1      24.912   1.258  52.349  1.00  0.00     0.044 A 
HETATM    4  C10 UNL     1      26.240   1.212  51.935  1.00  0.00     0.108 A 
HETATM    5  S1  UNL     1      26.499   2.761  51.024  1.00  0.00    -0.072 SA
HETATM    6  N2  UNL     1      27.076   0.283  52.154  1.00  0.00    -0.262 NA
HETATM    7  C11 UNL     1      26.769  -0.923  52.898  1.00  0.00     0.273 A 
HETATM    8  N3  UNL     1      25.383  -0.814  53.299  1.00  0.00    -0.358 N 
HETATM    9  C12 UNL     1      24.460   0.229  53.048  1.00  0.00     0.112 A 
HETATM   10  H12 UNL     1      25.121  -1.666  53.839  1.00  0.00     0.162 HD
ENDROOT
BRANCH   9  11
HETATM   11  N4  UNL     1      23.127   0.150  53.530  1.00  0.00    -0.367 N 
HETATM   12  H13 UNL     1      22.884   0.744  54.368  1.00  0.00     0.161 HD
BRANCH  11  13
HETATM   13  C13 UNL     1      22.141  -0.686  52.928  1.00  0.00     0.116 C 
BRANCH  13  14
HETATM   14  C14 UNL     1      21.304  -1.407  53.992  1.00  0.00     0.025 C 
HETATM   15  C15 UNL     1      22.191  -1.782  55.185  1.00  0.00     0.007 C 
ENDBRANCH  13  14
BRANCH  13  16
HETATM   16  C16 UNL     1      21.229  -0.031  51.993  1.00  0.00    -0.036 A 
HETATM   17  C17 UNL     1      19.893   0.190  52.345  1.00  0.00     0.009 A 
HETATM   18  C18 UNL     1      18.990   0.802  51.504  1.00  0.00     0.001 A 
HETATM   19  C19 UNL     1      19.391   1.228  50.256  1.00  0.00     0.000 A 
HETATM   20  C20 UNL     1      20.703   1.036  49.854  1.00  0.00     0.001 A 
HETATM   21  C21 UNL     1      21.562   0.414  50.746  1.00  0.00     0.009 A 
ENDBRANCH  13  16
ENDBRANCH  11  13
ENDBRANCH   9  11
BRANCH   1  22
HETATM   22  C6  UNL     1      24.375   4.653  50.717  1.00  0.00     0.129 C 
HETATM   23  N1  UNL     1      23.314   4.429  49.736  1.00  0.00    -0.339 N 
HETATM   24  C3  UNL     1      21.946   4.536  49.440  1.00  0.00     0.240 C 
HETATM   25  C4  UNL     1      24.396   3.903  48.890  1.00  0.00     0.129 C 
HETATM   26  O1  UNL     1      21.564   4.139  48.315  1.00  0.00    -0.269 OA
HETATM   27  C5  UNL     1      25.221   5.047  49.497  1.00  0.00     0.050 C 
BRANCH  24  28
HETATM   28  C2  UNL     1      21.010   5.079  50.388  1.00  0.00     0.048 C 
HETATM   29  C1  UNL     1      20.683   4.514  51.529  1.00  0.00     0.037 C 
ENDBRANCH  24  28
ENDBRANCH   1  22
TORSDOF 6
ENDMDL
MODEL 9
REMARK VINA RESULT:      -7.4      3.036      7.659
REMARK  6 active torsions:
REMARK  status: ('A' for Active; 'I' for Inactive)
REMARK    1  A    between atoms: C2_2  and  C3_3 
REMARK       I    between atoms: C3_3  and  N1_5 
REMARK    2  A    between atoms: C6_8  and  C7_9 
REMARK    3  A    between atoms: C12_17  and  N4_18 
REMARK    4  A    between atoms: N4_18  and  C13_19 
REMARK    5  A    between atoms: C13_19  and  C14_20 
REMARK    6  A    between atoms: C13_19  and  C16_22 
ROOT
HETATM    1  C7  UNL     1      23.588   3.178  49.350  1.00  0.00     0.009 A 
HETATM    2  C8  UNL     1      22.600   2.330  49.654  1.00  0.00     0.035 A 
HETATM    3  C9  UNL     1      21.345   2.485  49.130  1.00  0.00     0.044 A 
HETATM    4  C10 UNL     1      21.173   3.567  48.272  1.00  0.00     0.108 A 
HETATM    5  S1  UNL     1      22.799   4.373  48.207  1.00  0.00    -0.072 SA
HETATM    6  N2  UNL     1      20.107   3.905  47.674  1.00  0.00    -0.262 NA
HETATM    7  C11 UNL     1      18.851   3.191  47.792  1.00  0.00     0.273 A 
HETATM    8  N3  UNL     1      19.094   2.083  48.691  1.00  0.00    -0.358 N 
HETATM    9  C12 UNL     1      20.291   1.716  49.354  1.00  0.00     0.112 A 
HETATM   10  H12 UNL     1      18.211   1.541  48.804  1.00  0.00     0.162 HD
ENDROOT
BRANCH   9  11
HETATM   11  N4  UNL     1      20.329   0.583  50.206  1.00  0.00    -0.367 N 
HETATM   12  H13 UNL     1      20.761  -0.297  49.815  1.00  0.00     0.161 HD
BRANCH  11  13
HETATM   13  C13 UNL     1      19.814   0.603  51.535  1.00  0.00     0.116 C 
BRANCH  13  14
HETATM   14  C14 UNL     1      18.473  -0.136  51.620  1.00  0.00     0.025 C 
HETATM   15  C15 UNL     1      17.320   0.875  51.596  1.00  0.00     0.007 C 
ENDBRANCH  13  14
BRANCH  13  16
HETATM   16  C16 UNL     1      20.696   0.073  52.573  1.00  0.00    -0.036 A 
HETATM   17  C17 UNL     1      22.029   0.492  52.651  1.00  0.00     0.009 A 
HETATM   18  C18 UNL     1      22.904   0.025  53.607  1.00  0.00     0.001 A 
HETATM   19  C19 UNL     1      22.478  -0.894  54.541  1.00  0.00     0.000 A 
HETATM   20  C20 UNL     1      21.167  -1.344  54.512  1.00  0.00     0.001 A 
HETATM   21  C21 UNL     1      20.337  -0.837  53.526  1.00  0.00     0.009 A 
ENDBRANCH  13  16
ENDBRANCH  11  13
ENDBRANCH   9  11
BRANCH   1  22
HETATM   22  C6  UNL     1      25.010   3.335  49.697  1.00  0.00     0.129 C 
HETATM   23  N1  UNL     1      25.178   3.048  51.122  1.00  0.00    -0.339 N 
HETATM   24  C3  UNL     1      25.647   2.149  52.091  1.00  0.00     0.240 C 
HETATM   25  C4  UNL     1      24.525   4.352  51.321  1.00  0.00     0.129 C 
HETATM   26  O1  UNL     1      25.506   2.469  53.295  1.00  0.00    -0.269 OA
HETATM   27  C5  UNL     1      25.348   4.780  50.097  1.00  0.00     0.050 C 
BRANCH  24  28
HETATM   28  C2  UNL     1      26.268   0.903  51.726  1.00  0.00     0.048 C 
HETATM   29  C1  UNL     1      26.459  -0.109  52.542  1.00  0.00     0.037 C 
ENDBRANCH  24  28
ENDBRANCH   1  22
TORSDOF 6
ENDMDL
