MODEL 1
REMARK VINA RESULT:      -8.0      0.000      0.000
REMARK  9 active torsions:
REMARK  status: ('A' for Active; 'I' for Inactive)
REMARK    1  A    between atoms: C3_3  and  N1_4 
REMARK    2  A    between atoms: N1_4  and  C4_5 
REMARK    3  A    between atoms: C4_5  and  N2_6 
REMARK    4  A    between atoms: N2_6  and  C5_7 
REMARK    5  A    between atoms: C5_7  and  C6_8 
REMARK    6  A    between atoms: C6_8  and  C7_9 
REMARK    7  A    between atoms: C7_9  and  N3_10 
REMARK    8  A    between atoms: C14_18  and  N4_19 
REMARK    9  A    between atoms: N4_19  and  S1_20 
ROOT
HETATM    1  C1  UNL     1      28.400   7.989  48.568  1.00  0.00    -0.051 C 
HETATM    2  C2  UNL     1      27.439   7.145  48.218  1.00  0.00     0.095 C 
HETATM    3  C3  UNL     1      28.013   5.921  48.408  1.00  0.00     0.037 C 
HETATM    4  C12 UNL     1      29.241   5.448  48.077  1.00  0.00     0.034 C 
HETATM    5  C13 UNL     1      30.512   5.818  48.417  1.00  0.00     0.055 C 
HETATM    6  C14 UNL     1      31.119   7.031  48.245  1.00  0.00     0.157 C 
HETATM    7  N5  UNL     1      31.743   8.162  47.986  1.00  0.00    -0.221 NA
HETATM    8  C20 UNL     1      31.394   9.325  48.546  1.00  0.00     0.246 C 
HETATM    9  N6  UNL     1      30.207   9.496  49.201  1.00  0.00    -0.191 NA
HETATM   10  C21 UNL     1      29.248   8.708  48.873  1.00  0.00     0.041 C 
ENDROOT
BRANCH   3  11
HETATM   11  N1  UNL     1      26.831   5.484  49.033  1.00  0.00    -0.365 N 
HETATM   12  H2  UNL     1      26.318   6.369  49.141  1.00  0.00     0.161 HD
BRANCH  11  13
HETATM   13  C4  UNL     1      26.673   4.093  49.319  1.00  0.00     0.392 C 
BRANCH  13  14
HETATM   14  N2  UNL     1      26.220   3.996  50.700  1.00  0.00     0.100 N 
HETATM   15  H5  UNL     1      26.986   3.766  51.347  1.00  0.00     0.318 HD
BRANCH  14  16
HETATM   16  C5  UNL     1      25.173   3.017  50.845  1.00  0.00     0.273 C 
BRANCH  16  17
HETATM   17  C6  UNL     1      25.530   2.160  52.068  1.00  0.00     0.060 C 
BRANCH  17  18
HETATM   18  C7  UNL     1      26.639   1.250  51.644  1.00  0.00     0.274 C 
BRANCH  18  19
HETATM   19  N3  UNL     1      27.077   0.343  52.667  1.00  0.00     0.092 N 
HETATM   20  C8  UNL     1      28.309   0.793  53.261  1.00  0.00     0.298 C 
HETATM   21  C9  UNL     1      28.670  -0.292  54.286  1.00  0.00     0.198 C 
HETATM   22  O1  UNL     1      27.808  -0.114  55.334  1.00  0.00    -0.388 OA
HETATM   23  C10 UNL     1      26.487  -0.011  55.040  1.00  0.00     0.198 C 
HETATM   24  C11 UNL     1      26.071  -0.017  53.619  1.00  0.00     0.298 C 
ENDBRANCH  18  19
ENDBRANCH  17  18
ENDBRANCH  16  17
ENDBRANCH  14  16
ENDBRANCH  13  14
ENDBRANCH  11  13
ENDBRANCH   3  11
BRANCH   6  25
HETATM   25  N4  UNL     1      31.731   6.776  46.993  1.00  0.00    -0.203 NA
BRANCH  25  26
HETATM   26  S1  UNL     1      32.871   5.639  46.938  1.00  0.00    -0.072 SA
HETATM   27  C15 UNL     1      34.266   5.659  48.104  1.00  0.00     0.057 A 
HETATM   28  C16 UNL     1      35.034   4.601  48.305  1.00  0.00     0.007 A 
HETATM   29  C17 UNL     1      34.745   3.390  47.564  1.00  0.00    -0.003 A 
HETATM   30  C18 UNL     1      33.793   3.196  46.692  1.00  0.00    -0.015 A 
HETATM   31  C19 UNL     1      32.690   4.001  46.109  1.00  0.00     0.118 A 
ENDBRANCH  25  26
ENDBRANCH   6  25
TORSDOF 9
ENDMDL
MODEL 2
REMARK VINA RESULT:      -8.0      5.583      9.530
REMARK  9 active torsions:
REMARK  status: ('A' for Active; 'I' for Inactive)
REMARK    1  A    between atoms: C3_3  and  N1_4 
REMARK    2  A    between atoms: N1_4  and  C4_5 
REMARK    3  A    between atoms: C4_5  and  N2_6 
REMARK    4  A    between atoms: N2_6  and  C5_7 
REMARK    5  A    between atoms: C5_7  and  C6_8 
REMARK    6  A    between atoms: C6_8  and  C7_9 
REMARK    7  A    between atoms: C7_9  and  N3_10 
REMARK    8  A    between atoms: C14_18  and  N4_19 
REMARK    9  A    between atoms: N4_19  and  S1_20 
ROOT
HETATM    1  C1  UNL     1      21.261   3.966  52.148  1.00  0.00    -0.051 C 
HETATM    2  C2  UNL     1      22.540   4.305  52.236  1.00  0.00     0.095 C 
HETATM    3  C3  UNL     1      23.065   3.856  51.058  1.00  0.00     0.037 C 
HETATM    4  C12 UNL     1      22.901   2.683  50.396  1.00  0.00     0.034 C 
HETATM    5  C13 UNL     1      21.814   2.050  49.863  1.00  0.00     0.055 C 
HETATM    6  C14 UNL     1      20.664   1.661  50.491  1.00  0.00     0.157 C 
HETATM    7  N5  UNL     1      19.602   1.189  51.112  1.00  0.00    -0.221 NA
HETATM    8  C20 UNL     1      18.694   1.979  51.694  1.00  0.00     0.246 C 
HETATM    9  N6  UNL     1      18.926   3.301  51.943  1.00  0.00    -0.191 NA
HETATM   10  C21 UNL     1      20.154   3.661  52.054  1.00  0.00     0.041 C 
ENDROOT
BRANCH   3  11
HETATM   11  N1  UNL     1      23.757   5.073  50.924  1.00  0.00    -0.365 N 
HETATM   12  H2  UNL     1      23.235   5.678  51.570  1.00  0.00     0.161 HD
BRANCH  11  13
HETATM   13  C4  UNL     1      24.873   5.139  50.032  1.00  0.00     0.392 C 
BRANCH  13  14
HETATM   14  N2  UNL     1      25.954   4.385  50.655  1.00  0.00     0.100 N 
HETATM   15  H5  UNL     1      26.700   4.996  51.011  1.00  0.00     0.318 HD
BRANCH  14  16
HETATM   16  C5  UNL     1      26.525   3.428  49.742  1.00  0.00     0.273 C 
BRANCH  16  17
HETATM   17  C6  UNL     1      26.592   2.087  50.485  1.00  0.00     0.060 C 
BRANCH  17  18
HETATM   18  C7  UNL     1      26.644   2.409  51.945  1.00  0.00     0.274 C 
BRANCH  18  19
HETATM   19  N3  UNL     1      27.559   1.594  52.693  1.00  0.00     0.092 N 
HETATM   20  C8  UNL     1      28.385   2.403  53.551  1.00  0.00     0.298 C 
HETATM   21  C9  UNL     1      29.332   1.408  54.238  1.00  0.00     0.198 C 
HETATM   22  O1  UNL     1      28.572   0.753  55.168  1.00  0.00    -0.388 OA
HETATM   23  C10 UNL     1      27.389   0.235  54.750  1.00  0.00     0.198 C 
HETATM   24  C11 UNL     1      26.962   0.472  53.352  1.00  0.00     0.298 C 
ENDBRANCH  18  19
ENDBRANCH  17  18
ENDBRANCH  16  17
ENDBRANCH  14  16
ENDBRANCH  13  14
ENDBRANCH  11  13
ENDBRANCH   3  11
BRANCH   6  25
HETATM   25  N4  UNL     1      21.044   0.332  50.807  1.00  0.00    -0.203 NA
BRANCH  25  26
HETATM   26  S1  UNL     1      21.623   0.054  52.284  1.00  0.00    -0.072 SA
HETATM   27  C15 UNL     1      20.657  -0.888  53.503  1.00  0.00     0.057 A 
HETATM   28  C16 UNL     1      21.203  -1.404  54.591  1.00  0.00     0.007 A 
HETATM   29  C17 UNL     1      22.621  -1.204  54.810  1.00  0.00    -0.003 A 
HETATM   30  C18 UNL     1      23.463  -0.559  54.049  1.00  0.00    -0.015 A 
HETATM   31  C19 UNL     1      23.399   0.184  52.765  1.00  0.00     0.118 A 
ENDBRANCH  25  26
ENDBRANCH   6  25
TORSDOF 9
ENDMDL
MODEL 3
REMARK VINA RESULT:      -7.8      3.258      8.624
REMARK  9 active torsions:
REMARK  status: ('A' for Active; 'I' for Inactive)
REMARK    1  A    between atoms: C3_3  and  N1_4 
REMARK    2  A    between atoms: N1_4  and  C4_5 
REMARK    3  A    between atoms: C4_5  and  N2_6 
REMARK    4  A    between atoms: N2_6  and  C5_7 
REMARK    5  A    between atoms: C5_7  and  C6_8 
REMARK    6  A    between atoms: C6_8  and  C7_9 
REMARK    7  A    between atoms: C7_9  and  N3_10 
REMARK    8  A    between atoms: C14_18  and  N4_19 
REMARK    9  A    between atoms: N4_19  and  S1_20 
ROOT
HETATM    1  C1  UNL     1      23.968   3.260  50.694  1.00  0.00    -0.051 C 
HETATM    2  C2  UNL     1      24.717   4.315  50.399  1.00  0.00     0.095 C 
HETATM    3  C3  UNL     1      25.963   3.782  50.247  1.00  0.00     0.037 C 
HETATM    4  C12 UNL     1      26.646   2.876  50.992  1.00  0.00     0.034 C 
HETATM    5  C13 UNL     1      26.406   1.576  51.340  1.00  0.00     0.055 C 
HETATM    6  C14 UNL     1      25.330   1.059  52.004  1.00  0.00     0.157 C 
HETATM    7  N5  UNL     1      24.348   0.571  52.736  1.00  0.00    -0.221 NA
HETATM    8  C20 UNL     1      23.076   0.559  52.323  1.00  0.00     0.246 C 
HETATM    9  N6  UNL     1      22.645   1.293  51.255  1.00  0.00    -0.191 NA
HETATM   10  C21 UNL     1      23.335   2.333  50.953  1.00  0.00     0.041 C 
ENDROOT
BRANCH   3  11
HETATM   11  N1  UNL     1      26.133   4.556  49.085  1.00  0.00    -0.365 N 
HETATM   12  H2  UNL     1      25.158   4.697  48.790  1.00  0.00     0.161 HD
BRANCH  11  13
HETATM   13  C4  UNL     1      27.457   4.903  48.672  1.00  0.00     0.392 C 
BRANCH  13  14
HETATM   14  N2  UNL     1      27.672   6.287  49.073  1.00  0.00     0.100 N 
HETATM   15  H5  UNL     1      26.975   6.608  49.758  1.00  0.00     0.318 HD
BRANCH  14  16
HETATM   16  C5  UNL     1      27.656   7.175  47.938  1.00  0.00     0.273 C 
BRANCH  16  17
HETATM   17  C6  UNL     1      29.067   7.154  47.335  1.00  0.00     0.060 C 
BRANCH  17  18
HETATM   18  C7  UNL     1      29.994   7.654  48.398  1.00  0.00     0.274 C 
BRANCH  18  19
HETATM   19  N3  UNL     1      31.046   6.739  48.737  1.00  0.00     0.092 N 
HETATM   20  C8  UNL     1      31.186   5.720  47.729  1.00  0.00     0.298 C 
HETATM   21  C9  UNL     1      32.300   4.801  48.251  1.00  0.00     0.198 C 
HETATM   22  O1  UNL     1      33.467   5.492  48.070  1.00  0.00    -0.388 OA
HETATM   23  C10 UNL     1      33.508   6.770  48.526  1.00  0.00     0.198 C 
HETATM   24  C11 UNL     1      32.281   7.357  49.112  1.00  0.00     0.298 C 
ENDBRANCH  18  19
ENDBRANCH  17  18
ENDBRANCH  16  17
ENDBRANCH  14  16
ENDBRANCH  13  14
ENDBRANCH  11  13
ENDBRANCH   3  11
BRANCH   6  25
HETATM   25  N4  UNL     1      25.855   1.115  53.319  1.00  0.00    -0.203 NA
BRANCH  25  26
HETATM   26  S1  UNL     1      27.227   0.322  53.608  1.00  0.00    -0.072 SA
HETATM   27  C15 UNL     1      27.428  -1.411  53.099  1.00  0.00     0.057 A 
HETATM   28  C16 UNL     1      28.613  -1.994  53.027  1.00  0.00     0.007 A 
HETATM   29  C17 UNL     1      29.785  -1.214  53.369  1.00  0.00    -0.003 A 
HETATM   30  C18 UNL     1      29.829   0.033  53.752  1.00  0.00    -0.015 A 
HETATM   31  C19 UNL     1      28.846   1.118  53.996  1.00  0.00     0.118 A 
ENDBRANCH  25  26
ENDBRANCH   6  25
TORSDOF 9
ENDMDL
MODEL 4
REMARK VINA RESULT:      -7.8      4.581     10.842
REMARK  9 active torsions:
REMARK  status: ('A' for Active; 'I' for Inactive)
REMARK    1  A    between atoms: C3_3  and  N1_4 
REMARK    2  A    between atoms: N1_4  and  C4_5 
REMARK    3  A    between atoms: C4_5  and  N2_6 
REMARK    4  A    between atoms: N2_6  and  C5_7 
REMARK    5  A    between atoms: C5_7  and  C6_8 
REMARK    6  A    between atoms: C6_8  and  C7_9 
REMARK    7  A    between atoms: C7_9  and  N3_10 
REMARK    8  A    between atoms: C14_18  and  N4_19 
REMARK    9  A    between atoms: N4_19  and  S1_20 
ROOT
HETATM    1  C1  UNL     1      26.496   1.430  52.383  1.00  0.00    -0.051 C 
HETATM    2  C2  UNL     1      26.556   2.156  51.275  1.00  0.00     0.095 C 
HETATM    3  C3  UNL     1      25.345   2.783  51.245  1.00  0.00     0.037 C 
HETATM    4  C12 UNL     1      24.090   2.317  51.472  1.00  0.00     0.034 C 
HETATM    5  C13 UNL     1      23.484   1.742  52.553  1.00  0.00     0.055 C 
HETATM    6  C14 UNL     1      23.845   0.609  53.227  1.00  0.00     0.157 C 
HETATM    7  N5  UNL     1      24.124  -0.538  53.812  1.00  0.00    -0.221 NA
HETATM    8  C20 UNL     1      25.253  -0.744  54.499  1.00  0.00     0.246 C 
HETATM    9  N6  UNL     1      26.323   0.100  54.417  1.00  0.00    -0.191 NA
HETATM   10  C21 UNL     1      26.424   0.804  53.348  1.00  0.00     0.041 C 
ENDROOT
BRANCH   3  11
HETATM   11  N1  UNL     1      25.995   3.983  50.906  1.00  0.00    -0.365 N 
HETATM   12  H2  UNL     1      26.666   4.077  51.679  1.00  0.00     0.161 HD
BRANCH  11  13
HETATM   13  C4  UNL     1      25.600   4.672  49.717  1.00  0.00     0.392 C 
BRANCH  13  14
HETATM   14  N2  UNL     1      26.728   5.505  49.320  1.00  0.00     0.100 N 
HETATM   15  H5  UNL     1      26.439   6.298  48.732  1.00  0.00     0.318 HD
BRANCH  14  16
HETATM   16  C5  UNL     1      27.728   4.741  48.619  1.00  0.00     0.273 C 
BRANCH  16  17
HETATM   17  C6  UNL     1      28.829   5.725  48.199  1.00  0.00     0.060 C 
BRANCH  17  18
HETATM   18  C7  UNL     1      28.195   7.079  48.148  1.00  0.00     0.274 C 
BRANCH  18  19
HETATM   19  N3  UNL     1      29.128   8.167  48.227  1.00  0.00     0.092 N 
HETATM   20  C8  UNL     1      28.701   9.142  49.197  1.00  0.00     0.298 C 
HETATM   21  C9  UNL     1      29.760  10.252  49.131  1.00  0.00     0.198 C 
HETATM   22  O1  UNL     1      30.867   9.747  49.756  1.00  0.00    -0.388 OA
HETATM   23  C10 UNL     1      31.291   8.517  49.369  1.00  0.00     0.198 C 
HETATM   24  C11 UNL     1      30.497   7.773  48.364  1.00  0.00     0.298 C 
ENDBRANCH  18  19
ENDBRANCH  17  18
ENDBRANCH  16  17
ENDBRANCH  14  16
ENDBRANCH  13  14
ENDBRANCH  11  13
ENDBRANCH   3  11
BRANCH   6  25
HETATM   25  N4  UNL     1      23.033  -0.314  52.521  1.00  0.00    -0.203 NA
BRANCH  25  26
HETATM   26  S1  UNL     1      21.436  -0.147  52.644  1.00  0.00    -0.072 SA
HETATM   27  C15 UNL     1      20.457   0.513  51.263  1.00  0.00     0.057 A 
HETATM   28  C16 UNL     1      19.142   0.374  51.197  1.00  0.00     0.007 A 
HETATM   29  C17 UNL     1      18.471  -0.330  52.271  1.00  0.00    -0.003 A 
HETATM   30  C18 UNL     1      19.009  -0.865  53.333  1.00  0.00    -0.015 A 
HETATM   31  C19 UNL     1      20.378  -1.001  53.892  1.00  0.00     0.118 A 
ENDBRANCH  25  26
ENDBRANCH   6  25
TORSDOF 9
ENDMDL
MODEL 5
REMARK VINA RESULT:      -7.8      3.886      9.219
REMARK  9 active torsions:
REMARK  status: ('A' for Active; 'I' for Inactive)
REMARK    1  A    between atoms: C3_3  and  N1_4 
REMARK    2  A    between atoms: N1_4  and  C4_5 
REMARK    3  A    between atoms: C4_5  and  N2_6 
REMARK    4  A    between atoms: N2_6  and  C5_7 
REMARK    5  A    between atoms: C5_7  and  C6_8 
REMARK    6  A    between atoms: C6_8  and  C7_9 
REMARK    7  A    between atoms: C7_9  and  N3_10 
REMARK    8  A    between atoms: C14_18  and  N4_19 
REMARK    9  A    between atoms: N4_19  and  S1_20 
ROOT
HETATM    1  C1  UNL     1      23.187   2.454  51.759  1.00  0.00    -0.051 C 
HETATM    2  C2  UNL     1      23.776   3.592  51.416  1.00  0.00     0.095 C 
HETATM    3  C3  UNL     1      25.026   3.196  51.039  1.00  0.00     0.037 C 
HETATM    4  C12 UNL     1      25.901   2.331  51.611  1.00  0.00     0.034 C 
HETATM    5  C13 UNL     1      25.844   0.999  51.911  1.00  0.00     0.055 C 
HETATM    6  C14 UNL     1      24.942   0.345  52.702  1.00  0.00     0.157 C 
HETATM    7  N5  UNL     1      24.141  -0.274  53.546  1.00  0.00    -0.221 NA
HETATM    8  C20 UNL     1      22.826  -0.397  53.337  1.00  0.00     0.246 C 
HETATM    9  N6  UNL     1      22.162   0.338  52.397  1.00  0.00    -0.191 NA
HETATM   10  C21 UNL     1      22.693   1.456  52.055  1.00  0.00     0.041 C 
ENDROOT
BRANCH   3  11
HETATM   11  N1  UNL     1      24.932   4.036  49.915  1.00  0.00    -0.365 N 
HETATM   12  H2  UNL     1      24.788   3.353  49.160  1.00  0.00     0.161 HD
BRANCH  11  13
HETATM   13  C4  UNL     1      25.047   5.450  50.096  1.00  0.00     0.392 C 
BRANCH  13  14
HETATM   14  N2  UNL     1      26.453   5.785  49.907  1.00  0.00     0.100 N 
HETATM   15  H5  UNL     1      26.591   6.782  49.700  1.00  0.00     0.318 HD
BRANCH  14  16
HETATM   16  C5  UNL     1      27.046   5.000  48.855  1.00  0.00     0.273 C 
BRANCH  16  17
HETATM   17  C6  UNL     1      28.278   5.772  48.363  1.00  0.00     0.060 C 
BRANCH  17  18
HETATM   18  C7  UNL     1      27.952   7.226  48.495  1.00  0.00     0.274 C 
BRANCH  18  19
HETATM   19  N3  UNL     1      29.093   8.093  48.406  1.00  0.00     0.092 N 
HETATM   20  C8  UNL     1      28.956   9.217  49.295  1.00  0.00     0.298 C 
HETATM   21  C9  UNL     1      30.212  10.067  49.053  1.00  0.00     0.198 C 
HETATM   22  O1  UNL     1      31.238   9.394  49.658  1.00  0.00    -0.388 OA
HETATM   23  C10 UNL     1      31.367   8.073  49.374  1.00  0.00     0.198 C 
HETATM   24  C11 UNL     1      30.358   7.430  48.501  1.00  0.00     0.298 C 
ENDBRANCH  18  19
ENDBRANCH  17  18
ENDBRANCH  16  17
ENDBRANCH  14  16
ENDBRANCH  13  14
ENDBRANCH  11  13
ENDBRANCH   3  11
BRANCH   6  25
HETATM   25  N4  UNL     1      25.665   0.394  53.920  1.00  0.00    -0.203 NA
BRANCH  25  26
HETATM   26  S1  UNL     1      27.074  -0.384  53.980  1.00  0.00    -0.072 SA
HETATM   27  C15 UNL     1      27.309  -1.960  53.107  1.00  0.00     0.057 A 
HETATM   28  C16 UNL     1      28.509  -2.465  52.867  1.00  0.00     0.007 A 
HETATM   29  C17 UNL     1      29.668  -1.726  53.323  1.00  0.00    -0.003 A 
HETATM   30  C18 UNL     1      29.689  -0.587  53.962  1.00  0.00    -0.015 A 
HETATM   31  C19 UNL     1      28.682   0.379  54.468  1.00  0.00     0.118 A 
ENDBRANCH  25  26
ENDBRANCH   6  25
TORSDOF 9
ENDMDL
MODEL 6
REMARK VINA RESULT:      -7.6      5.205      9.491
REMARK  9 active torsions:
REMARK  status: ('A' for Active; 'I' for Inactive)
REMARK    1  A    between atoms: C3_3  and  N1_4 
REMARK    2  A    between atoms: N1_4  and  C4_5 
REMARK    3  A    between atoms: C4_5  and  N2_6 
REMARK    4  A    between atoms: N2_6  and  C5_7 
REMARK    5  A    between atoms: C5_7  and  C6_8 
REMARK    6  A    between atoms: C6_8  and  C7_9 
REMARK    7  A    between atoms: C7_9  and  N3_10 
REMARK    8  A    between atoms: C14_18  and  N4_19 
REMARK    9  A    between atoms: N4_19  and  S1_20 
ROOT
HETATM    1  C1  UNL     1      21.389   0.279  53.958  1.00  0.00    -0.051 C 
HETATM    2  C2  UNL     1      20.981   1.298  53.214  1.00  0.00     0.095 C 
HETATM    3  C3  UNL     1      21.819   1.255  52.138  1.00  0.00     0.037 C 
HETATM    4  C12 UNL     1      23.162   1.080  52.056  1.00  0.00     0.034 C 
HETATM    5  C13 UNL     1      24.002   0.070  52.433  1.00  0.00     0.055 C 
HETATM    6  C14 UNL     1      24.177  -0.470  53.676  1.00  0.00     0.157 C 
HETATM    7  N5  UNL     1      24.427  -0.921  54.889  1.00  0.00    -0.221 NA
HETATM    8  C20 UNL     1      23.520  -1.578  55.618  1.00  0.00     0.246 C 
HETATM    9  N6  UNL     1      22.192  -1.591  55.297  1.00  0.00    -0.191 NA
HETATM   10  C21 UNL     1      21.759  -0.608  54.593  1.00  0.00     0.041 C 
ENDROOT
BRANCH   3  11
HETATM   11  N1  UNL     1      20.713   1.457  51.292  1.00  0.00    -0.365 N 
HETATM   12  H2  UNL     1      20.273   0.528  51.306  1.00  0.00     0.161 HD
BRANCH  11  13
HETATM   13  C4  UNL     1      20.516   2.747  50.708  1.00  0.00     0.392 C 
BRANCH  13  14
HETATM   14  N2  UNL     1      20.427   2.545  49.267  1.00  0.00     0.100 N 
HETATM   15  H5  UNL     1      20.326   1.553  49.018  1.00  0.00     0.318 HD
BRANCH  14  16
HETATM   16  C5  UNL     1      21.575   3.086  48.586  1.00  0.00     0.273 C 
BRANCH  16  17
HETATM   17  C6  UNL     1      22.178   4.155  49.508  1.00  0.00     0.060 C 
BRANCH  17  18
HETATM   18  C7  UNL     1      23.329   4.760  48.767  1.00  0.00     0.274 C 
BRANCH  18  19
HETATM   19  N3  UNL     1      24.577   4.703  49.474  1.00  0.00     0.092 N 
HETATM   20  C8  UNL     1      25.022   3.341  49.622  1.00  0.00     0.298 C 
HETATM   21  C9  UNL     1      26.324   3.439  50.430  1.00  0.00     0.198 C 
HETATM   22  O1  UNL     1      27.267   3.916  49.560  1.00  0.00    -0.388 OA
HETATM   23  C10 UNL     1      26.944   5.022  48.842  1.00  0.00     0.198 C 
HETATM   24  C11 UNL     1      25.585   5.592  48.983  1.00  0.00     0.298 C 
ENDBRANCH  18  19
ENDBRANCH  17  18
ENDBRANCH  16  17
ENDBRANCH  14  16
ENDBRANCH  13  14
ENDBRANCH  11  13
ENDBRANCH   3  11
BRANCH   6  25
HETATM   25  N4  UNL     1      25.265   0.334  54.096  1.00  0.00    -0.203 NA
BRANCH  25  26
HETATM   26  S1  UNL     1      26.740  -0.098  53.615  1.00  0.00    -0.072 SA
HETATM   27  C15 UNL     1      28.213   0.786  54.209  1.00  0.00     0.057 A 
HETATM   28  C16 UNL     1      29.432   0.283  54.100  1.00  0.00     0.007 A 
HETATM   29  C17 UNL     1      29.586  -1.018  53.482  1.00  0.00    -0.003 A 
HETATM   30  C18 UNL     1      28.649  -1.790  53.002  1.00  0.00    -0.015 A 
HETATM   31  C19 UNL     1      27.172  -1.729  52.866  1.00  0.00     0.118 A 
ENDBRANCH  25  26
ENDBRANCH   6  25
TORSDOF 9
ENDMDL
MODEL 7
REMARK VINA RESULT:      -7.6      3.832      6.252
REMARK  9 active torsions:
REMARK  status: ('A' for Active; 'I' for Inactive)
REMARK    1  A    between atoms: C3_3  and  N1_4 
REMARK    2  A    between atoms: N1_4  and  C4_5 
REMARK    3  A    between atoms: C4_5  and  N2_6 
REMARK    4  A    between atoms: N2_6  and  C5_7 
REMARK    5  A    between atoms: C5_7  and  C6_8 
REMARK    6  A    between atoms: C6_8  and  C7_9 
REMARK    7  A    between atoms: C7_9  and  N3_10 
REMARK    8  A    between atoms: C14_18  and  N4_19 
REMARK    9  A    between atoms: N4_19  and  S1_20 
ROOT
HETATM    1  C1  UNL     1      21.762   4.165  51.231  1.00  0.00    -0.051 C 
HETATM    2  C2  UNL     1      21.879   2.848  51.337  1.00  0.00     0.095 C 
HETATM    3  C3  UNL     1      23.203   2.673  51.620  1.00  0.00     0.037 C 
HETATM    4  C12 UNL     1      24.315   3.234  51.081  1.00  0.00     0.034 C 
HETATM    5  C13 UNL     1      24.764   4.521  50.983  1.00  0.00     0.055 C 
HETATM    6  C14 UNL     1      24.147   5.594  50.404  1.00  0.00     0.157 C 
HETATM    7  N5  UNL     1      23.607   6.606  49.756  1.00  0.00    -0.221 NA
HETATM    8  C20 UNL     1      22.455   7.173  50.130  1.00  0.00     0.246 C 
HETATM    9  N6  UNL     1      21.607   6.587  51.026  1.00  0.00    -0.191 NA
HETATM   10  C21 UNL     1      21.680   5.310  51.140  1.00  0.00     0.041 C 
ENDROOT
BRANCH   3  11
HETATM   11  N1  UNL     1      22.848   1.744  52.615  1.00  0.00    -0.365 N 
HETATM   12  H2  UNL     1      23.040   2.280  53.472  1.00  0.00     0.161 HD
BRANCH  11  13
HETATM   13  C4  UNL     1      22.370   0.456  52.221  1.00  0.00     0.392 C 
BRANCH  13  14
HETATM   14  N2  UNL     1      23.074  -0.522  53.040  1.00  0.00     0.100 N 
HETATM   15  H5  UNL     1      22.474  -0.919  53.775  1.00  0.00     0.318 HD
BRANCH  14  16
HETATM   16  C5  UNL     1      24.248   0.048  53.650  1.00  0.00     0.273 C 
BRANCH  16  17
HETATM   17  C6  UNL     1      25.460  -0.685  53.058  1.00  0.00     0.060 C 
BRANCH  17  18
HETATM   18  C7  UNL     1      26.179   0.304  52.196  1.00  0.00     0.274 C 
BRANCH  18  19
HETATM   19  N3  UNL     1      27.451   0.720  52.716  1.00  0.00     0.092 N 
HETATM   20  C8  UNL     1      27.384   2.066  53.223  1.00  0.00     0.298 C 
HETATM   21  C9  UNL     1      28.812   2.381  53.691  1.00  0.00     0.198 C 
HETATM   22  O1  UNL     1      28.983   1.684  54.857  1.00  0.00    -0.388 OA
HETATM   23  C10 UNL     1      28.653   0.368  54.846  1.00  0.00     0.198 C 
HETATM   24  C11 UNL     1      28.063  -0.209  53.616  1.00  0.00     0.298 C 
ENDBRANCH  18  19
ENDBRANCH  17  18
ENDBRANCH  16  17
ENDBRANCH  14  16
ENDBRANCH  13  14
ENDBRANCH  11  13
ENDBRANCH   3  11
BRANCH   6  25
HETATM   25  N4  UNL     1      24.730   5.494  49.117  1.00  0.00    -0.203 NA
BRANCH  25  26
HETATM   26  S1  UNL     1      26.244   6.017  48.943  1.00  0.00    -0.072 SA
HETATM   27  C15 UNL     1      27.609   4.849  48.670  1.00  0.00     0.057 A 
HETATM   28  C16 UNL     1      28.790   5.234  48.215  1.00  0.00     0.007 A 
HETATM   29  C17 UNL     1      28.990   6.640  47.928  1.00  0.00    -0.003 A 
HETATM   30  C18 UNL     1      28.130   7.613  48.063  1.00  0.00    -0.015 A 
HETATM   31  C19 UNL     1      26.722   7.747  48.514  1.00  0.00     0.118 A 
ENDBRANCH  25  26
ENDBRANCH   6  25
TORSDOF 9
ENDMDL
MODEL 8
REMARK VINA RESULT:      -7.5      4.042     10.232
REMARK  9 active torsions:
REMARK  status: ('A' for Active; 'I' for Inactive)
REMARK    1  A    between atoms: C3_3  and  N1_4 
REMARK    2  A    between atoms: N1_4  and  C4_5 
REMARK    3  A    between atoms: C4_5  and  N2_6 
REMARK    4  A    between atoms: N2_6  and  C5_7 
REMARK    5  A    between atoms: C5_7  and  C6_8 
REMARK    6  A    between atoms: C6_8  and  C7_9 
REMARK    7  A    between atoms: C7_9  and  N3_10 
REMARK    8  A    between atoms: C14_18  and  N4_19 
REMARK    9  A    between atoms: N4_19  and  S1_20 
ROOT
HETATM    1  C1  UNL     1      27.189   2.186  52.314  1.00  0.00    -0.051 C 
HETATM    2  C2  UNL     1      26.974   2.728  51.123  1.00  0.00     0.095 C 
HETATM    3  C3  UNL     1      25.641   3.022  51.148  1.00  0.00     0.037 C 
HETATM    4  C12 UNL     1      24.574   2.299  51.570  1.00  0.00     0.034 C 
HETATM    5  C13 UNL     1      24.221   1.761  52.776  1.00  0.00     0.055 C 
HETATM    6  C14 UNL     1      24.915   0.868  53.544  1.00  0.00     0.157 C 
HETATM    7  N5  UNL     1      25.528  -0.071  54.235  1.00  0.00    -0.221 NA
HETATM    8  C20 UNL     1      26.719   0.116  54.813  1.00  0.00     0.246 C 
HETATM    9  N6  UNL     1      27.523   1.178  54.507  1.00  0.00    -0.191 NA
HETATM   10  C21 UNL     1      27.355   1.715  53.352  1.00  0.00     0.041 C 
ENDROOT
BRANCH   3  11
HETATM   11  N1  UNL     1      25.928   4.281  50.590  1.00  0.00    -0.365 N 
HETATM   12  H2  UNL     1      25.520   4.913  51.290  1.00  0.00     0.161 HD
BRANCH  11  13
HETATM   13  C4  UNL     1      26.628   4.342  49.345  1.00  0.00     0.392 C 
BRANCH  13  14
HETATM   14  N2  UNL     1      27.324   5.622  49.317  1.00  0.00     0.100 N 
HETATM   15  H5  UNL     1      26.679   6.413  49.195  1.00  0.00     0.318 HD
BRANCH  14  16
HETATM   16  C5  UNL     1      28.317   5.661  48.274  1.00  0.00     0.273 C 
BRANCH  16  17
HETATM   17  C6  UNL     1      28.877   7.090  48.244  1.00  0.00     0.060 C 
BRANCH  17  18
HETATM   18  C7  UNL     1      29.776   7.172  47.051  1.00  0.00     0.274 C 
BRANCH  18  19
HETATM   19  N3  UNL     1      31.175   7.085  47.363  1.00  0.00     0.092 N 
HETATM   20  C8  UNL     1      31.438   7.589  48.687  1.00  0.00     0.298 C 
HETATM   21  C9  UNL     1      32.961   7.478  48.853  1.00  0.00     0.198 C 
HETATM   22  O1  UNL     1      33.219   6.146  49.037  1.00  0.00    -0.388 OA
HETATM   23  C10 UNL     1      32.667   5.280  48.149  1.00  0.00     0.198 C 
HETATM   24  C11 UNL     1      31.770   5.811  47.098  1.00  0.00     0.298 C 
ENDBRANCH  18  19
ENDBRANCH  17  18
ENDBRANCH  16  17
ENDBRANCH  14  16
ENDBRANCH  13  14
ENDBRANCH  11  13
ENDBRANCH   3  11
BRANCH   6  25
HETATM   25  N4  UNL     1      24.324  -0.323  53.055  1.00  0.00    -0.203 NA
BRANCH  25  26
HETATM   26  S1  UNL     1      22.715  -0.412  53.059  1.00  0.00    -0.072 SA
HETATM   27  C15 UNL     1      21.784  -0.398  54.620  1.00  0.00     0.057 A 
HETATM   28  C16 UNL     1      20.485  -0.153  54.667  1.00  0.00     0.007 A 
HETATM   29  C17 UNL     1      19.791   0.112  53.424  1.00  0.00    -0.003 A 
HETATM   30  C18 UNL     1      20.294   0.142  52.219  1.00  0.00    -0.015 A 
HETATM   31  C19 UNL     1      21.633  -0.052  51.609  1.00  0.00     0.118 A 
ENDBRANCH  25  26
ENDBRANCH   6  25
TORSDOF 9
ENDMDL
MODEL 9
REMARK VINA RESULT:      -7.4      2.073      2.610
REMARK  9 active torsions:
REMARK  status: ('A' for Active; 'I' for Inactive)
REMARK    1  A    between atoms: C3_3  and  N1_4 
REMARK    2  A    between atoms: N1_4  and  C4_5 
REMARK    3  A    between atoms: C4_5  and  N2_6 
REMARK    4  A    between atoms: N2_6  and  C5_7 
REMARK    5  A    between atoms: C5_7  and  C6_8 
REMARK    6  A    between atoms: C6_8  and  C7_9 
REMARK    7  A    between atoms: C7_9  and  N3_10 
REMARK    8  A    between atoms: C14_18  and  N4_19 
REMARK    9  A    between atoms: N4_19  and  S1_20 
ROOT
HETATM    1  C1  UNL     1      28.314   7.919  48.602  1.00  0.00    -0.051 C 
HETATM    2  C2  UNL     1      27.365   7.053  48.273  1.00  0.00     0.095 C 
HETATM    3  C3  UNL     1      27.961   5.842  48.479  1.00  0.00     0.037 C 
HETATM    4  C12 UNL     1      29.194   5.385  48.146  1.00  0.00     0.034 C 
HETATM    5  C13 UNL     1      30.461   5.781  48.471  1.00  0.00     0.055 C 
HETATM    6  C14 UNL     1      31.046   7.001  48.275  1.00  0.00     0.157 C 
HETATM    7  N5  UNL     1      31.649   8.139  47.994  1.00  0.00    -0.221 NA
HETATM    8  C20 UNL     1      31.284   9.304  48.538  1.00  0.00     0.246 C 
HETATM    9  N6  UNL     1      30.100   9.466  49.198  1.00  0.00    -0.191 NA
HETATM   10  C21 UNL     1      29.151   8.656  48.889  1.00  0.00     0.041 C 
ENDROOT
BRANCH   3  11
HETATM   11  N1  UNL     1      26.791   5.396  49.119  1.00  0.00    -0.365 N 
HETATM   12  H2  UNL     1      26.288   6.281  49.267  1.00  0.00     0.161 HD
BRANCH  11  13
HETATM   13  C4  UNL     1      26.628   3.997  49.365  1.00  0.00     0.392 C 
BRANCH  13  14
HETATM   14  N2  UNL     1      26.391   3.847  50.795  1.00  0.00     0.100 N 
HETATM   15  H5  UNL     1      27.255   3.938  51.345  1.00  0.00     0.318 HD
BRANCH  14  16
HETATM   16  C5  UNL     1      25.773   2.581  51.098  1.00  0.00     0.273 C 
BRANCH  16  17
HETATM   17  C6  UNL     1      24.264   2.838  51.216  1.00  0.00     0.060 C 
BRANCH  17  18
HETATM   18  C7  UNL     1      23.604   1.496  51.261  1.00  0.00     0.274 C 
BRANCH  18  19
HETATM   19  N3  UNL     1      22.961   1.200  52.510  1.00  0.00     0.092 N 
HETATM   20  C8  UNL     1      21.586   0.823  52.304  1.00  0.00     0.298 C 
HETATM   21  C9  UNL     1      21.027   0.591  53.715  1.00  0.00     0.198 C 
HETATM   22  O1  UNL     1      21.553  -0.602  54.132  1.00  0.00    -0.388 OA
HETATM   23  C10 UNL     1      22.895  -0.766  54.005  1.00  0.00     0.198 C 
HETATM   24  C11 UNL     1      23.686   0.308  53.362  1.00  0.00     0.298 C 
ENDBRANCH  18  19
ENDBRANCH  17  18
ENDBRANCH  16  17
ENDBRANCH  14  16
ENDBRANCH  13  14
ENDBRANCH  11  13
ENDBRANCH   3  11
BRANCH   6  25
HETATM   25  N4  UNL     1      31.654   6.737  47.023  1.00  0.00    -0.203 NA
BRANCH  25  26
HETATM   26  S1  UNL     1      32.805   5.611  46.976  1.00  0.00    -0.072 SA
HETATM   27  C15 UNL     1      34.197   5.649  48.144  1.00  0.00     0.057 A 
HETATM   28  C16 UNL     1      34.975   4.600  48.352  1.00  0.00     0.007 A 
HETATM   29  C17 UNL     1      34.699   3.383  47.616  1.00  0.00    -0.003 A 
HETATM   30  C18 UNL     1      33.751   3.176  46.744  1.00  0.00    -0.015 A 
HETATM   31  C19 UNL     1      32.641   3.966  46.154  1.00  0.00     0.118 A 
ENDBRANCH  25  26
ENDBRANCH   6  25
TORSDOF 9
ENDMDL
