MODEL 1
REMARK VINA RESULT:      -7.7      0.000      0.000
REMARK  6 active torsions:
REMARK  status: ('A' for Active; 'I' for Inactive)
REMARK    1  A    between atoms: C7_7  and  C8_8 
REMARK    2  A    between atoms: C11_13  and  N3_14 
REMARK    3  A    between atoms: C13_16  and  O1_17 
REMARK    4  A    between atoms: O1_17  and  C14_18 
REMARK    5  A    between atoms: C14_18  and  C15_19 
REMARK    6  A    between atoms: C15_19  and  O2_20 
ROOT
HETATM    1  C1  UNL     1      29.847  -2.173  53.404  1.00  0.00     0.018 C 
HETATM    2  C2  UNL     1      29.174  -1.164  53.434  1.00  0.00    -0.077 C 
HETATM    3  C3  UNL     1      28.380   0.013  53.471  1.00  0.00     0.023 A 
HETATM    4  C4  UNL     1      28.960   1.235  53.788  1.00  0.00     0.021 A 
HETATM    5  C5  UNL     1      28.172   2.388  53.823  1.00  0.00     0.002 A 
HETATM    6  C6  UNL     1      26.819   2.270  53.535  1.00  0.00     0.014 A 
HETATM    7  C7  UNL     1      26.240   1.035  53.217  1.00  0.00    -0.004 A 
HETATM    8  C18 UNL     1      27.033  -0.084  53.188  1.00  0.00    -0.031 A 
HETATM    9  C19 UNL     1      26.343  -1.355  52.842  1.00  0.00     0.050 C 
ENDROOT
BRANCH   7  10
HETATM   10  C8  UNL     1      24.797   1.110  52.944  1.00  0.00     0.052 C 
HETATM   11  N1  UNL     1      24.203   0.012  53.278  1.00  0.00    -0.246 NA
HETATM   12  C9  UNL     1      22.875  -0.468  53.245  1.00  0.00     0.227 C 
HETATM   13  N2  UNL     1      21.944  -0.212  52.402  1.00  0.00    -0.277 NA
HETATM   14  C10 UNL     1      21.592   0.507  51.222  1.00  0.00     0.209 C 
HETATM   15  C11 UNL     1      22.587   1.458  50.726  1.00  0.00     0.054 C 
HETATM   16  C13 UNL     1      23.633   2.211  51.046  1.00  0.00     0.076 C 
HETATM   17  C17 UNL     1      24.309   2.369  52.363  1.00  0.00     0.126 C 
BRANCH  15  18
HETATM   18  N3  UNL     1      22.330   1.665  49.322  1.00  0.00    -0.394 N 
HETATM   19  C12 UNL     1      20.997   1.557  48.776  1.00  0.00     0.146 C 
HETATM   20  H8  UNL     1      23.157   1.897  48.713  1.00  0.00     0.159 HD
ENDBRANCH  15  18
BRANCH  16  21
HETATM   21  O1  UNL     1      24.179   2.958  50.009  1.00  0.00    -0.351 OA
BRANCH  21  22
HETATM   22  C14 UNL     1      25.204   3.896  50.128  1.00  0.00     0.201 C 
BRANCH  22  23
HETATM   23  C15 UNL     1      26.509   3.137  49.859  1.00  0.00     0.193 C 
BRANCH  23  24
HETATM   24  O2  UNL     1      27.324   3.945  49.070  1.00  0.00    -0.394 OA
HETATM   25  C16 UNL     1      26.759   5.202  48.891  1.00  0.00     0.201 C 
ENDBRANCH  23  24
ENDBRANCH  22  23
ENDBRANCH  21  22
ENDBRANCH  16  21
ENDBRANCH   7  10
TORSDOF 6
ENDMDL
MODEL 2
REMARK VINA RESULT:      -7.6      2.841      4.569
REMARK  6 active torsions:
REMARK  status: ('A' for Active; 'I' for Inactive)
REMARK    1  A    between atoms: C7_7  and  C8_8 
REMARK    2  A    between atoms: C11_13  and  N3_14 
REMARK    3  A    between atoms: C13_16  and  O1_17 
REMARK    4  A    between atoms: O1_17  and  C14_18 
REMARK    5  A    between atoms: C14_18  and  C15_19 
REMARK    6  A    between atoms: C15_19  and  O2_20 
ROOT
HETATM    1  C1  UNL     1      26.335  -0.306  52.822  1.00  0.00     0.018 C 
HETATM    2  C2  UNL     1      25.155  -0.241  53.092  1.00  0.00    -0.077 C 
HETATM    3  C3  UNL     1      23.770  -0.164  53.401  1.00  0.00     0.023 A 
HETATM    4  C4  UNL     1      23.261  -0.855  54.494  1.00  0.00     0.021 A 
HETATM    5  C5  UNL     1      21.898  -0.774  54.791  1.00  0.00     0.002 A 
HETATM    6  C6  UNL     1      21.091   0.005  53.973  1.00  0.00     0.014 A 
HETATM    7  C7  UNL     1      21.611   0.699  52.874  1.00  0.00    -0.004 A 
HETATM    8  C18 UNL     1      22.951   0.605  52.600  1.00  0.00    -0.031 A 
HETATM    9  C19 UNL     1      23.424   1.371  51.416  1.00  0.00     0.050 C 
ENDROOT
BRANCH   7  10
HETATM   10  C8  UNL     1      20.603   1.469  52.128  1.00  0.00     0.052 C 
HETATM   11  N1  UNL     1      20.095   0.765  51.170  1.00  0.00    -0.246 NA
HETATM   12  C9  UNL     1      19.123   0.976  50.168  1.00  0.00     0.227 C 
HETATM   13  N2  UNL     1      18.829   2.054  49.541  1.00  0.00    -0.277 NA
HETATM   14  C10 UNL     1      19.126   3.440  49.384  1.00  0.00     0.209 C 
HETATM   15  C11 UNL     1      20.070   4.010  50.346  1.00  0.00     0.054 C 
HETATM   16  C13 UNL     1      20.610   3.884  51.552  1.00  0.00     0.076 C 
HETATM   17  C17 UNL     1      20.363   2.843  52.588  1.00  0.00     0.126 C 
BRANCH  15  18
HETATM   18  N3  UNL     1      20.649   5.186  49.743  1.00  0.00    -0.394 N 
HETATM   19  C12 UNL     1      20.754   5.323  48.309  1.00  0.00     0.146 C 
HETATM   20  H8  UNL     1      20.991   5.938  50.395  1.00  0.00     0.159 HD
ENDBRANCH  15  18
BRANCH  16  21
HETATM   21  O1  UNL     1      21.538   4.857  51.903  1.00  0.00    -0.351 OA
BRANCH  21  22
HETATM   22  C14 UNL     1      22.782   4.628  52.489  1.00  0.00     0.201 C 
BRANCH  22  23
HETATM   23  C15 UNL     1      23.809   5.347  51.606  1.00  0.00     0.193 C 
BRANCH  23  24
HETATM   24  O2  UNL     1      23.152   6.367  50.922  1.00  0.00    -0.394 OA
HETATM   25  C16 UNL     1      23.915   7.527  50.902  1.00  0.00     0.201 C 
ENDBRANCH  23  24
ENDBRANCH  22  23
ENDBRANCH  21  22
ENDBRANCH  16  21
ENDBRANCH   7  10
TORSDOF 6
ENDMDL
MODEL 3
REMARK VINA RESULT:      -7.4      3.027      5.238
REMARK  6 active torsions:
REMARK  status: ('A' for Active; 'I' for Inactive)
REMARK    1  A    between atoms: C7_7  and  C8_8 
REMARK    2  A    between atoms: C11_13  and  N3_14 
REMARK    3  A    between atoms: C13_16  and  O1_17 
REMARK    4  A    between atoms: O1_17  and  C14_18 
REMARK    5  A    between atoms: C14_18  and  C15_19 
REMARK    6  A    between atoms: C15_19  and  O2_20 
ROOT
HETATM    1  C1  UNL     1      21.936  -1.484  54.787  1.00  0.00     0.018 C 
HETATM    2  C2  UNL     1      22.734  -0.850  54.129  1.00  0.00    -0.077 C 
HETATM    3  C3  UNL     1      23.664  -0.102  53.358  1.00  0.00     0.023 A 
HETATM    4  C4  UNL     1      24.983  -0.526  53.253  1.00  0.00     0.021 A 
HETATM    5  C5  UNL     1      25.891   0.215  52.494  1.00  0.00     0.002 A 
HETATM    6  C6  UNL     1      25.437   1.364  51.862  1.00  0.00     0.014 A 
HETATM    7  C7  UNL     1      24.106   1.787  51.971  1.00  0.00    -0.004 A 
HETATM    8  C18 UNL     1      23.232   1.044  52.722  1.00  0.00    -0.031 A 
HETATM    9  C19 UNL     1      21.838   1.559  52.789  1.00  0.00     0.050 C 
ENDROOT
BRANCH   7  10
HETATM   10  C8  UNL     1      23.815   3.025  51.233  1.00  0.00     0.052 C 
HETATM   11  N1  UNL     1      23.896   4.058  52.007  1.00  0.00    -0.246 NA
HETATM   12  C9  UNL     1      23.727   5.451  51.851  1.00  0.00     0.227 C 
HETATM   13  N2  UNL     1      22.931   6.087  51.075  1.00  0.00    -0.277 NA
HETATM   14  C10 UNL     1      21.917   5.969  50.079  1.00  0.00     0.209 C 
HETATM   15  C11 UNL     1      21.658   4.618  49.580  1.00  0.00     0.054 C 
HETATM   16  C13 UNL     1      22.156   3.397  49.423  1.00  0.00     0.076 C 
HETATM   17  C17 UNL     1      23.496   2.873  49.807  1.00  0.00     0.126 C 
BRANCH  15  18
HETATM   18  N3  UNL     1      20.321   4.602  49.039  1.00  0.00    -0.394 N 
HETATM   19  C12 UNL     1      19.284   5.457  49.569  1.00  0.00     0.146 C 
HETATM   20  H8  UNL     1      20.135   3.941  48.242  1.00  0.00     0.159 HD
ENDBRANCH  15  18
BRANCH  16  21
HETATM   21  O1  UNL     1      21.313   2.474  48.815  1.00  0.00    -0.351 OA
BRANCH  21  22
HETATM   22  C14 UNL     1      21.223   1.119  49.128  1.00  0.00     0.201 C 
BRANCH  22  23
HETATM   23  C15 UNL     1      19.882   0.936  49.848  1.00  0.00     0.193 C 
BRANCH  23  24
HETATM   24  O2  UNL     1      18.988   1.878  49.344  1.00  0.00    -0.394 OA
HETATM   25  C16 UNL     1      17.910   2.054  50.203  1.00  0.00     0.201 C 
ENDBRANCH  23  24
ENDBRANCH  22  23
ENDBRANCH  21  22
ENDBRANCH  16  21
ENDBRANCH   7  10
TORSDOF 6
ENDMDL
MODEL 4
REMARK VINA RESULT:      -7.4      3.106      5.199
REMARK  6 active torsions:
REMARK  status: ('A' for Active; 'I' for Inactive)
REMARK    1  A    between atoms: C7_7  and  C8_8 
REMARK    2  A    between atoms: C11_13  and  N3_14 
REMARK    3  A    between atoms: C13_16  and  O1_17 
REMARK    4  A    between atoms: O1_17  and  C14_18 
REMARK    5  A    between atoms: C14_18  and  C15_19 
REMARK    6  A    between atoms: C15_19  and  O2_20 
ROOT
HETATM    1  C1  UNL     1      22.619  -1.027  54.445  1.00  0.00     0.018 C 
HETATM    2  C2  UNL     1      23.575  -0.535  53.884  1.00  0.00    -0.077 C 
HETATM    3  C3  UNL     1      24.690   0.049  53.226  1.00  0.00     0.023 A 
HETATM    4  C4  UNL     1      25.972  -0.429  53.470  1.00  0.00     0.021 A 
HETATM    5  C5  UNL     1      27.064   0.151  52.820  1.00  0.00     0.002 A 
HETATM    6  C6  UNL     1      26.826   1.198  51.940  1.00  0.00     0.014 A 
HETATM    7  C7  UNL     1      25.532   1.675  51.698  1.00  0.00    -0.004 A 
HETATM    8  C18 UNL     1      24.475   1.091  52.347  1.00  0.00    -0.031 A 
HETATM    9  C19 UNL     1      23.134   1.655  52.037  1.00  0.00     0.050 C 
ENDROOT
BRANCH   7  10
HETATM   10  C8  UNL     1      25.480   2.787  50.737  1.00  0.00     0.052 C 
HETATM   11  N1  UNL     1      26.614   2.934  50.133  1.00  0.00    -0.246 NA
HETATM   12  C9  UNL     1      27.128   3.805  49.148  1.00  0.00     0.227 C 
HETATM   13  N2  UNL     1      26.845   5.036  48.930  1.00  0.00    -0.277 NA
HETATM   14  C10 UNL     1      26.062   6.152  49.345  1.00  0.00     0.209 C 
HETATM   15  C11 UNL     1      25.053   5.886  50.370  1.00  0.00     0.054 C 
HETATM   16  C13 UNL     1      24.293   4.959  50.941  1.00  0.00     0.076 C 
HETATM   17  C17 UNL     1      24.201   3.504  50.638  1.00  0.00     0.126 C 
BRANCH  15  18
HETATM   18  N3  UNL     1      24.763   7.136  51.031  1.00  0.00    -0.394 N 
HETATM   19  C12 UNL     1      24.796   8.391  50.316  1.00  0.00     0.146 C 
HETATM   20  H8  UNL     1      24.527   7.092  52.055  1.00  0.00     0.159 HD
ENDBRANCH  15  18
BRANCH  16  21
HETATM   21  O1  UNL     1      23.465   5.402  51.965  1.00  0.00    -0.351 OA
BRANCH  21  22
HETATM   22  C14 UNL     1      22.109   5.110  52.104  1.00  0.00     0.201 C 
BRANCH  22  23
HETATM   23  C15 UNL     1      21.401   5.807  50.936  1.00  0.00     0.193 C 
BRANCH  23  24
HETATM   24  O2  UNL     1      21.594   7.180  51.070  1.00  0.00    -0.394 OA
HETATM   25  C16 UNL     1      20.959   7.876  50.049  1.00  0.00     0.201 C 
ENDBRANCH  23  24
ENDBRANCH  22  23
ENDBRANCH  21  22
ENDBRANCH  16  21
ENDBRANCH   7  10
TORSDOF 6
ENDMDL
MODEL 5
REMARK VINA RESULT:      -7.3      2.746      7.470
REMARK  6 active torsions:
REMARK  status: ('A' for Active; 'I' for Inactive)
REMARK    1  A    between atoms: C7_7  and  C8_8 
REMARK    2  A    between atoms: C11_13  and  N3_14 
REMARK    3  A    between atoms: C13_16  and  O1_17 
REMARK    4  A    between atoms: O1_17  and  C14_18 
REMARK    5  A    between atoms: C14_18  and  C15_19 
REMARK    6  A    between atoms: C15_19  and  O2_20 
ROOT
HETATM    1  C1  UNL     1      18.917   5.487  49.422  1.00  0.00     0.018 C 
HETATM    2  C2  UNL     1      19.655   4.536  49.569  1.00  0.00    -0.077 C 
HETATM    3  C3  UNL     1      20.523   3.425  49.747  1.00  0.00     0.023 A 
HETATM    4  C4  UNL     1      20.182   2.184  49.224  1.00  0.00     0.021 A 
HETATM    5  C5  UNL     1      21.041   1.096  49.403  1.00  0.00     0.002 A 
HETATM    6  C6  UNL     1      22.220   1.298  50.107  1.00  0.00     0.014 A 
HETATM    7  C7  UNL     1      22.559   2.552  50.631  1.00  0.00    -0.004 A 
HETATM    8  C18 UNL     1      21.701   3.605  50.443  1.00  0.00    -0.031 A 
HETATM    9  C19 UNL     1      22.132   4.902  51.031  1.00  0.00     0.050 C 
ENDROOT
BRANCH   7  10
HETATM   10  C8  UNL     1      23.845   2.569  51.344  1.00  0.00     0.052 C 
HETATM   11  N1  UNL     1      24.803   2.957  50.567  1.00  0.00    -0.246 NA
HETATM   12  C9  UNL     1      26.194   3.159  50.702  1.00  0.00     0.227 C 
HETATM   13  N2  UNL     1      27.034   2.527  51.434  1.00  0.00    -0.277 NA
HETATM   14  C10 UNL     1      27.210   1.476  52.380  1.00  0.00     0.209 C 
HETATM   15  C11 UNL     1      25.988   0.844  52.877  1.00  0.00     0.054 C 
HETATM   16  C13 UNL     1      24.682   0.991  53.069  1.00  0.00     0.076 C 
HETATM   17  C17 UNL     1      23.813   2.158  52.754  1.00  0.00     0.126 C 
BRANCH  15  18
HETATM   18  N3  UNL     1      26.340  -0.472  53.354  1.00  0.00    -0.394 N 
HETATM   19  C12 UNL     1      27.576  -1.108  52.963  1.00  0.00     0.146 C 
HETATM   20  H8  UNL     1      25.656  -0.947  53.997  1.00  0.00     0.159 HD
ENDBRANCH  15  18
BRANCH  16  21
HETATM   21  O1  UNL     1      24.030  -0.094  53.643  1.00  0.00    -0.351 OA
BRANCH  21  22
HETATM   22  C14 UNL     1      22.650  -0.245  53.769  1.00  0.00     0.201 C 
BRANCH  22  23
HETATM   23  C15 UNL     1      22.425  -1.054  55.051  1.00  0.00     0.193 C 
BRANCH  23  24
HETATM   24  O2  UNL     1      21.360  -1.925  54.833  1.00  0.00    -0.394 OA
HETATM   25  C16 UNL     1      20.390  -1.336  54.030  1.00  0.00     0.201 C 
ENDBRANCH  23  24
ENDBRANCH  22  23
ENDBRANCH  21  22
ENDBRANCH  16  21
ENDBRANCH   7  10
TORSDOF 6
ENDMDL
MODEL 6
REMARK VINA RESULT:      -7.3      2.885      6.457
REMARK  6 active torsions:
REMARK  status: ('A' for Active; 'I' for Inactive)
REMARK    1  A    between atoms: C7_7  and  C8_8 
REMARK    2  A    between atoms: C11_13  and  N3_14 
REMARK    3  A    between atoms: C13_16  and  O1_17 
REMARK    4  A    between atoms: O1_17  and  C14_18 
REMARK    5  A    between atoms: C14_18  and  C15_19 
REMARK    6  A    between atoms: C15_19  and  O2_20 
ROOT
HETATM    1  C1  UNL     1      21.446   3.650  46.438  1.00  0.00     0.018 C 
HETATM    2  C2  UNL     1      22.215   3.905  47.341  1.00  0.00    -0.077 C 
HETATM    3  C3  UNL     1      23.116   4.196  48.400  1.00  0.00     0.023 A 
HETATM    4  C4  UNL     1      23.780   5.416  48.434  1.00  0.00     0.021 A 
HETATM    5  C5  UNL     1      24.665   5.694  49.478  1.00  0.00     0.002 A 
HETATM    6  C6  UNL     1      24.851   4.729  50.458  1.00  0.00     0.014 A 
HETATM    7  C7  UNL     1      24.179   3.501  50.418  1.00  0.00    -0.004 A 
HETATM    8  C18 UNL     1      23.315   3.249  49.383  1.00  0.00    -0.031 A 
HETATM    9  C19 UNL     1      22.642   1.923  49.412  1.00  0.00     0.050 C 
ENDROOT
BRANCH   7  10
HETATM   10  C8  UNL     1      24.507   2.609  51.541  1.00  0.00     0.052 C 
HETATM   11  N1  UNL     1      25.558   1.902  51.282  1.00  0.00    -0.246 NA
HETATM   12  C9  UNL     1      26.305   0.917  51.965  1.00  0.00     0.227 C 
HETATM   13  N2  UNL     1      25.901   0.027  52.794  1.00  0.00    -0.277 NA
HETATM   14  C10 UNL     1      24.775  -0.518  53.476  1.00  0.00     0.209 C 
HETATM   15  C11 UNL     1      23.516   0.213  53.329  1.00  0.00     0.054 C 
HETATM   16  C13 UNL     1      22.960   1.387  53.051  1.00  0.00     0.076 C 
HETATM   17  C17 UNL     1      23.616   2.678  52.707  1.00  0.00     0.126 C 
BRANCH  15  18
HETATM   18  N3  UNL     1      22.441  -0.712  53.593  1.00  0.00    -0.394 N 
HETATM   19  C12 UNL     1      22.318  -1.380  54.868  1.00  0.00     0.146 C 
HETATM   20  H8  UNL     1      21.751  -0.879  52.816  1.00  0.00     0.159 HD
ENDBRANCH  15  18
BRANCH  16  21
HETATM   21  O1  UNL     1      21.571   1.420  53.083  1.00  0.00    -0.351 OA
BRANCH  21  22
HETATM   22  C14 UNL     1      20.761   2.355  52.441  1.00  0.00     0.201 C 
BRANCH  22  23
HETATM   23  C15 UNL     1      19.582   1.568  51.857  1.00  0.00     0.193 C 
BRANCH  23  24
HETATM   24  O2  UNL     1      19.825   0.211  52.061  1.00  0.00    -0.394 OA
HETATM   25  C16 UNL     1      18.665  -0.451  52.444  1.00  0.00     0.201 C 
ENDBRANCH  23  24
ENDBRANCH  22  23
ENDBRANCH  21  22
ENDBRANCH  16  21
ENDBRANCH   7  10
TORSDOF 6
ENDMDL
MODEL 7
REMARK VINA RESULT:      -7.2      2.729      4.463
REMARK  6 active torsions:
REMARK  status: ('A' for Active; 'I' for Inactive)
REMARK    1  A    between atoms: C7_7  and  C8_8 
REMARK    2  A    between atoms: C11_13  and  N3_14 
REMARK    3  A    between atoms: C13_16  and  O1_17 
REMARK    4  A    between atoms: O1_17  and  C14_18 
REMARK    5  A    between atoms: C14_18  and  C15_19 
REMARK    6  A    between atoms: C15_19  and  O2_20 
ROOT
HETATM    1  C1  UNL     1      22.644  -1.632  55.330  1.00  0.00     0.018 C 
HETATM    2  C2  UNL     1      23.110  -0.911  54.473  1.00  0.00    -0.077 C 
HETATM    3  C3  UNL     1      23.650  -0.064  53.468  1.00  0.00     0.023 A 
HETATM    4  C4  UNL     1      25.025   0.111  53.369  1.00  0.00     0.021 A 
HETATM    5  C5  UNL     1      25.548   0.946  52.380  1.00  0.00     0.002 A 
HETATM    6  C6  UNL     1      24.663   1.580  51.519  1.00  0.00     0.014 A 
HETATM    7  C7  UNL     1      23.279   1.401  51.623  1.00  0.00    -0.004 A 
HETATM    8  C18 UNL     1      22.787   0.576  52.603  1.00  0.00    -0.031 A 
HETATM    9  C19 UNL     1      21.307   0.438  52.648  1.00  0.00     0.050 C 
ENDROOT
BRANCH   7  10
HETATM   10  C8  UNL     1      22.506   2.154  50.625  1.00  0.00     0.052 C 
HETATM   11  N1  UNL     1      22.108   1.384  49.666  1.00  0.00    -0.246 NA
HETATM   12  C9  UNL     1      21.357   1.552  48.481  1.00  0.00     0.227 C 
HETATM   13  N2  UNL     1      21.294   2.567  47.702  1.00  0.00    -0.277 NA
HETATM   14  C10 UNL     1      21.756   3.894  47.461  1.00  0.00     0.209 C 
HETATM   15  C11 UNL     1      22.566   4.497  48.519  1.00  0.00     0.054 C 
HETATM   16  C13 UNL     1      22.866   4.473  49.813  1.00  0.00     0.076 C 
HETATM   17  C17 UNL     1      22.331   3.590  50.885  1.00  0.00     0.126 C 
BRANCH  15  18
HETATM   18  N3  UNL     1      23.363   5.539  47.919  1.00  0.00    -0.394 N 
HETATM   19  C12 UNL     1      22.800   6.456  46.955  1.00  0.00     0.146 C 
HETATM   20  H8  UNL     1      24.371   5.601  48.214  1.00  0.00     0.159 HD
ENDBRANCH  15  18
BRANCH  16  21
HETATM   21  O1  UNL     1      23.812   5.402  50.230  1.00  0.00    -0.351 OA
BRANCH  21  22
HETATM   22  C14 UNL     1      23.742   6.178  51.387  1.00  0.00     0.201 C 
BRANCH  22  23
HETATM   23  C15 UNL     1      24.022   7.620  50.949  1.00  0.00     0.193 C 
BRANCH  23  24
HETATM   24  O2  UNL     1      24.768   7.579  49.774  1.00  0.00    -0.394 OA
HETATM   25  C16 UNL     1      26.073   8.003  49.995  1.00  0.00     0.201 C 
ENDBRANCH  23  24
ENDBRANCH  22  23
ENDBRANCH  21  22
ENDBRANCH  16  21
ENDBRANCH   7  10
TORSDOF 6
ENDMDL
MODEL 8
REMARK VINA RESULT:      -7.2      3.100      5.097
REMARK  6 active torsions:
REMARK  status: ('A' for Active; 'I' for Inactive)
REMARK    1  A    between atoms: C7_7  and  C8_8 
REMARK    2  A    between atoms: C11_13  and  N3_14 
REMARK    3  A    between atoms: C13_16  and  O1_17 
REMARK    4  A    between atoms: O1_17  and  C14_18 
REMARK    5  A    between atoms: C14_18  and  C15_19 
REMARK    6  A    between atoms: C15_19  and  O2_20 
ROOT
HETATM    1  C1  UNL     1      27.585   4.823  48.623  1.00  0.00     0.018 C 
HETATM    2  C2  UNL     1      26.897   4.096  49.308  1.00  0.00    -0.077 C 
HETATM    3  C3  UNL     1      26.086   3.245  50.106  1.00  0.00     0.023 A 
HETATM    4  C4  UNL     1      26.674   2.373  51.014  1.00  0.00     0.021 A 
HETATM    5  C5  UNL     1      25.870   1.539  51.795  1.00  0.00     0.002 A 
HETATM    6  C6  UNL     1      24.494   1.613  51.633  1.00  0.00     0.014 A 
HETATM    7  C7  UNL     1      23.907   2.493  50.716  1.00  0.00    -0.004 A 
HETATM    8  C18 UNL     1      24.716   3.303  49.960  1.00  0.00    -0.031 A 
HETATM    9  C19 UNL     1      24.016   4.209  49.010  1.00  0.00     0.050 C 
ENDROOT
BRANCH   7  10
HETATM   10  C8  UNL     1      22.438   2.427  50.687  1.00  0.00     0.052 C 
HETATM   11  N1  UNL     1      22.028   1.564  49.817  1.00  0.00    -0.246 NA
HETATM   12  C9  UNL     1      20.772   1.096  49.373  1.00  0.00     0.227 C 
HETATM   13  N2  UNL     1      19.661   1.728  49.280  1.00  0.00    -0.277 NA
HETATM   14  C10 UNL     1      19.000   2.976  49.474  1.00  0.00     0.209 C 
HETATM   15  C11 UNL     1      19.776   4.020  50.142  1.00  0.00     0.054 C 
HETATM   16  C13 UNL     1      20.798   4.273  50.952  1.00  0.00     0.076 C 
HETATM   17  C17 UNL     1      21.728   3.318  51.615  1.00  0.00     0.126 C 
BRANCH  15  18
HETATM   18  N3  UNL     1      19.202   5.292  49.776  1.00  0.00    -0.394 N 
HETATM   19  C12 UNL     1      18.786   5.568  48.421  1.00  0.00     0.146 C 
HETATM   20  H8  UNL     1      19.100   6.009  50.540  1.00  0.00     0.159 HD
ENDBRANCH  15  18
BRANCH  16  21
HETATM   21  O1  UNL     1      21.037   5.615  51.223  1.00  0.00    -0.351 OA
BRANCH  21  22
HETATM   22  C14 UNL     1      22.289   6.220  51.311  1.00  0.00     0.201 C 
BRANCH  22  23
HETATM   23  C15 UNL     1      22.260   7.403  50.336  1.00  0.00     0.193 C 
BRANCH  23  24
HETATM   24  O2  UNL     1      20.930   7.763  50.132  1.00  0.00    -0.394 OA
HETATM   25  C16 UNL     1      20.838   8.964  49.439  1.00  0.00     0.201 C 
ENDBRANCH  23  24
ENDBRANCH  22  23
ENDBRANCH  21  22
ENDBRANCH  16  21
ENDBRANCH   7  10
TORSDOF 6
ENDMDL
MODEL 9
REMARK VINA RESULT:      -7.1      2.003      5.534
REMARK  6 active torsions:
REMARK  status: ('A' for Active; 'I' for Inactive)
REMARK    1  A    between atoms: C7_7  and  C8_8 
REMARK    2  A    between atoms: C11_13  and  N3_14 
REMARK    3  A    between atoms: C13_16  and  O1_17 
REMARK    4  A    between atoms: O1_17  and  C14_18 
REMARK    5  A    between atoms: C14_18  and  C15_19 
REMARK    6  A    between atoms: C15_19  and  O2_20 
ROOT
HETATM    1  C1  UNL     1      28.769   5.881  48.254  1.00  0.00     0.018 C 
HETATM    2  C2  UNL     1      27.614   5.711  48.583  1.00  0.00    -0.077 C 
HETATM    3  C3  UNL     1      26.263   5.505  48.971  1.00  0.00     0.023 A 
HETATM    4  C4  UNL     1      25.386   6.580  49.038  1.00  0.00     0.021 A 
HETATM    5  C5  UNL     1      24.059   6.370  49.421  1.00  0.00     0.002 A 
HETATM    6  C6  UNL     1      23.660   5.076  49.725  1.00  0.00     0.014 A 
HETATM    7  C7  UNL     1      24.549   3.996  49.656  1.00  0.00    -0.004 A 
HETATM    8  C18 UNL     1      25.847   4.226  49.277  1.00  0.00    -0.031 A 
HETATM    9  C19 UNL     1      26.727   3.028  49.229  1.00  0.00     0.050 C 
ENDROOT
BRANCH   7  10
HETATM   10  C8  UNL     1      23.942   2.705  50.014  1.00  0.00     0.052 C 
HETATM   11  N1  UNL     1      22.872   2.485  49.323  1.00  0.00    -0.246 NA
HETATM   12  C9  UNL     1      21.916   1.449  49.245  1.00  0.00     0.227 C 
HETATM   13  N2  UNL     1      21.485   0.675  50.171  1.00  0.00    -0.277 NA
HETATM   14  C10 UNL     1      21.575   0.332  51.552  1.00  0.00     0.209 C 
HETATM   15  C11 UNL     1      22.628   1.002  52.315  1.00  0.00     0.054 C 
HETATM   16  C13 UNL     1      23.797   1.628  52.247  1.00  0.00     0.076 C 
HETATM   17  C17 UNL     1      24.633   1.928  51.052  1.00  0.00     0.126 C 
BRANCH  15  18
HETATM   18  N3  UNL     1      22.244   0.972  53.705  1.00  0.00    -0.394 N 
HETATM   19  C12 UNL     1      21.647  -0.203  54.297  1.00  0.00     0.146 C 
HETATM   20  H8  UNL     1      22.418   1.844  54.269  1.00  0.00     0.159 HD
ENDBRANCH  15  18
BRANCH  16  21
HETATM   21  O1  UNL     1      24.319   2.066  53.458  1.00  0.00    -0.351 OA
BRANCH  21  22
HETATM   22  C14 UNL     1      25.670   2.103  53.801  1.00  0.00     0.201 C 
BRANCH  22  23
HETATM   23  C15 UNL     1      26.050   0.669  54.188  1.00  0.00     0.193 C 
BRANCH  23  24
HETATM   24  O2  UNL     1      27.207   0.722  54.962  1.00  0.00    -0.394 OA
HETATM   25  C16 UNL     1      28.342   0.576  54.174  1.00  0.00     0.201 C 
ENDBRANCH  23  24
ENDBRANCH  22  23
ENDBRANCH  21  22
ENDBRANCH  16  21
ENDBRANCH   7  10
TORSDOF 6
ENDMDL
