MODEL 1
REMARK VINA RESULT:      -7.2      0.000      0.000
REMARK  2 active torsions:
REMARK  status: ('A' for Active; 'I' for Inactive)
REMARK    1  A    between atoms: O1_2  and  C2_3 
REMARK    2  A    between atoms: P1_8  and  O3_9 
ROOT
HETATM    1  C2  UNL     1      20.992   3.771  47.836  1.00  0.00     0.261 C 
HETATM    2  C3  UNL     1      20.467   2.400  48.119  1.00  0.00     0.087 C 
HETATM    3  C4  UNL     1      21.591   1.411  48.217  1.00  0.00     0.173 C 
HETATM    4  O2  UNL     1      22.403   1.668  49.230  1.00  0.00    -0.384 OA
HETATM    5  C5  UNL     1      21.977   1.539  50.548  1.00  0.00     0.239 C 
HETATM    6  P1  UNL     1      23.145   2.026  51.752  1.00  0.00     0.048 P 
HETATM    7  N1  UNL     1      22.831   3.423  52.670  1.00  0.00    -0.346 N 
HETATM    8  C6  UNL     1      22.419   4.747  52.355  1.00  0.00     0.203 C 
HETATM    9  N2  UNL     1      22.381   5.510  51.300  1.00  0.00    -0.256 NA
HETATM   10  C7  UNL     1      22.898   5.694  49.985  1.00  0.00     0.239 C 
HETATM   11  C8  UNL     1      23.024   4.337  49.245  1.00  0.00     0.094 C 
HETATM   12  C9  UNL     1      24.085   3.450  49.296  1.00  0.00     0.149 C 
HETATM   13  C10 UNL     1      24.229   2.737  50.677  1.00  0.00    -0.017 C 
HETATM   14  C11 UNL     1      25.561   2.719  50.974  1.00  0.00    -0.010 C 
HETATM   15  C12 UNL     1      26.655   3.304  50.154  1.00  0.00     0.081 C 
HETATM   16  C13 UNL     1      26.427   4.602  49.506  1.00  0.00     0.037 C 
HETATM   17 CL1  UNL     1      27.845   4.852  48.460  1.00  0.00    -0.087 Cl
HETATM   18  C14 UNL     1      25.583   5.671  49.404  1.00  0.00     0.022 C 
HETATM   19  C15 UNL     1      25.848   6.853  48.496  1.00  0.00     0.069 C 
HETATM   20  N3  UNL     1      24.328   6.107  50.013  1.00  0.00    -0.362 N 
HETATM   21  C16 UNL     1      24.395   7.245  50.905  1.00  0.00     0.152 C 
HETATM   22  O4  UNL     1      21.898   4.351  48.640  1.00  0.00    -0.351 OA
HETATM   23  H11 UNL     1      22.578   1.327  52.617  1.00  0.00     0.102 HD
HETATM   24  H13 UNL     1      22.930   3.454  53.734  1.00  0.00     0.166 HD
ENDROOT
BRANCH   6  25
HETATM   25  O3  UNL     1      24.368   1.040  52.256  1.00  0.00    -0.363 OA
HETATM   26  H12 UNL     1      24.139   0.114  52.171  1.00  0.00     0.216 HD
ENDBRANCH   6  25
BRANCH   1  27
HETATM   27  O1  UNL     1      19.880   4.655  47.649  1.00  0.00    -0.366 OA
HETATM   28  C1  UNL     1      19.327   4.900  48.916  1.00  0.00     0.204 C 
ENDBRANCH   1  27
TORSDOF 2
ENDMDL
MODEL 2
REMARK VINA RESULT:      -6.9      9.185     11.207
REMARK  2 active torsions:
REMARK  status: ('A' for Active; 'I' for Inactive)
REMARK    1  A    between atoms: O1_2  and  C2_3 
REMARK    2  A    between atoms: P1_8  and  O3_9 
ROOT
HETATM    1  C2  UNL     1      30.399   7.918  47.177  1.00  0.00     0.261 C 
HETATM    2  C3  UNL     1      30.160   7.248  48.493  1.00  0.00     0.087 C 
HETATM    3  C4  UNL     1      30.498   5.788  48.413  1.00  0.00     0.173 C 
HETATM    4  O2  UNL     1      31.781   5.579  48.165  1.00  0.00    -0.384 OA
HETATM    5  C5  UNL     1      32.759   5.907  49.098  1.00  0.00     0.239 C 
HETATM    6  P1  UNL     1      34.403   5.665  48.559  1.00  0.00     0.048 P 
HETATM    7  N1  UNL     1      35.382   7.033  48.300  1.00  0.00    -0.346 N 
HETATM    8  C6  UNL     1      35.206   8.265  47.612  1.00  0.00     0.203 C 
HETATM    9  N2  UNL     1      34.404   8.745  46.705  1.00  0.00    -0.256 NA
HETATM   10  C7  UNL     1      33.476   8.402  45.680  1.00  0.00     0.239 C 
HETATM   11  C8  UNL     1      32.589   7.206  46.114  1.00  0.00     0.094 C 
HETATM   12  C9  UNL     1      32.880   5.859  45.992  1.00  0.00     0.149 C 
HETATM   13  C10 UNL     1      34.025   5.385  46.942  1.00  0.00    -0.017 C 
HETATM   14  C11 UNL     1      34.822   4.551  46.212  1.00  0.00    -0.010 C 
HETATM   15  C12 UNL     1      34.650   4.199  44.778  1.00  0.00     0.081 C 
HETATM   16  C13 UNL     1      34.245   5.254  43.841  1.00  0.00     0.037 C 
HETATM   17 CL1  UNL     1      33.933   4.414  42.304  1.00  0.00    -0.087 Cl
HETATM   18  C14 UNL     1      34.033   6.595  43.686  1.00  0.00     0.022 C 
HETATM   19  C15 UNL     1      33.571   7.217  42.385  1.00  0.00     0.069 C 
HETATM   20  N3  UNL     1      34.160   7.801  44.502  1.00  0.00    -0.362 N 
HETATM   21  C16 UNL     1      35.216   8.724  44.143  1.00  0.00     0.152 C 
HETATM   22  O4  UNL     1      31.599   7.870  46.577  1.00  0.00    -0.351 OA
HETATM   23  H11 UNL     1      34.805   5.599  49.739  1.00  0.00     0.102 HD
HETATM   24  H13 UNL     1      36.378   7.115  48.680  1.00  0.00     0.166 HD
ENDROOT
BRANCH   6  25
HETATM   25  O3  UNL     1      35.144   4.192  48.590  1.00  0.00    -0.363 OA
HETATM   26  H12 UNL     1      36.052   4.254  48.887  1.00  0.00     0.216 HD
ENDBRANCH   6  25
BRANCH   1  27
HETATM   27  O1  UNL     1      29.966   9.280  47.275  1.00  0.00    -0.366 OA
HETATM   28  C1  UNL     1      30.851   9.936  48.145  1.00  0.00     0.204 C 
ENDBRANCH   1  27
TORSDOF 2
ENDMDL
MODEL 3
REMARK VINA RESULT:      -6.8      2.026      2.685
REMARK  2 active torsions:
REMARK  status: ('A' for Active; 'I' for Inactive)
REMARK    1  A    between atoms: O1_2  and  C2_3 
REMARK    2  A    between atoms: P1_8  and  O3_9 
ROOT
HETATM    1  C2  UNL     1      21.858   3.899  46.540  1.00  0.00     0.261 C 
HETATM    2  C3  UNL     1      20.441   3.495  46.792  1.00  0.00     0.087 C 
HETATM    3  C4  UNL     1      20.369   2.471  47.887  1.00  0.00     0.173 C 
HETATM    4  O2  UNL     1      20.789   2.944  49.050  1.00  0.00    -0.384 OA
HETATM    5  C5  UNL     1      20.081   3.932  49.725  1.00  0.00     0.239 C 
HETATM    6  P1  UNL     1      20.838   4.514  51.187  1.00  0.00     0.048 P 
HETATM    7  N1  UNL     1      21.440   6.105  51.213  1.00  0.00    -0.346 N 
HETATM    8  C6  UNL     1      22.256   6.873  50.337  1.00  0.00     0.203 C 
HETATM    9  N2  UNL     1      23.081   6.644  49.355  1.00  0.00    -0.256 NA
HETATM   10  C7  UNL     1      23.885   5.652  48.725  1.00  0.00     0.239 C 
HETATM   11  C8  UNL     1      23.150   4.286  48.689  1.00  0.00     0.094 C 
HETATM   12  C9  UNL     1      23.128   3.320  49.679  1.00  0.00     0.149 C 
HETATM   13  C10 UNL     1      22.318   3.748  50.943  1.00  0.00    -0.017 C 
HETATM   14  C11 UNL     1      23.042   3.349  52.029  1.00  0.00    -0.010 C 
HETATM   15  C12 UNL     1      24.367   2.674  52.005  1.00  0.00     0.081 C 
HETATM   16  C13 UNL     1      25.364   3.122  51.025  1.00  0.00     0.037 C 
HETATM   17 CL1  UNL     1      26.699   1.952  51.155  1.00  0.00    -0.087 Cl
HETATM   18  C14 UNL     1      25.669   4.069  50.089  1.00  0.00     0.022 C 
HETATM   19  C15 UNL     1      26.953   4.058  49.286  1.00  0.00     0.069 C 
HETATM   20  N3  UNL     1      25.061   5.289  49.562  1.00  0.00    -0.362 N 
HETATM   21  C16 UNL     1      25.711   6.539  49.894  1.00  0.00     0.152 C 
HETATM   22  O4  UNL     1      22.631   4.386  47.524  1.00  0.00    -0.351 OA
HETATM   23  H11 UNL     1      19.741   4.920  51.621  1.00  0.00     0.102 HD
HETATM   24  H13 UNL     1      21.241   6.789  52.010  1.00  0.00     0.166 HD
ENDROOT
BRANCH   6  25
HETATM   25  O3  UNL     1      20.721   3.720  52.628  1.00  0.00    -0.363 OA
HETATM   26  H12 UNL     1      21.121   4.216  53.344  1.00  0.00     0.216 HD
ENDBRANCH   6  25
BRANCH   1  27
HETATM   27  O1  UNL     1      21.883   4.796  45.423  1.00  0.00    -0.366 OA
HETATM   28  C1  UNL     1      21.062   4.244  44.428  1.00  0.00     0.204 C 
ENDBRANCH   1  27
TORSDOF 2
ENDMDL
MODEL 4
REMARK VINA RESULT:      -6.5      7.114      9.310
REMARK  2 active torsions:
REMARK  status: ('A' for Active; 'I' for Inactive)
REMARK    1  A    between atoms: O1_2  and  C2_3 
REMARK    2  A    between atoms: P1_8  and  O3_9 
ROOT
HETATM    1  C2  UNL     1      29.924  10.212  44.656  1.00  0.00     0.261 C 
HETATM    2  C3  UNL     1      28.451  10.458  44.745  1.00  0.00     0.087 C 
HETATM    3  C4  UNL     1      27.709   9.167  44.933  1.00  0.00     0.173 C 
HETATM    4  O2  UNL     1      28.014   8.570  46.074  1.00  0.00    -0.384 OA
HETATM    5  C5  UNL     1      27.656   9.126  47.298  1.00  0.00     0.239 C 
HETATM    6  P1  UNL     1      28.235   8.260  48.700  1.00  0.00     0.048 P 
HETATM    7  N1  UNL     1      29.429   8.989  49.669  1.00  0.00    -0.346 N 
HETATM    8  C6  UNL     1      30.667   9.635  49.402  1.00  0.00     0.203 C 
HETATM    9  N2  UNL     1      31.517   9.701  48.417  1.00  0.00    -0.256 NA
HETATM   10  C7  UNL     1      31.948   9.071  47.215  1.00  0.00     0.239 C 
HETATM   11  C8  UNL     1      30.735   8.555  46.396  1.00  0.00     0.094 C 
HETATM   12  C9  UNL     1      30.085   7.342  46.536  1.00  0.00     0.149 C 
HETATM   13  C10 UNL     1      29.268   7.227  47.861  1.00  0.00    -0.017 C 
HETATM   14  C11 UNL     1      29.491   5.973  48.354  1.00  0.00    -0.010 C 
HETATM   15  C12 UNL     1      30.374   4.937  47.758  1.00  0.00     0.081 C 
HETATM   16  C13 UNL     1      31.661   5.356  47.188  1.00  0.00     0.037 C 
HETATM   17 CL1  UNL     1      32.311   3.903  46.392  1.00  0.00    -0.087 Cl
HETATM   18  C14 UNL     1      32.540   6.393  47.046  1.00  0.00     0.022 C 
HETATM   19  C15 UNL     1      33.844   6.276  46.286  1.00  0.00     0.069 C 
HETATM   20  N3  UNL     1      32.639   7.782  47.491  1.00  0.00    -0.362 N 
HETATM   21  C16 UNL     1      33.661   8.082  48.471  1.00  0.00     0.152 C 
HETATM   22  O4  UNL     1      30.585   9.568  45.631  1.00  0.00    -0.351 OA
HETATM   23  H11 UNL     1      27.345   8.768  49.411  1.00  0.00     0.102 HD
HETATM   24  H13 UNL     1      29.362   9.038  50.734  1.00  0.00     0.166 HD
ENDROOT
BRANCH   6  25
HETATM   25  O3  UNL     1      27.472   6.927  49.303  1.00  0.00    -0.363 OA
HETATM   26  H12 UNL     1      27.662   6.143  48.787  1.00  0.00     0.216 HD
ENDBRANCH   6  25
BRANCH   1  27
HETATM   27  O1  UNL     1      30.576  11.456  44.375  1.00  0.00    -0.366 OA
HETATM   28  C1  UNL     1      30.287  12.327  45.438  1.00  0.00     0.204 C 
ENDBRANCH   1  27
TORSDOF 2
ENDMDL
MODEL 5
REMARK VINA RESULT:      -6.4      2.517      3.409
REMARK  2 active torsions:
REMARK  status: ('A' for Active; 'I' for Inactive)
REMARK    1  A    between atoms: O1_2  and  C2_3 
REMARK    2  A    between atoms: P1_8  and  O3_9 
ROOT
HETATM    1  C2  UNL     1      22.373   3.430  47.540  1.00  0.00     0.261 C 
HETATM    2  C3  UNL     1      22.284   2.551  48.746  1.00  0.00     0.087 C 
HETATM    3  C4  UNL     1      23.537   2.647  49.566  1.00  0.00     0.173 C 
HETATM    4  O2  UNL     1      23.729   3.861  50.056  1.00  0.00    -0.384 OA
HETATM    5  C5  UNL     1      22.880   4.392  51.021  1.00  0.00     0.239 C 
HETATM    6  P1  UNL     1      23.217   6.045  51.472  1.00  0.00     0.048 P 
HETATM    7  N1  UNL     1      22.100   7.251  51.032  1.00  0.00    -0.346 N 
HETATM    8  C6  UNL     1      21.424   7.587  49.828  1.00  0.00     0.203 C 
HETATM    9  N2  UNL     1      21.555   7.335  48.556  1.00  0.00    -0.256 NA
HETATM   10  C7  UNL     1      22.460   6.886  47.553  1.00  0.00     0.239 C 
HETATM   11  C8  UNL     1      23.333   5.716  48.078  1.00  0.00     0.094 C 
HETATM   12  C9  UNL     1      24.516   5.806  48.789  1.00  0.00     0.149 C 
HETATM   13  C10 UNL     1      24.326   6.347  50.241  1.00  0.00    -0.017 C 
HETATM   14  C11 UNL     1      25.342   7.229  50.469  1.00  0.00    -0.010 C 
HETATM   15  C12 UNL     1      26.400   7.625  49.501  1.00  0.00     0.081 C 
HETATM   16  C13 UNL     1      26.023   7.833  48.097  1.00  0.00     0.037 C 
HETATM   17 CL1  UNL     1      27.561   8.068  47.235  1.00  0.00    -0.087 Cl
HETATM   18  C14 UNL     1      24.981   7.929  47.219  1.00  0.00     0.022 C 
HETATM   19  C15 UNL     1      25.166   8.169  45.736  1.00  0.00     0.069 C 
HETATM   20  N3  UNL     1      23.520   7.895  47.281  1.00  0.00    -0.362 N 
HETATM   21  C16 UNL     1      22.827   9.139  47.023  1.00  0.00     0.152 C 
HETATM   22  O4  UNL     1      22.617   4.746  47.651  1.00  0.00    -0.351 OA
HETATM   23  H11 UNL     1      22.627   5.893  52.561  1.00  0.00     0.102 HD
HETATM   24  H13 UNL     1      21.745   7.991  51.717  1.00  0.00     0.166 HD
ENDROOT
BRANCH   6  25
HETATM   25  O3  UNL     1      24.389   6.451  52.560  1.00  0.00    -0.363 OA
HETATM   26  H12 UNL     1      24.060   7.046  53.234  1.00  0.00     0.216 HD
ENDBRANCH   6  25
BRANCH   1  27
HETATM   27  O1  UNL     1      21.201   3.226  46.741  1.00  0.00    -0.366 OA
HETATM   28  C1  UNL     1      21.447   3.806  45.487  1.00  0.00     0.204 C 
ENDBRANCH   1  27
TORSDOF 2
ENDMDL
MODEL 6
REMARK VINA RESULT:      -6.4      3.077      5.825
REMARK  2 active torsions:
REMARK  status: ('A' for Active; 'I' for Inactive)
REMARK    1  A    between atoms: O1_2  and  C2_3 
REMARK    2  A    between atoms: P1_8  and  O3_9 
ROOT
HETATM    1  C2  UNL     1      26.963   5.623  48.480  1.00  0.00     0.261 C 
HETATM    2  C3  UNL     1      27.191   7.083  48.704  1.00  0.00     0.087 C 
HETATM    3  C4  UNL     1      26.079   7.891  48.103  1.00  0.00     0.173 C 
HETATM    4  O2  UNL     1      24.911   7.649  48.675  1.00  0.00    -0.384 OA
HETATM    5  C5  UNL     1      24.663   8.015  49.994  1.00  0.00     0.239 C 
HETATM    6  P1  UNL     1      23.110   7.518  50.618  1.00  0.00     0.048 P 
HETATM    7  N1  UNL     1      23.065   6.319  51.825  1.00  0.00    -0.346 N 
HETATM    8  C6  UNL     1      23.675   5.044  51.982  1.00  0.00     0.203 C 
HETATM    9  N2  UNL     1      24.258   4.164  51.219  1.00  0.00    -0.256 NA
HETATM   10  C7  UNL     1      24.428   3.730  49.873  1.00  0.00     0.239 C 
HETATM   11  C8  UNL     1      24.558   4.942  48.913  1.00  0.00     0.094 C 
HETATM   12  C9  UNL     1      23.532   5.654  48.318  1.00  0.00     0.149 C 
HETATM   13  C10 UNL     1      22.708   6.512  49.328  1.00  0.00    -0.017 C 
HETATM   14  C11 UNL     1      21.394   6.365  48.991  1.00  0.00    -0.010 C 
HETATM   15  C12 UNL     1      20.855   5.515  47.896  1.00  0.00     0.081 C 
HETATM   16  C13 UNL     1      21.456   4.194  47.674  1.00  0.00     0.037 C 
HETATM   17 CL1  UNL     1      20.712   3.592  46.174  1.00  0.00    -0.087 Cl
HETATM   18  C14 UNL     1      22.329   3.263  48.162  1.00  0.00     0.022 C 
HETATM   19  C15 UNL     1      22.607   1.944  47.472  1.00  0.00     0.069 C 
HETATM   20  N3  UNL     1      23.186   3.110  49.337  1.00  0.00    -0.362 N 
HETATM   21  C16 UNL     1      22.797   2.103  50.302  1.00  0.00     0.152 C 
HETATM   22  O4  UNL     1      25.834   5.021  48.889  1.00  0.00    -0.351 OA
HETATM   23  H11 UNL     1      23.154   8.403  51.497  1.00  0.00     0.102 HD
HETATM   24  H13 UNL     1      22.484   6.414  52.717  1.00  0.00     0.166 HD
ENDROOT
BRANCH   6  25
HETATM   25  O3  UNL     1      21.722   8.361  50.329  1.00  0.00    -0.363 OA
HETATM   26  H12 UNL     1      21.901   9.248  50.015  1.00  0.00     0.216 HD
ENDBRANCH   6  25
BRANCH   1  27
HETATM   27  O1  UNL     1      28.097   4.903  48.979  1.00  0.00    -0.366 OA
HETATM   28  C1  UNL     1      29.228   5.388  48.303  1.00  0.00     0.204 C 
ENDBRANCH   1  27
TORSDOF 2
ENDMDL
MODEL 7
REMARK VINA RESULT:      -6.3      2.667      5.531
REMARK  2 active torsions:
REMARK  status: ('A' for Active; 'I' for Inactive)
REMARK    1  A    between atoms: O1_2  and  C2_3 
REMARK    2  A    between atoms: P1_8  and  O3_9 
ROOT
HETATM    1  C2  UNL     1      26.333   3.162  49.566  1.00  0.00     0.261 C 
HETATM    2  C3  UNL     1      27.167   4.403  49.551  1.00  0.00     0.087 C 
HETATM    3  C4  UNL     1      26.571   5.430  48.634  1.00  0.00     0.173 C 
HETATM    4  O2  UNL     1      25.379   5.839  49.037  1.00  0.00    -0.384 OA
HETATM    5  C5  UNL     1      25.226   6.578  50.205  1.00  0.00     0.239 C 
HETATM    6  P1  UNL     1      23.574   6.936  50.642  1.00  0.00     0.048 P 
HETATM    7  N1  UNL     1      22.919   6.192  52.025  1.00  0.00    -0.346 N 
HETATM    8  C6  UNL     1      22.891   4.857  52.515  1.00  0.00     0.203 C 
HETATM    9  N2  UNL     1      23.077   3.660  52.036  1.00  0.00    -0.256 NA
HETATM   10  C7  UNL     1      23.132   2.886  50.842  1.00  0.00     0.239 C 
HETATM   11  C8  UNL     1      23.851   3.666  49.710  1.00  0.00     0.094 C 
HETATM   12  C9  UNL     1      23.289   4.574  48.830  1.00  0.00     0.149 C 
HETATM   13  C10 UNL     1      22.861   5.911  49.511  1.00  0.00    -0.017 C 
HETATM   14  C11 UNL     1      21.644   6.246  48.992  1.00  0.00    -0.010 C 
HETATM   15  C12 UNL     1      20.864   5.461  47.999  1.00  0.00     0.081 C 
HETATM   16  C13 UNL     1      20.833   3.999  48.129  1.00  0.00     0.037 C 
HETATM   17 CL1  UNL     1      20.007   3.421  46.663  1.00  0.00    -0.087 Cl
HETATM   18  C14 UNL     1      21.168   2.937  48.920  1.00  0.00     0.022 C 
HETATM   19  C15 UNL     1      20.883   1.499  48.542  1.00  0.00     0.069 C 
HETATM   20  N3  UNL     1      21.784   2.729  50.229  1.00  0.00    -0.362 N 
HETATM   21  C16 UNL     1      20.925   2.237  51.285  1.00  0.00     0.152 C 
HETATM   22  O4  UNL     1      25.029   3.200  49.885  1.00  0.00    -0.351 OA
HETATM   23  H11 UNL     1      23.943   7.905  51.336  1.00  0.00     0.102 HD
HETATM   24  H13 UNL     1      22.379   6.730  52.774  1.00  0.00     0.166 HD
ENDROOT
BRANCH   6  25
HETATM   25  O3  UNL     1      22.725   8.183  49.973  1.00  0.00    -0.363 OA
HETATM   26  H12 UNL     1      21.986   8.447  50.522  1.00  0.00     0.216 HD
ENDBRANCH   6  25
BRANCH   1  27
HETATM   27  O1  UNL     1      26.995   2.180  50.373  1.00  0.00    -0.366 OA
HETATM   28  C1  UNL     1      26.724   2.492  51.714  1.00  0.00     0.204 C 
ENDBRANCH   1  27
TORSDOF 2
ENDMDL
MODEL 8
REMARK VINA RESULT:      -6.2      2.324      3.295
REMARK  2 active torsions:
REMARK  status: ('A' for Active; 'I' for Inactive)
REMARK    1  A    between atoms: O1_2  and  C2_3 
REMARK    2  A    between atoms: P1_8  and  O3_9 
ROOT
HETATM    1  C2  UNL     1      22.144   6.207  46.002  1.00  0.00     0.261 C 
HETATM    2  C3  UNL     1      20.699   5.839  46.117  1.00  0.00     0.087 C 
HETATM    3  C4  UNL     1      20.539   4.543  46.857  1.00  0.00     0.173 C 
HETATM    4  O2  UNL     1      20.960   4.621  48.109  1.00  0.00    -0.384 OA
HETATM    5  C5  UNL     1      20.298   5.408  49.045  1.00  0.00     0.239 C 
HETATM    6  P1  UNL     1      21.055   5.478  50.618  1.00  0.00     0.048 P 
HETATM    7  N1  UNL     1      21.753   6.947  51.118  1.00  0.00    -0.346 N 
HETATM    8  C6  UNL     1      22.634   7.885  50.514  1.00  0.00     0.203 C 
HETATM    9  N2  UNL     1      23.466   7.906  49.512  1.00  0.00    -0.256 NA
HETATM   10  C7  UNL     1      24.222   7.095  48.618  1.00  0.00     0.239 C 
HETATM   11  C8  UNL     1      23.407   5.852  48.174  1.00  0.00     0.094 C 
HETATM   12  C9  UNL     1      23.303   4.639  48.831  1.00  0.00     0.149 C 
HETATM   13  C10 UNL     1      22.491   4.725  50.162  1.00  0.00    -0.017 C 
HETATM   14  C11 UNL     1      23.164   3.975  51.083  1.00  0.00    -0.010 C 
HETATM   15  C12 UNL     1      24.445   3.252  50.864  1.00  0.00     0.081 C 
HETATM   16  C13 UNL     1      25.491   3.905  50.066  1.00  0.00     0.037 C 
HETATM   17 CL1  UNL     1      26.748   2.665  49.847  1.00  0.00    -0.087 Cl
HETATM   18  C14 UNL     1      25.875   5.065  49.455  1.00  0.00     0.022 C 
HETATM   19  C15 UNL     1      27.173   5.210  48.691  1.00  0.00     0.069 C 
HETATM   20  N3  UNL     1      25.354   6.424  49.314  1.00  0.00    -0.362 N 
HETATM   21  C16 UNL     1      26.072   7.473  50.006  1.00  0.00     0.152 C 
HETATM   22  O4  UNL     1      22.922   6.328  47.090  1.00  0.00    -0.351 OA
HETATM   23  H11 UNL     1      19.975   5.808  51.149  1.00  0.00     0.102 HD
HETATM   24  H13 UNL     1      21.577   7.375  52.082  1.00  0.00     0.166 HD
ENDROOT
BRANCH   6  25
HETATM   25  O3  UNL     1      20.857   4.301  51.756  1.00  0.00    -0.363 OA
HETATM   26  H12 UNL     1      21.123   3.440  51.431  1.00  0.00     0.216 HD
ENDBRANCH   6  25
BRANCH   1  27
HETATM   27  O1  UNL     1      22.250   7.391  45.203  1.00  0.00    -0.366 OA
HETATM   28  C1  UNL     1      23.519   7.377  44.604  1.00  0.00     0.204 C 
ENDBRANCH   1  27
TORSDOF 2
ENDMDL
MODEL 9
REMARK VINA RESULT:      -6.0     24.003     26.134
REMARK  2 active torsions:
REMARK  status: ('A' for Active; 'I' for Inactive)
REMARK    1  A    between atoms: O1_2  and  C2_3 
REMARK    2  A    between atoms: P1_8  and  O3_9 
ROOT
HETATM    1  C2  UNL     1      37.600   0.316  70.688  1.00  0.00     0.261 C 
HETATM    2  C3  UNL     1      38.379   1.525  70.280  1.00  0.00     0.087 C 
HETATM    3  C4  UNL     1      39.853   1.267  70.387  1.00  0.00     0.173 C 
HETATM    4  O2  UNL     1      40.262   0.318  69.560  1.00  0.00    -0.384 OA
HETATM    5  C5  UNL     1      40.244   0.504  68.182  1.00  0.00     0.239 C 
HETATM    6  P1  UNL     1      40.713  -0.891  67.242  1.00  0.00     0.048 P 
HETATM    7  N1  UNL     1      39.528  -1.676  66.307  1.00  0.00    -0.346 N 
HETATM    8  C6  UNL     1      38.206  -2.135  66.559  1.00  0.00     0.203 C 
HETATM    9  N2  UNL     1      37.471  -2.406  67.601  1.00  0.00    -0.256 NA
HETATM   10  C7  UNL     1      37.501  -2.697  68.995  1.00  0.00     0.239 C 
HETATM   11  C8  UNL     1      38.560  -1.824  69.719  1.00  0.00     0.094 C 
HETATM   12  C9  UNL     1      39.910  -2.089  69.862  1.00  0.00     0.149 C 
HETATM   13  C10 UNL     1      40.706  -1.984  68.524  1.00  0.00    -0.017 C 
HETATM   14  C11 UNL     1      41.571  -3.040  68.496  1.00  0.00    -0.010 C 
HETATM   15  C12 UNL     1      41.696  -4.103  69.527  1.00  0.00     0.081 C 
HETATM   16  C13 UNL     1      40.472  -4.631  70.142  1.00  0.00     0.037 C 
HETATM   17 CL1  UNL     1      41.033  -5.696  71.452  1.00  0.00    -0.087 Cl
HETATM   18  C14 UNL     1      39.106  -4.636  70.096  1.00  0.00     0.022 C 
HETATM   19  C15 UNL     1      38.247  -5.425  71.061  1.00  0.00     0.069 C 
HETATM   20  N3  UNL     1      38.061  -4.050  69.259  1.00  0.00    -0.362 N 
HETATM   21  C16 UNL     1      37.310  -4.960  68.420  1.00  0.00     0.152 C 
HETATM   22  O4  UNL     1      37.790  -0.871  70.090  1.00  0.00    -0.351 OA
HETATM   23  H11 UNL     1      41.004  -0.167  66.269  1.00  0.00     0.102 HD
HETATM   24  H13 UNL     1      39.681  -1.948  65.285  1.00  0.00     0.166 HD
ENDROOT
BRANCH   6  25
HETATM   25  O3  UNL     1      42.289  -1.295  66.971  1.00  0.00    -0.363 OA
HETATM   26  H12 UNL     1      42.391  -2.228  66.781  1.00  0.00     0.216 HD
ENDBRANCH   6  25
BRANCH   1  27
HETATM   27  O1  UNL     1      36.206   0.645  70.667  1.00  0.00    -0.366 OA
HETATM   28  C1  UNL     1      35.542  -0.306  71.458  1.00  0.00     0.204 C 
ENDBRANCH   1  27
TORSDOF 2
ENDMDL
