MODEL 1
REMARK VINA RESULT:      -8.2      0.000      0.000
REMARK  6 active torsions:
REMARK  status: ('A' for Active; 'I' for Inactive)
REMARK    1  A    between atoms: N1_2  and  C3_4 
REMARK    2  A    between atoms: C6_7  and  C7_8 
REMARK    3  A    between atoms: C9_10  and  C10_11 
REMARK    4  A    between atoms: C13_14  and  O1_15 
REMARK    5  A    between atoms: O1_15  and  C14_16 
REMARK    6  A    between atoms: N3_22  and  C18_23 
ROOT
HETATM    1  C7  UNL     1      25.445   1.322  53.718  1.00  0.00     0.149 C 
HETATM    2  C8  UNL     1      24.009   1.284  54.192  1.00  0.00     0.094 C 
HETATM    3  C9  UNL     1      23.461   0.141  53.449  1.00  0.00     0.067 C 
HETATM    4  N2  UNL     1      24.420  -0.583  52.977  1.00  0.00    -0.175 NA
HETATM    5  N3  UNL     1      25.657  -0.055  53.316  1.00  0.00    -0.260 N 
ENDROOT
BRANCH   3   6
HETATM    6  C10 UNL     1      22.057  -0.186  53.241  1.00  0.00    -0.010 A 
HETATM    7  C11 UNL     1      21.408  -1.086  54.059  1.00  0.00     0.016 A 
HETATM    8  C12 UNL     1      20.057  -1.377  53.828  1.00  0.00     0.038 A 
HETATM    9  C13 UNL     1      19.376  -0.756  52.774  1.00  0.00     0.072 A 
HETATM   10  C16 UNL     1      20.043   0.142  51.967  1.00  0.00     0.038 A 
HETATM   11  C17 UNL     1      21.373   0.413  52.213  1.00  0.00     0.016 A 
BRANCH   9  12
HETATM   12  O1  UNL     1      18.060  -1.197  52.743  1.00  0.00    -0.318 OA
BRANCH  12  13
HETATM   13  C14 UNL     1      16.979  -0.457  52.219  1.00  0.00     0.290 A 
HETATM   14  C15 UNL     1      15.657  -1.089  52.023  1.00  0.00     0.232 A 
HETATM   15  O2  UNL     1      15.897  -0.194  53.121  1.00  0.00    -0.354 OA
ENDBRANCH  12  13
ENDBRANCH   9  12
ENDBRANCH   3   6
BRANCH   1  16
HETATM   16  C6  UNL     1      25.592   2.205  52.543  1.00  0.00    -0.033 A 
HETATM   17  C5  UNL     1      26.723   2.135  51.760  1.00  0.00     0.011 A 
HETATM   18  C4  UNL     1      26.765   3.013  50.671  1.00  0.00     0.030 A 
HETATM   19  C3  UNL     1      25.739   3.912  50.376  1.00  0.00     0.029 A 
HETATM   20  C25 UNL     1      24.636   3.941  51.186  1.00  0.00     0.030 A 
HETATM   21  C24 UNL     1      24.556   3.092  52.271  1.00  0.00     0.011 A 
BRANCH  19  22
HETATM   22  N1  UNL     1      25.847   4.779  49.251  1.00  0.00    -0.390 N 
HETATM   23  C1  UNL     1      27.172   4.997  48.654  1.00  0.00     0.149 C 
HETATM   24  C2  UNL     1      24.685   5.430  48.711  1.00  0.00     0.149 C 
ENDBRANCH  19  22
ENDBRANCH   1  16
BRANCH   5  25
HETATM   25  C18 UNL     1      26.935  -0.730  53.285  1.00  0.00     0.053 A 
HETATM   26  C19 UNL     1      28.046  -0.130  53.841  1.00  0.00     0.031 A 
HETATM   27  C20 UNL     1      29.239  -0.804  53.789  1.00  0.00     0.002 A 
HETATM   28  C21 UNL     1      29.313  -2.049  53.193  1.00  0.00     0.000 A 
HETATM   29  C22 UNL     1      28.200  -2.650  52.634  1.00  0.00     0.002 A 
HETATM   30  C23 UNL     1      26.995  -1.976  52.684  1.00  0.00     0.031 A 
ENDBRANCH   5  25
TORSDOF 6
ENDMDL
MODEL 2
REMARK VINA RESULT:      -8.2      3.805      8.501
REMARK  6 active torsions:
REMARK  status: ('A' for Active; 'I' for Inactive)
REMARK    1  A    between atoms: N1_2  and  C3_4 
REMARK    2  A    between atoms: C6_7  and  C7_8 
REMARK    3  A    between atoms: C9_10  and  C10_11 
REMARK    4  A    between atoms: C13_14  and  O1_15 
REMARK    5  A    between atoms: O1_15  and  C14_16 
REMARK    6  A    between atoms: N3_22  and  C18_23 
ROOT
HETATM    1  C7  UNL     1      21.576   3.308  51.093  1.00  0.00     0.149 C 
HETATM    2  C8  UNL     1      22.565   3.004  52.196  1.00  0.00     0.094 C 
HETATM    3  C9  UNL     1      23.520   2.110  51.526  1.00  0.00     0.067 C 
HETATM    4  N2  UNL     1      23.382   2.193  50.245  1.00  0.00    -0.175 NA
HETATM    5  N3  UNL     1      22.382   3.093  49.908  1.00  0.00    -0.260 N 
ENDROOT
BRANCH   3   6
HETATM    6  C10 UNL     1      24.502   1.237  52.154  1.00  0.00    -0.010 A 
HETATM    7  C11 UNL     1      25.827   1.266  51.773  1.00  0.00     0.016 A 
HETATM    8  C12 UNL     1      26.743   0.411  52.398  1.00  0.00     0.038 A 
HETATM    9  C13 UNL     1      26.313  -0.466  53.401  1.00  0.00     0.072 A 
HETATM   10  C16 UNL     1      24.983  -0.481  53.768  1.00  0.00     0.038 A 
HETATM   11  C17 UNL     1      24.099   0.371  53.139  1.00  0.00     0.016 A 
BRANCH   9  12
HETATM   12  O1  UNL     1      27.389  -1.206  53.869  1.00  0.00    -0.318 OA
BRANCH  12  13
HETATM   13  C14 UNL     1      28.572  -1.449  53.139  1.00  0.00     0.290 A 
HETATM   14  C15 UNL     1      29.897  -1.297  53.777  1.00  0.00     0.232 A 
HETATM   15  O2  UNL     1      29.335  -2.596  53.534  1.00  0.00    -0.354 OA
ENDBRANCH  12  13
ENDBRANCH   9  12
ENDBRANCH   3   6
BRANCH   1  16
HETATM   16  C6  UNL     1      20.455   2.345  51.107  1.00  0.00    -0.033 A 
HETATM   17  C5  UNL     1      19.544   2.326  50.074  1.00  0.00     0.011 A 
HETATM   18  C4  UNL     1      18.522   1.377  50.181  1.00  0.00     0.030 A 
HETATM   19  C3  UNL     1      18.410   0.494  51.257  1.00  0.00     0.029 A 
HETATM   20  C25 UNL     1      19.342   0.554  52.257  1.00  0.00     0.030 A 
HETATM   21  C24 UNL     1      20.366   1.476  52.190  1.00  0.00     0.011 A 
BRANCH  19  22
HETATM   22  N1  UNL     1      17.342  -0.448  51.303  1.00  0.00    -0.390 N 
HETATM   23  C1  UNL     1      17.198  -1.291  52.498  1.00  0.00     0.149 C 
HETATM   24  C2  UNL     1      16.427  -0.574  50.204  1.00  0.00     0.149 C 
ENDBRANCH  19  22
ENDBRANCH   1  16
BRANCH   5  25
HETATM   25  C18 UNL     1      22.162   3.716  48.622  1.00  0.00     0.053 A 
HETATM   26  C19 UNL     1      21.944   5.076  48.542  1.00  0.00     0.031 A 
HETATM   27  C20 UNL     1      21.739   5.626  47.303  1.00  0.00     0.002 A 
HETATM   28  C21 UNL     1      21.753   4.830  46.174  1.00  0.00     0.000 A 
HETATM   29  C22 UNL     1      21.970   3.466  46.253  1.00  0.00     0.002 A 
HETATM   30  C23 UNL     1      22.178   2.906  47.499  1.00  0.00     0.031 A 
ENDBRANCH   5  25
TORSDOF 6
ENDMDL
MODEL 3
REMARK VINA RESULT:      -8.1      3.302      6.505
REMARK  6 active torsions:
REMARK  status: ('A' for Active; 'I' for Inactive)
REMARK    1  A    between atoms: N1_2  and  C3_4 
REMARK    2  A    between atoms: C6_7  and  C7_8 
REMARK    3  A    between atoms: C9_10  and  C10_11 
REMARK    4  A    between atoms: C13_14  and  O1_15 
REMARK    5  A    between atoms: O1_15  and  C14_16 
REMARK    6  A    between atoms: N3_22  and  C18_23 
ROOT
HETATM    1  C7  UNL     1      24.468   5.965  49.672  1.00  0.00     0.149 C 
HETATM    2  C8  UNL     1      23.909   5.253  50.883  1.00  0.00     0.094 C 
HETATM    3  C9  UNL     1      24.610   3.962  50.842  1.00  0.00     0.067 C 
HETATM    4  N2  UNL     1      25.634   4.037  50.060  1.00  0.00    -0.175 NA
HETATM    5  N3  UNL     1      25.749   5.305  49.508  1.00  0.00    -0.260 N 
ENDROOT
BRANCH   3   6
HETATM    6  C10 UNL     1      24.255   2.742  51.554  1.00  0.00    -0.010 A 
HETATM    7  C11 UNL     1      23.060   2.099  51.312  1.00  0.00     0.016 A 
HETATM    8  C12 UNL     1      22.752   0.929  52.017  1.00  0.00     0.038 A 
HETATM    9  C13 UNL     1      23.653   0.419  52.960  1.00  0.00     0.072 A 
HETATM   10  C16 UNL     1      24.844   1.077  53.188  1.00  0.00     0.038 A 
HETATM   11  C17 UNL     1      25.126   2.228  52.482  1.00  0.00     0.016 A 
BRANCH   9  12
HETATM   12  O1  UNL     1      23.136  -0.738  53.525  1.00  0.00    -0.318 OA
BRANCH  12  13
HETATM   13  C14 UNL     1      22.119  -0.767  54.503  1.00  0.00     0.290 A 
HETATM   14  C15 UNL     1      20.914  -1.602  54.314  1.00  0.00     0.232 A 
HETATM   15  O2  UNL     1      21.960  -2.001  55.212  1.00  0.00    -0.354 OA
ENDBRANCH  12  13
ENDBRANCH   9  12
ENDBRANCH   3   6
BRANCH   1  16
HETATM   16  C6  UNL     1      23.632   5.718  48.479  1.00  0.00    -0.033 A 
HETATM   17  C5  UNL     1      23.000   4.505  48.314  1.00  0.00     0.011 A 
HETATM   18  C4  UNL     1      22.232   4.372  47.152  1.00  0.00     0.030 A 
HETATM   19  C3  UNL     1      22.098   5.389  46.205  1.00  0.00     0.029 A 
HETATM   20  C25 UNL     1      22.747   6.575  46.417  1.00  0.00     0.030 A 
HETATM   21  C24 UNL     1      23.515   6.747  47.550  1.00  0.00     0.011 A 
BRANCH  19  22
HETATM   22  N1  UNL     1      21.300   5.186  45.043  1.00  0.00    -0.390 N 
HETATM   23  C1  UNL     1      20.937   6.351  44.224  1.00  0.00     0.149 C 
HETATM   24  C2  UNL     1      20.855   3.869  44.679  1.00  0.00     0.149 C 
ENDBRANCH  19  22
ENDBRANCH   1  16
BRANCH   5  25
HETATM   25  C18 UNL     1      26.915   5.884  48.881  1.00  0.00     0.053 A 
HETATM   26  C19 UNL     1      26.943   7.232  48.588  1.00  0.00     0.031 A 
HETATM   27  C20 UNL     1      28.068   7.741  47.993  1.00  0.00     0.002 A 
HETATM   28  C21 UNL     1      29.138   6.916  47.698  1.00  0.00     0.000 A 
HETATM   29  C22 UNL     1      29.109   5.563  47.989  1.00  0.00     0.002 A 
HETATM   30  C23 UNL     1      27.978   5.045  48.590  1.00  0.00     0.031 A 
ENDBRANCH   5  25
TORSDOF 6
ENDMDL
MODEL 4
REMARK VINA RESULT:      -8.1      4.433      8.844
REMARK  6 active torsions:
REMARK  status: ('A' for Active; 'I' for Inactive)
REMARK    1  A    between atoms: N1_2  and  C3_4 
REMARK    2  A    between atoms: C6_7  and  C7_8 
REMARK    3  A    between atoms: C9_10  and  C10_11 
REMARK    4  A    between atoms: C13_14  and  O1_15 
REMARK    5  A    between atoms: O1_15  and  C14_16 
REMARK    6  A    between atoms: N3_22  and  C18_23 
ROOT
HETATM    1  C7  UNL     1      23.190   3.137  52.837  1.00  0.00     0.149 C 
HETATM    2  C8  UNL     1      23.816   4.510  52.737  1.00  0.00     0.094 C 
HETATM    3  C9  UNL     1      23.951   4.692  51.286  1.00  0.00     0.067 C 
HETATM    4  N2  UNL     1      23.212   3.837  50.661  1.00  0.00    -0.175 NA
HETATM    5  N3  UNL     1      22.530   3.022  51.551  1.00  0.00    -0.260 N 
ENDROOT
BRANCH   3   6
HETATM    6  C10 UNL     1      24.776   5.671  50.591  1.00  0.00    -0.010 A 
HETATM    7  C11 UNL     1      24.687   7.014  50.888  1.00  0.00     0.016 A 
HETATM    8  C12 UNL     1      25.495   7.927  50.198  1.00  0.00     0.038 A 
HETATM    9  C13 UNL     1      26.384   7.475  49.215  1.00  0.00     0.072 A 
HETATM   10  C16 UNL     1      26.458   6.127  48.932  1.00  0.00     0.038 A 
HETATM   11  C17 UNL     1      25.653   5.246  49.624  1.00  0.00     0.016 A 
BRANCH   9  12
HETATM   12  O1  UNL     1      27.072   8.552  48.675  1.00  0.00    -0.318 OA
BRANCH  12  13
HETATM   13  C14 UNL     1      27.842   9.468  49.423  1.00  0.00     0.290 A 
HETATM   14  C15 UNL     1      28.611  10.535  48.749  1.00  0.00     0.232 A 
HETATM   15  O2  UNL     1      27.380  10.825  49.429  1.00  0.00    -0.354 OA
ENDBRANCH  12  13
ENDBRANCH   9  12
ENDBRANCH   3   6
BRANCH   1  16
HETATM   16  C6  UNL     1      24.227   2.089  52.952  1.00  0.00    -0.033 A 
HETATM   17  C5  UNL     1      23.909   0.770  52.717  1.00  0.00     0.011 A 
HETATM   18  C4  UNL     1      24.961  -0.143  52.852  1.00  0.00     0.030 A 
HETATM   19  C3  UNL     1      26.258   0.235  53.201  1.00  0.00     0.029 A 
HETATM   20  C25 UNL     1      26.522   1.559  53.424  1.00  0.00     0.030 A 
HETATM   21  C24 UNL     1      25.512   2.492  53.302  1.00  0.00     0.011 A 
BRANCH  19  22
HETATM   22  N1  UNL     1      27.283  -0.748  53.322  1.00  0.00    -0.390 N 
HETATM   23  C1  UNL     1      28.495  -0.412  54.082  1.00  0.00     0.149 C 
HETATM   24  C2  UNL     1      27.136  -2.040  52.712  1.00  0.00     0.149 C 
ENDBRANCH  19  22
ENDBRANCH   1  16
BRANCH   5  25
HETATM   25  C18 UNL     1      21.373   2.200  51.276  1.00  0.00     0.053 A 
HETATM   26  C19 UNL     1      20.429   1.985  52.260  1.00  0.00     0.031 A 
HETATM   27  C20 UNL     1      19.347   1.199  51.958  1.00  0.00     0.002 A 
HETATM   28  C21 UNL     1      19.217   0.644  50.699  1.00  0.00     0.000 A 
HETATM   29  C22 UNL     1      20.164   0.858  49.712  1.00  0.00     0.002 A 
HETATM   30  C23 UNL     1      21.255   1.649  50.011  1.00  0.00     0.031 A 
ENDBRANCH   5  25
TORSDOF 6
ENDMDL
MODEL 5
REMARK VINA RESULT:      -7.9      4.824      9.646
REMARK  6 active torsions:
REMARK  status: ('A' for Active; 'I' for Inactive)
REMARK    1  A    between atoms: N1_2  and  C3_4 
REMARK    2  A    between atoms: C6_7  and  C7_8 
REMARK    3  A    between atoms: C9_10  and  C10_11 
REMARK    4  A    between atoms: C13_14  and  O1_15 
REMARK    5  A    between atoms: O1_15  and  C14_16 
REMARK    6  A    between atoms: N3_22  and  C18_23 
ROOT
HETATM    1  C7  UNL     1      24.058   3.796  51.353  1.00  0.00     0.149 C 
HETATM    2  C8  UNL     1      24.915   5.020  51.117  1.00  0.00     0.094 C 
HETATM    3  C9  UNL     1      25.179   4.947  49.674  1.00  0.00     0.067 C 
HETATM    4  N2  UNL     1      24.350   4.134  49.111  1.00  0.00    -0.175 NA
HETATM    5  N3  UNL     1      23.477   3.587  50.041  1.00  0.00    -0.260 N 
ENDROOT
BRANCH   3   6
HETATM    6  C10 UNL     1      26.204   5.662  48.927  1.00  0.00    -0.010 A 
HETATM    7  C11 UNL     1      25.932   6.871  48.322  1.00  0.00     0.016 A 
HETATM    8  C12 UNL     1      26.943   7.529  47.611  1.00  0.00     0.038 A 
HETATM    9  C13 UNL     1      28.219   6.960  47.516  1.00  0.00     0.072 A 
HETATM   10  C16 UNL     1      28.472   5.750  48.128  1.00  0.00     0.038 A 
HETATM   11  C17 UNL     1      27.461   5.120  48.823  1.00  0.00     0.016 A 
BRANCH   9  12
HETATM   12  O1  UNL     1      29.046   7.787  46.769  1.00  0.00    -0.318 OA
BRANCH  12  13
HETATM   13  C14 UNL     1      30.448   7.858  46.912  1.00  0.00     0.290 A 
HETATM   14  C15 UNL     1      31.181   9.092  46.558  1.00  0.00     0.232 A 
HETATM   15  O2  UNL     1      30.935   8.743  47.929  1.00  0.00    -0.354 OA
ENDBRANCH  12  13
ENDBRANCH   9  12
ENDBRANCH   3   6
BRANCH   1  16
HETATM   16  C6  UNL     1      24.889   2.628  51.714  1.00  0.00    -0.033 A 
HETATM   17  C5  UNL     1      26.222   2.592  51.368  1.00  0.00     0.011 A 
HETATM   18  C4  UNL     1      26.920   1.444  51.757  1.00  0.00     0.030 A 
HETATM   19  C3  UNL     1      26.327   0.389  52.452  1.00  0.00     0.029 A 
HETATM   20  C25 UNL     1      25.000   0.475  52.772  1.00  0.00     0.030 A 
HETATM   21  C24 UNL     1      24.274   1.590  52.407  1.00  0.00     0.011 A 
BRANCH  19  22
HETATM   22  N1  UNL     1      27.098  -0.753  52.817  1.00  0.00    -0.390 N 
HETATM   23  C1  UNL     1      28.325  -0.553  53.601  1.00  0.00     0.149 C 
HETATM   24  C2  UNL     1      26.688  -2.072  52.424  1.00  0.00     0.149 C 
ENDBRANCH  19  22
ENDBRANCH   1  16
BRANCH   5  25
HETATM   25  C18 UNL     1      22.219   2.926  49.779  1.00  0.00     0.053 A 
HETATM   26  C19 UNL     1      22.205   1.624  49.321  1.00  0.00     0.031 A 
HETATM   27  C20 UNL     1      20.990   1.035  49.085  1.00  0.00     0.002 A 
HETATM   28  C21 UNL     1      19.819   1.737  49.302  1.00  0.00     0.000 A 
HETATM   29  C22 UNL     1      19.832   3.043  49.759  1.00  0.00     0.002 A 
HETATM   30  C23 UNL     1      21.053   3.641  50.000  1.00  0.00     0.031 A 
ENDBRANCH   5  25
TORSDOF 6
ENDMDL
MODEL 6
REMARK VINA RESULT:      -7.8      4.766      9.724
REMARK  6 active torsions:
REMARK  status: ('A' for Active; 'I' for Inactive)
REMARK    1  A    between atoms: N1_2  and  C3_4 
REMARK    2  A    between atoms: C6_7  and  C7_8 
REMARK    3  A    between atoms: C9_10  and  C10_11 
REMARK    4  A    between atoms: C13_14  and  O1_15 
REMARK    5  A    between atoms: O1_15  and  C14_16 
REMARK    6  A    between atoms: N3_22  and  C18_23 
ROOT
HETATM    1  C7  UNL     1      22.700   4.626  50.987  1.00  0.00     0.149 C 
HETATM    2  C8  UNL     1      23.901   5.541  50.894  1.00  0.00     0.094 C 
HETATM    3  C9  UNL     1      24.495   5.151  49.607  1.00  0.00     0.067 C 
HETATM    4  N2  UNL     1      23.642   4.479  48.909  1.00  0.00    -0.175 NA
HETATM    5  N3  UNL     1      22.441   4.336  49.590  1.00  0.00    -0.260 N 
ENDROOT
BRANCH   3   6
HETATM    6  C10 UNL     1      25.838   5.448  49.129  1.00  0.00    -0.010 A 
HETATM    7  C11 UNL     1      26.798   4.462  49.046  1.00  0.00     0.016 A 
HETATM    8  C12 UNL     1      28.079   4.784  48.582  1.00  0.00     0.038 A 
HETATM    9  C13 UNL     1      28.380   6.100  48.208  1.00  0.00     0.072 A 
HETATM   10  C16 UNL     1      27.406   7.072  48.298  1.00  0.00     0.038 A 
HETATM   11  C17 UNL     1      26.151   6.731  48.757  1.00  0.00     0.016 A 
BRANCH   9  12
HETATM   12  O1  UNL     1      29.699   6.176  47.785  1.00  0.00    -0.318 OA
BRANCH  12  13
HETATM   13  C14 UNL     1      30.619   5.107  47.831  1.00  0.00     0.290 A 
HETATM   14  C15 UNL     1      32.063   5.344  47.622  1.00  0.00     0.232 A 
HETATM   15  O2  UNL     1      31.533   5.107  48.935  1.00  0.00    -0.354 OA
ENDBRANCH  12  13
ENDBRANCH   9  12
ENDBRANCH   3   6
BRANCH   1  16
HETATM   16  C6  UNL     1      23.041   3.373  51.694  1.00  0.00    -0.033 A 
HETATM   17  C5  UNL     1      22.192   2.291  51.635  1.00  0.00     0.011 A 
HETATM   18  C4  UNL     1      22.607   1.154  52.338  1.00  0.00     0.030 A 
HETATM   19  C3  UNL     1      23.801   1.096  53.058  1.00  0.00     0.029 A 
HETATM   20  C25 UNL     1      24.609   2.200  53.084  1.00  0.00     0.030 A 
HETATM   21  C24 UNL     1      24.236   3.342  52.405  1.00  0.00     0.011 A 
BRANCH  19  22
HETATM   22  N1  UNL     1      24.163  -0.095  53.752  1.00  0.00    -0.390 N 
HETATM   23  C1  UNL     1      25.589  -0.407  53.921  1.00  0.00     0.149 C 
HETATM   24  C2  UNL     1      23.155  -0.976  54.273  1.00  0.00     0.149 C 
ENDBRANCH  19  22
ENDBRANCH   1  16
BRANCH   5  25
HETATM   25  C18 UNL     1      21.158   3.969  49.035  1.00  0.00     0.053 A 
HETATM   26  C19 UNL     1      19.996   4.357  49.669  1.00  0.00     0.031 A 
HETATM   27  C20 UNL     1      18.800   3.988  49.110  1.00  0.00     0.002 A 
HETATM   28  C21 UNL     1      18.773   3.247  47.943  1.00  0.00     0.000 A 
HETATM   29  C22 UNL     1      19.939   2.856  47.308  1.00  0.00     0.002 A 
HETATM   30  C23 UNL     1      21.147   3.226  47.867  1.00  0.00     0.031 A 
ENDBRANCH   5  25
TORSDOF 6
ENDMDL
MODEL 7
REMARK VINA RESULT:      -7.8      3.788      7.812
REMARK  6 active torsions:
REMARK  status: ('A' for Active; 'I' for Inactive)
REMARK    1  A    between atoms: N1_2  and  C3_4 
REMARK    2  A    between atoms: C6_7  and  C7_8 
REMARK    3  A    between atoms: C9_10  and  C10_11 
REMARK    4  A    between atoms: C13_14  and  O1_15 
REMARK    5  A    between atoms: O1_15  and  C14_16 
REMARK    6  A    between atoms: N3_22  and  C18_23 
ROOT
HETATM    1  C7  UNL     1      23.109   4.862  52.017  1.00  0.00     0.149 C 
HETATM    2  C8  UNL     1      23.627   3.833  52.999  1.00  0.00     0.094 C 
HETATM    3  C9  UNL     1      24.562   3.054  52.175  1.00  0.00     0.067 C 
HETATM    4  N2  UNL     1      24.853   3.703  51.098  1.00  0.00    -0.175 NA
HETATM    5  N3  UNL     1      24.194   4.924  51.057  1.00  0.00    -0.260 N 
ENDROOT
BRANCH   3   6
HETATM    6  C10 UNL     1      25.118   1.741  52.473  1.00  0.00    -0.010 A 
HETATM    7  C11 UNL     1      26.362   1.373  52.008  1.00  0.00     0.016 A 
HETATM    8  C12 UNL     1      26.864   0.102  52.313  1.00  0.00     0.038 A 
HETATM    9  C13 UNL     1      26.104  -0.786  53.085  1.00  0.00     0.072 A 
HETATM   10  C16 UNL     1      24.861  -0.399  53.542  1.00  0.00     0.038 A 
HETATM   11  C17 UNL     1      24.388   0.858  53.229  1.00  0.00     0.016 A 
BRANCH   9  12
HETATM   12  O1  UNL     1      26.802  -1.973  53.256  1.00  0.00    -0.318 OA
BRANCH  12  13
HETATM   13  C14 UNL     1      28.087  -2.230  52.732  1.00  0.00     0.290 A 
HETATM   14  C15 UNL     1      29.299  -1.836  53.482  1.00  0.00     0.232 A 
HETATM   15  O2  UNL     1      28.870  -3.206  53.431  1.00  0.00    -0.354 OA
ENDBRANCH  12  13
ENDBRANCH   9  12
ENDBRANCH   3   6
BRANCH   1  16
HETATM   16  C6  UNL     1      21.884   4.382  51.344  1.00  0.00    -0.033 A 
HETATM   17  C5  UNL     1      20.914   3.716  52.060  1.00  0.00     0.011 A 
HETATM   18  C4  UNL     1      19.794   3.304  51.330  1.00  0.00     0.030 A 
HETATM   19  C3  UNL     1      19.646   3.541  49.962  1.00  0.00     0.029 A 
HETATM   20  C25 UNL     1      20.639   4.206  49.297  1.00  0.00     0.030 A 
HETATM   21  C24 UNL     1      21.760   4.630  49.980  1.00  0.00     0.011 A 
BRANCH  19  22
HETATM   22  N1  UNL     1      18.478   3.092  49.280  1.00  0.00    -0.390 N 
HETATM   23  C1  UNL     1      17.846   1.838  49.715  1.00  0.00     0.149 C 
HETATM   24  C2  UNL     1      17.930   3.848  48.189  1.00  0.00     0.149 C 
ENDBRANCH  19  22
ENDBRANCH   1  16
BRANCH   5  25
HETATM   25  C18 UNL     1      24.510   6.061  50.223  1.00  0.00     0.053 A 
HETATM   26  C19 UNL     1      24.173   7.334  50.637  1.00  0.00     0.031 A 
HETATM   27  C20 UNL     1      24.490   8.385  49.815  1.00  0.00     0.002 A 
HETATM   28  C21 UNL     1      25.128   8.163  48.610  1.00  0.00     0.000 A 
HETATM   29  C22 UNL     1      25.464   6.886  48.194  1.00  0.00     0.002 A 
HETATM   30  C23 UNL     1      25.149   5.824  49.018  1.00  0.00     0.031 A 
ENDBRANCH   5  25
TORSDOF 6
ENDMDL
MODEL 8
REMARK VINA RESULT:      -7.6      4.513      8.348
REMARK  6 active torsions:
REMARK  status: ('A' for Active; 'I' for Inactive)
REMARK    1  A    between atoms: N1_2  and  C3_4 
REMARK    2  A    between atoms: C6_7  and  C7_8 
REMARK    3  A    between atoms: C9_10  and  C10_11 
REMARK    4  A    between atoms: C13_14  and  O1_15 
REMARK    5  A    between atoms: O1_15  and  C14_16 
REMARK    6  A    between atoms: N3_22  and  C18_23 
ROOT
HETATM    1  C7  UNL     1      22.243   1.365  50.973  1.00  0.00     0.149 C 
HETATM    2  C8  UNL     1      22.983   2.340  50.083  1.00  0.00     0.094 C 
HETATM    3  C9  UNL     1      23.512   3.311  51.049  1.00  0.00     0.067 C 
HETATM    4  N2  UNL     1      23.466   2.821  52.243  1.00  0.00    -0.175 NA
HETATM    5  N3  UNL     1      22.933   1.540  52.236  1.00  0.00    -0.260 N 
ENDROOT
BRANCH   3   6
HETATM    6  C10 UNL     1      24.030   4.643  50.769  1.00  0.00    -0.010 A 
HETATM    7  C11 UNL     1      25.190   4.818  50.045  1.00  0.00     0.016 A 
HETATM    8  C12 UNL     1      25.658   6.114  49.796  1.00  0.00     0.038 A 
HETATM    9  C13 UNL     1      24.951   7.221  50.280  1.00  0.00     0.072 A 
HETATM   10  C16 UNL     1      23.792   7.026  51.003  1.00  0.00     0.038 A 
HETATM   11  C17 UNL     1      23.350   5.740  51.236  1.00  0.00     0.016 A 
BRANCH   9  12
HETATM   12  O1  UNL     1      25.601   8.390  49.911  1.00  0.00    -0.318 OA
BRANCH  12  13
HETATM   13  C14 UNL     1      26.997   8.587  49.981  1.00  0.00     0.290 A 
HETATM   14  C15 UNL     1      27.670   9.542  49.077  1.00  0.00     0.232 A 
HETATM   15  O2  UNL     1      27.431   9.869  50.454  1.00  0.00    -0.354 OA
ENDBRANCH  12  13
ENDBRANCH   9  12
ENDBRANCH   3   6
BRANCH   1  16
HETATM   16  C6  UNL     1      20.827   1.759  51.127  1.00  0.00    -0.033 A 
HETATM   17  C5  UNL     1      20.488   3.086  51.271  1.00  0.00     0.011 A 
HETATM   18  C4  UNL     1      19.122   3.353  51.410  1.00  0.00     0.030 A 
HETATM   19  C3  UNL     1      18.145   2.356  51.406  1.00  0.00     0.029 A 
HETATM   20  C25 UNL     1      18.535   1.053  51.260  1.00  0.00     0.030 A 
HETATM   21  C24 UNL     1      19.873   0.746  51.120  1.00  0.00     0.011 A 
BRANCH  19  22
HETATM   22  N1  UNL     1      16.770   2.699  51.553  1.00  0.00    -0.390 N 
HETATM   23  C1  UNL     1      15.758   1.648  51.374  1.00  0.00     0.149 C 
HETATM   24  C2  UNL     1      16.379   4.045  51.867  1.00  0.00     0.149 C 
ENDBRANCH  19  22
ENDBRANCH   1  16
BRANCH   5  25
HETATM   25  C18 UNL     1      23.032   0.545  53.280  1.00  0.00     0.053 A 
HETATM   26  C19 UNL     1      21.899   0.139  53.955  1.00  0.00     0.031 A 
HETATM   27  C20 UNL     1      22.037  -0.807  54.938  1.00  0.00     0.002 A 
HETATM   28  C21 UNL     1      23.281  -1.330  55.235  1.00  0.00     0.000 A 
HETATM   29  C22 UNL     1      24.418  -0.922  54.559  1.00  0.00     0.002 A 
HETATM   30  C23 UNL     1      24.285   0.030  53.567  1.00  0.00     0.031 A 
ENDBRANCH   5  25
TORSDOF 6
ENDMDL
MODEL 9
REMARK VINA RESULT:      -7.6      4.665      8.090
REMARK  6 active torsions:
REMARK  status: ('A' for Active; 'I' for Inactive)
REMARK    1  A    between atoms: N1_2  and  C3_4 
REMARK    2  A    between atoms: C6_7  and  C7_8 
REMARK    3  A    between atoms: C9_10  and  C10_11 
REMARK    4  A    between atoms: C13_14  and  O1_15 
REMARK    5  A    between atoms: O1_15  and  C14_16 
REMARK    6  A    between atoms: N3_22  and  C18_23 
ROOT
HETATM    1  C7  UNL     1      23.985   4.608  48.873  1.00  0.00     0.149 C 
HETATM    2  C8  UNL     1      24.466   3.245  49.321  1.00  0.00     0.094 C 
HETATM    3  C9  UNL     1      24.479   3.381  50.784  1.00  0.00     0.067 C 
HETATM    4  N2  UNL     1      23.785   4.409  51.142  1.00  0.00    -0.175 NA
HETATM    5  N3  UNL     1      23.250   5.058  50.039  1.00  0.00    -0.260 N 
ENDROOT
BRANCH   3   6
HETATM    6  C10 UNL     1      25.153   2.518  51.745  1.00  0.00    -0.010 A 
HETATM    7  C11 UNL     1      25.972   1.491  51.326  1.00  0.00     0.016 A 
HETATM    8  C12 UNL     1      26.603   0.681  52.278  1.00  0.00     0.038 A 
HETATM    9  C13 UNL     1      26.401   0.914  53.643  1.00  0.00     0.072 A 
HETATM   10  C16 UNL     1      25.578   1.947  54.043  1.00  0.00     0.038 A 
HETATM   11  C17 UNL     1      24.967   2.732  53.087  1.00  0.00     0.016 A 
BRANCH   9  12
HETATM   12  O1  UNL     1      27.123  -0.007  54.388  1.00  0.00    -0.318 OA
BRANCH  12  13
HETATM   13  C14 UNL     1      28.386   0.243  54.967  1.00  0.00     0.290 A 
HETATM   14  C15 UNL     1      29.610   0.236  54.138  1.00  0.00     0.232 A 
HETATM   15  O2  UNL     1      29.024   1.469  54.585  1.00  0.00    -0.354 OA
ENDBRANCH  12  13
ENDBRANCH   9  12
ENDBRANCH   3   6
BRANCH   1  16
HETATM   16  C6  UNL     1      25.124   5.517  48.629  1.00  0.00    -0.033 A 
HETATM   17  C5  UNL     1      26.411   5.104  48.895  1.00  0.00     0.011 A 
HETATM   18  C4  UNL     1      27.417   6.040  48.630  1.00  0.00     0.030 A 
HETATM   19  C3  UNL     1      27.159   7.316  48.127  1.00  0.00     0.029 A 
HETATM   20  C25 UNL     1      25.863   7.677  47.880  1.00  0.00     0.030 A 
HETATM   21  C24 UNL     1      24.841   6.784  48.128  1.00  0.00     0.011 A 
BRANCH  19  22
HETATM   22  N1  UNL     1      28.233   8.219  47.880  1.00  0.00    -0.390 N 
HETATM   23  C1  UNL     1      28.338   8.843  46.554  1.00  0.00     0.149 C 
HETATM   24  C2  UNL     1      29.196   8.513  48.905  1.00  0.00     0.149 C 
ENDBRANCH  19  22
ENDBRANCH   1  16
BRANCH   5  25
HETATM   25  C18 UNL     1      22.162   6.010  50.026  1.00  0.00     0.053 A 
HETATM   26  C19 UNL     1      22.311   7.237  50.639  1.00  0.00     0.031 A 
HETATM   27  C20 UNL     1      21.255   8.110  50.604  1.00  0.00     0.002 A 
HETATM   28  C21 UNL     1      20.079   7.759  49.968  1.00  0.00     0.000 A 
HETATM   29  C22 UNL     1      19.928   6.528  49.354  1.00  0.00     0.002 A 
HETATM   30  C23 UNL     1      20.989   5.645  49.386  1.00  0.00     0.031 A 
ENDBRANCH   5  25
TORSDOF 6
ENDMDL
