MODEL 1
REMARK VINA RESULT:      -7.0      0.000      0.000
REMARK  8 active torsions:
REMARK  status: ('A' for Active; 'I' for Inactive)
REMARK    1  A    between atoms: C2_3  and  C3_4 
REMARK    2  A    between atoms: C8_11  and  O2_12 
REMARK    3  A    between atoms: O2_12  and  C9_13 
REMARK    4  A    between atoms: C9_13  and  C10_14 
REMARK    5  A    between atoms: C10_14  and  O3_15 
REMARK    6  A    between atoms: O3_15  and  C11_16 
REMARK    7  A    between atoms: C12_17  and  C13_18 
REMARK    8  A    between atoms: C13_18  and  O4_19 
ROOT
HETATM    1  C1  UNL     1      29.031   7.637  47.643  1.00  0.00     0.201 C 
HETATM    2  O1  UNL     1      28.669   6.493  47.994  1.00  0.00    -0.392 OA
HETATM    3  C2  UNL     1      28.312   5.362  48.345  1.00  0.00     0.201 C 
ENDROOT
BRANCH   3   4
HETATM    4  C3  UNL     1      26.926   5.103  48.858  1.00  0.00    -0.056 A 
HETATM    5  C4  UNL     1      25.987   6.080  48.850  1.00  0.00     0.016 A 
HETATM    6  C5  UNL     1      24.593   6.435  49.177  1.00  0.00     0.183 A 
HETATM    7  C6  UNL     1      24.687   7.655  50.120  1.00  0.00     0.052 C 
HETATM    8  N1  UNL     1      23.742   5.555  49.700  1.00  0.00    -0.433 NA
HETATM    9  C7  UNL     1      22.901   4.842  50.171  1.00  0.00     0.294 A 
HETATM   10  N2  UNL     1      23.083   3.477  50.506  1.00  0.00    -0.210 NA
HETATM   11  C8  UNL     1      24.264   3.012  50.275  1.00  0.00     0.148 A 
HETATM   12  C18 UNL     1      25.334   3.837  49.710  1.00  0.00     0.112 A 
HETATM   13  C19 UNL     1      26.648   3.705  49.361  1.00  0.00     0.016 A 
BRANCH  11  14
HETATM   14  O2  UNL     1      23.659   1.884  50.783  1.00  0.00    -0.335 OA
BRANCH  14  15
HETATM   15  C9  UNL     1      23.992   1.259  52.046  1.00  0.00     0.203 C 
BRANCH  15  16
HETATM   16  C10 UNL     1      25.399   1.531  52.418  1.00  0.00     0.202 C 
BRANCH  16  17
HETATM   17  O3  UNL     1      25.718   0.612  53.476  1.00  0.00    -0.352 OA
BRANCH  17  18
HETATM   18  C11 UNL     1      26.730  -0.295  53.378  1.00  0.00     0.058 A 
HETATM   19  C12 UNL     1      27.951  -0.401  53.878  1.00  0.00    -0.005 A 
HETATM   20  C15 UNL     1      28.545  -1.635  53.381  1.00  0.00     0.008 A 
HETATM   21  C16 UNL     1      27.690  -2.260  52.595  1.00  0.00    -0.019 A 
HETATM   22  C17 UNL     1      26.422  -1.458  52.506  1.00  0.00     0.092 A 
BRANCH  19  23
HETATM   23  C13 UNL     1      28.766   0.454  54.790  1.00  0.00     0.208 C 
BRANCH  23  24
HETATM   24  O4  UNL     1      29.531   1.381  54.063  1.00  0.00    -0.391 OA
HETATM   25  C14 UNL     1      28.753   2.481  53.675  1.00  0.00     0.201 C 
ENDBRANCH  23  24
ENDBRANCH  19  23
ENDBRANCH  17  18
ENDBRANCH  16  17
ENDBRANCH  15  16
ENDBRANCH  14  15
ENDBRANCH  11  14
ENDBRANCH   3   4
TORSDOF 8
ENDMDL
MODEL 2
REMARK VINA RESULT:      -7.0      2.618      8.097
REMARK  8 active torsions:
REMARK  status: ('A' for Active; 'I' for Inactive)
REMARK    1  A    between atoms: C2_3  and  C3_4 
REMARK    2  A    between atoms: C8_11  and  O2_12 
REMARK    3  A    between atoms: O2_12  and  C9_13 
REMARK    4  A    between atoms: C9_13  and  C10_14 
REMARK    5  A    between atoms: C10_14  and  O3_15 
REMARK    6  A    between atoms: O3_15  and  C11_16 
REMARK    7  A    between atoms: C12_17  and  C13_18 
REMARK    8  A    between atoms: C13_18  and  O4_19 
ROOT
HETATM    1  C1  UNL     1      20.647  -1.670  54.206  1.00  0.00     0.201 C 
HETATM    2  O1  UNL     1      21.826  -1.465  54.565  1.00  0.00    -0.392 OA
HETATM    3  C2  UNL     1      22.996  -1.265  54.918  1.00  0.00     0.201 C 
ENDROOT
BRANCH   3   4
HETATM    4  C3  UNL     1      23.942  -0.468  54.071  1.00  0.00    -0.056 A 
HETATM    5  C4  UNL     1      25.281  -0.660  54.151  1.00  0.00     0.016 A 
HETATM    6  C5  UNL     1      26.606  -0.249  53.650  1.00  0.00     0.183 A 
HETATM    7  C6  UNL     1      27.409   0.173  54.900  1.00  0.00     0.052 C 
HETATM    8  N1  UNL     1      26.749   0.687  52.713  1.00  0.00    -0.433 NA
HETATM    9  C7  UNL     1      26.985   1.514  51.879  1.00  0.00     0.294 A 
HETATM   10  N2  UNL     1      26.012   2.273  51.183  1.00  0.00    -0.210 NA
HETATM   11  C8  UNL     1      24.789   2.025  51.514  1.00  0.00     0.148 A 
HETATM   12  C18 UNL     1      24.440   1.033  52.533  1.00  0.00     0.112 A 
HETATM   13  C19 UNL     1      23.316   0.536  53.129  1.00  0.00     0.016 A 
BRANCH  11  14
HETATM   14  O2  UNL     1      24.585   2.993  50.555  1.00  0.00    -0.335 OA
BRANCH  14  15
HETATM   15  C9  UNL     1      23.767   4.175  50.728  1.00  0.00     0.203 C 
BRANCH  15  16
HETATM   16  C10 UNL     1      24.571   5.407  50.557  1.00  0.00     0.202 C 
BRANCH  16  17
HETATM   17  O3  UNL     1      24.963   5.439  49.174  1.00  0.00    -0.352 OA
BRANCH  17  18
HETATM   18  C11 UNL     1      26.228   5.757  48.779  1.00  0.00     0.058 A 
HETATM   19  C12 UNL     1      26.824   6.846  48.322  1.00  0.00    -0.005 A 
HETATM   20  C15 UNL     1      28.226   6.533  48.076  1.00  0.00     0.008 A 
HETATM   21  C16 UNL     1      28.464   5.272  48.382  1.00  0.00    -0.019 A 
HETATM   22  C17 UNL     1      27.194   4.633  48.870  1.00  0.00     0.092 A 
BRANCH  19  23
HETATM   23  C13 UNL     1      26.354   8.233  48.035  1.00  0.00     0.208 C 
BRANCH  23  24
HETATM   24  O4  UNL     1      26.852   9.141  48.984  1.00  0.00    -0.391 OA
HETATM   25  C14 UNL     1      27.012  10.417  48.425  1.00  0.00     0.201 C 
ENDBRANCH  23  24
ENDBRANCH  19  23
ENDBRANCH  17  18
ENDBRANCH  16  17
ENDBRANCH  15  16
ENDBRANCH  14  15
ENDBRANCH  11  14
ENDBRANCH   3   4
TORSDOF 8
ENDMDL
MODEL 3
REMARK VINA RESULT:      -6.9      2.372      7.074
REMARK  8 active torsions:
REMARK  status: ('A' for Active; 'I' for Inactive)
REMARK    1  A    between atoms: C2_3  and  C3_4 
REMARK    2  A    between atoms: C8_11  and  O2_12 
REMARK    3  A    between atoms: O2_12  and  C9_13 
REMARK    4  A    between atoms: C9_13  and  C10_14 
REMARK    5  A    between atoms: C10_14  and  O3_15 
REMARK    6  A    between atoms: O3_15  and  C11_16 
REMARK    7  A    between atoms: C12_17  and  C13_18 
REMARK    8  A    between atoms: C13_18  and  O4_19 
ROOT
HETATM    1  C1  UNL     1      27.544   0.015  53.418  1.00  0.00     0.201 C 
HETATM    2  O1  UNL     1      26.395  -0.394  53.694  1.00  0.00    -0.392 OA
HETATM    3  C2  UNL     1      25.258  -0.796  53.970  1.00  0.00     0.201 C 
ENDROOT
BRANCH   3   4
HETATM    4  C3  UNL     1      24.036  -0.032  53.553  1.00  0.00    -0.056 A 
HETATM    5  C4  UNL     1      22.833  -0.276  54.125  1.00  0.00     0.016 A 
HETATM    6  C5  UNL     1      21.403   0.085  54.161  1.00  0.00     0.183 A 
HETATM    7  C6  UNL     1      20.637  -1.232  53.903  1.00  0.00     0.052 C 
HETATM    8  N1  UNL     1      20.893   1.036  53.381  1.00  0.00    -0.433 NA
HETATM    9  C7  UNL     1      20.337   1.871  52.725  1.00  0.00     0.294 A 
HETATM   10  N2  UNL     1      20.963   2.706  51.767  1.00  0.00    -0.210 NA
HETATM   11  C8  UNL     1      22.230   2.511  51.618  1.00  0.00     0.148 A 
HETATM   12  C18 UNL     1      22.961   1.499  52.385  1.00  0.00     0.112 A 
HETATM   13  C19 UNL     1      24.235   1.017  52.482  1.00  0.00     0.016 A 
BRANCH  11  14
HETATM   14  O2  UNL     1      22.037   3.526  50.708  1.00  0.00    -0.335 OA
BRANCH  14  15
HETATM   15  C9  UNL     1      21.774   4.908  51.048  1.00  0.00     0.203 C 
BRANCH  15  16
HETATM   16  C10 UNL     1      22.798   5.804  50.462  1.00  0.00     0.202 C 
BRANCH  16  17
HETATM   17  O3  UNL     1      24.059   5.380  51.008  1.00  0.00    -0.352 OA
BRANCH  17  18
HETATM   18  C11 UNL     1      25.157   5.163  50.232  1.00  0.00     0.058 A 
HETATM   19  C12 UNL     1      25.932   5.914  49.466  1.00  0.00    -0.005 A 
HETATM   20  C15 UNL     1      26.967   5.067  48.889  1.00  0.00     0.008 A 
HETATM   21  C16 UNL     1      26.814   3.825  49.305  1.00  0.00    -0.019 A 
HETATM   22  C17 UNL     1      25.623   3.753  50.219  1.00  0.00     0.092 A 
BRANCH  19  23
HETATM   23  C13 UNL     1      25.934   7.365  49.115  1.00  0.00     0.208 C 
BRANCH  23  24
HETATM   24  O4  UNL     1      26.563   8.124  50.114  1.00  0.00    -0.391 OA
HETATM   25  C14 UNL     1      27.670   8.815  49.600  1.00  0.00     0.201 C 
ENDBRANCH  23  24
ENDBRANCH  19  23
ENDBRANCH  17  18
ENDBRANCH  16  17
ENDBRANCH  15  16
ENDBRANCH  14  15
ENDBRANCH  11  14
ENDBRANCH   3   4
TORSDOF 8
ENDMDL
MODEL 4
REMARK VINA RESULT:      -6.8      2.821      7.488
REMARK  8 active torsions:
REMARK  status: ('A' for Active; 'I' for Inactive)
REMARK    1  A    between atoms: C2_3  and  C3_4 
REMARK    2  A    between atoms: C8_11  and  O2_12 
REMARK    3  A    between atoms: O2_12  and  C9_13 
REMARK    4  A    between atoms: C9_13  and  C10_14 
REMARK    5  A    between atoms: C10_14  and  O3_15 
REMARK    6  A    between atoms: O3_15  and  C11_16 
REMARK    7  A    between atoms: C12_17  and  C13_18 
REMARK    8  A    between atoms: C13_18  and  O4_19 
ROOT
HETATM    1  C1  UNL     1      19.700   3.602  49.712  1.00  0.00     0.201 C 
HETATM    2  O1  UNL     1      19.779   2.671  50.542  1.00  0.00    -0.392 OA
HETATM    3  C2  UNL     1      19.858   1.747  51.362  1.00  0.00     0.201 C 
ENDROOT
BRANCH   3   4
HETATM    4  C3  UNL     1      21.184   1.219  51.819  1.00  0.00    -0.056 A 
HETATM    5  C4  UNL     1      21.261   0.151  52.649  1.00  0.00     0.016 A 
HETATM    6  C5  UNL     1      22.157  -0.759  53.388  1.00  0.00     0.183 A 
HETATM    7  C6  UNL     1      21.712  -0.669  54.865  1.00  0.00     0.052 C 
HETATM    8  N1  UNL     1      23.483  -0.647  53.333  1.00  0.00    -0.433 NA
HETATM    9  C7  UNL     1      24.681  -0.631  53.351  1.00  0.00     0.294 A 
HETATM   10  N2  UNL     1      25.496   0.283  52.639  1.00  0.00    -0.210 NA
HETATM   11  C8  UNL     1      24.852   1.154  51.935  1.00  0.00     0.148 A 
HETATM   12  C18 UNL     1      23.389   1.189  51.882  1.00  0.00     0.112 A 
HETATM   13  C19 UNL     1      22.408   1.934  51.292  1.00  0.00     0.016 A 
BRANCH  11  14
HETATM   14  O2  UNL     1      26.147   1.532  51.656  1.00  0.00    -0.335 OA
BRANCH  14  15
HETATM   15  C9  UNL     1      26.561   2.870  51.289  1.00  0.00     0.203 C 
BRANCH  15  16
HETATM   16  C10 UNL     1      26.246   3.152  49.870  1.00  0.00     0.202 C 
BRANCH  16  17
HETATM   17  O3  UNL     1      27.319   3.971  49.377  1.00  0.00    -0.352 OA
BRANCH  17  18
HETATM   18  C11 UNL     1      27.109   5.197  48.819  1.00  0.00     0.058 A 
HETATM   19  C12 UNL     1      27.870   6.105  48.231  1.00  0.00    -0.005 A 
HETATM   20  C15 UNL     1      27.027   7.229  47.844  1.00  0.00     0.008 A 
HETATM   21  C16 UNL     1      25.778   6.996  48.198  1.00  0.00    -0.019 A 
HETATM   22  C17 UNL     1      25.697   5.653  48.869  1.00  0.00     0.092 A 
BRANCH  19  23
HETATM   23  C13 UNL     1      29.327   6.179  47.915  1.00  0.00     0.208 C 
BRANCH  23  24
HETATM   24  O4  UNL     1      30.073   5.372  48.790  1.00  0.00    -0.391 OA
HETATM   25  C14 UNL     1      31.410   5.793  48.845  1.00  0.00     0.201 C 
ENDBRANCH  23  24
ENDBRANCH  19  23
ENDBRANCH  17  18
ENDBRANCH  16  17
ENDBRANCH  15  16
ENDBRANCH  14  15
ENDBRANCH  11  14
ENDBRANCH   3   4
TORSDOF 8
ENDMDL
MODEL 5
REMARK VINA RESULT:      -6.7      2.873      4.444
REMARK  8 active torsions:
REMARK  status: ('A' for Active; 'I' for Inactive)
REMARK    1  A    between atoms: C2_3  and  C3_4 
REMARK    2  A    between atoms: C8_11  and  O2_12 
REMARK    3  A    between atoms: O2_12  and  C9_13 
REMARK    4  A    between atoms: C9_13  and  C10_14 
REMARK    5  A    between atoms: C10_14  and  O3_15 
REMARK    6  A    between atoms: O3_15  and  C11_16 
REMARK    7  A    between atoms: C12_17  and  C13_18 
REMARK    8  A    between atoms: C13_18  and  O4_19 
ROOT
HETATM    1  C1  UNL     1      30.528   8.794  47.537  1.00  0.00     0.201 C 
HETATM    2  O1  UNL     1      29.923   7.701  47.499  1.00  0.00    -0.392 OA
HETATM    3  C2  UNL     1      29.326   6.618  47.465  1.00  0.00     0.201 C 
ENDROOT
BRANCH   3   4
HETATM    4  C3  UNL     1      28.078   6.387  48.265  1.00  0.00    -0.056 A 
HETATM    5  C4  UNL     1      27.293   7.424  48.645  1.00  0.00     0.016 A 
HETATM    6  C5  UNL     1      26.070   7.829  49.364  1.00  0.00     0.183 A 
HETATM    7  C6  UNL     1      26.534   8.847  50.429  1.00  0.00     0.052 C 
HETATM    8  N1  UNL     1      25.262   6.943  49.942  1.00  0.00    -0.433 NA
HETATM    9  C7  UNL     1      24.473   6.229  50.495  1.00  0.00     0.294 A 
HETATM   10  N2  UNL     1      24.556   4.816  50.558  1.00  0.00    -0.210 NA
HETATM   11  C8  UNL     1      25.583   4.303  49.968  1.00  0.00     0.148 A 
HETATM   12  C18 UNL     1      26.585   5.125  49.285  1.00  0.00     0.112 A 
HETATM   13  C19 UNL     1      27.753   4.949  48.600  1.00  0.00     0.016 A 
BRANCH  11  14
HETATM   14  O2  UNL     1      24.978   3.156  50.432  1.00  0.00    -0.335 OA
BRANCH  14  15
HETATM   15  C9  UNL     1      24.780   2.827  51.828  1.00  0.00     0.203 C 
BRANCH  15  16
HETATM   16  C10 UNL     1      24.656   1.364  52.016  1.00  0.00     0.202 C 
BRANCH  16  17
HETATM   17  O3  UNL     1      23.281   1.041  51.750  1.00  0.00    -0.352 OA
BRANCH  17  18
HETATM   18  C11 UNL     1      22.408   0.686  52.734  1.00  0.00     0.058 A 
HETATM   19  C12 UNL     1      21.154   0.986  53.033  1.00  0.00    -0.005 A 
HETATM   20  C15 UNL     1      20.784   0.260  54.241  1.00  0.00     0.008 A 
HETATM   21  C16 UNL     1      21.804  -0.465  54.659  1.00  0.00    -0.019 A 
HETATM   22  C17 UNL     1      22.967  -0.266  53.728  1.00  0.00     0.092 A 
BRANCH  19  23
HETATM   23  C13 UNL     1      20.129   1.868  52.401  1.00  0.00     0.208 C 
BRANCH  23  24
HETATM   24  O4  UNL     1      20.281   3.199  52.821  1.00  0.00    -0.391 OA
HETATM   25  C14 UNL     1      21.036   3.936  51.897  1.00  0.00     0.201 C 
ENDBRANCH  23  24
ENDBRANCH  19  23
ENDBRANCH  17  18
ENDBRANCH  16  17
ENDBRANCH  15  16
ENDBRANCH  14  15
ENDBRANCH  11  14
ENDBRANCH   3   4
TORSDOF 8
ENDMDL
MODEL 6
REMARK VINA RESULT:      -6.7      2.665      5.384
REMARK  8 active torsions:
REMARK  status: ('A' for Active; 'I' for Inactive)
REMARK    1  A    between atoms: C2_3  and  C3_4 
REMARK    2  A    between atoms: C8_11  and  O2_12 
REMARK    3  A    between atoms: O2_12  and  C9_13 
REMARK    4  A    between atoms: C9_13  and  C10_14 
REMARK    5  A    between atoms: C10_14  and  O3_15 
REMARK    6  A    between atoms: O3_15  and  C11_16 
REMARK    7  A    between atoms: C12_17  and  C13_18 
REMARK    8  A    between atoms: C13_18  and  O4_19 
ROOT
HETATM    1  C1  UNL     1      20.469  -0.922  53.859  1.00  0.00     0.201 C 
HETATM    2  O1  UNL     1      20.312  -0.110  52.921  1.00  0.00    -0.392 OA
HETATM    3  C2  UNL     1      20.156   0.696  51.996  1.00  0.00     0.201 C 
ENDROOT
BRANCH   3   4
HETATM    4  C3  UNL     1      21.168   1.765  51.712  1.00  0.00    -0.056 A 
HETATM    5  C4  UNL     1      20.827   3.076  51.751  1.00  0.00     0.016 A 
HETATM    6  C5  UNL     1      21.297   4.465  51.587  1.00  0.00     0.183 A 
HETATM    7  C6  UNL     1      20.372   5.092  50.519  1.00  0.00     0.052 C 
HETATM    8  N1  UNL     1      22.560   4.754  51.282  1.00  0.00    -0.433 NA
HETATM    9  C7  UNL     1      23.669   5.119  51.010  1.00  0.00     0.294 A 
HETATM   10  N2  UNL     1      24.779   4.266  50.795  1.00  0.00    -0.210 NA
HETATM   11  C8  UNL     1      24.527   3.005  50.905  1.00  0.00     0.148 A 
HETATM   12  C18 UNL     1      23.191   2.499  51.226  1.00  0.00     0.112 A 
HETATM   13  C19 UNL     1      22.571   1.295  51.400  1.00  0.00     0.016 A 
BRANCH  11  14
HETATM   14  O2  UNL     1      25.871   2.954  50.605  1.00  0.00    -0.335 OA
BRANCH  14  15
HETATM   15  C9  UNL     1      26.915   2.571  51.533  1.00  0.00     0.203 C 
BRANCH  15  16
HETATM   16  C10 UNL     1      26.341   2.137  52.828  1.00  0.00     0.202 C 
BRANCH  16  17
HETATM   17  O3  UNL     1      27.458   1.792  53.664  1.00  0.00    -0.352 OA
BRANCH  17  18
HETATM   18  C11 UNL     1      28.117   0.604  53.553  1.00  0.00     0.058 A 
HETATM   19  C12 UNL     1      27.758  -0.657  53.376  1.00  0.00    -0.005 A 
HETATM   20  C15 UNL     1      28.962  -1.477  53.342  1.00  0.00     0.008 A 
HETATM   21  C16 UNL     1      30.028  -0.715  53.498  1.00  0.00    -0.019 A 
HETATM   22  C17 UNL     1      29.594   0.716  53.653  1.00  0.00     0.092 A 
BRANCH  19  23
HETATM   23  C13 UNL     1      26.440  -1.339  53.215  1.00  0.00     0.208 C 
BRANCH  23  24
HETATM   24  O4  UNL     1      25.637  -1.158  54.353  1.00  0.00    -0.391 OA
HETATM   25  C14 UNL     1      24.376  -0.655  54.005  1.00  0.00     0.201 C 
ENDBRANCH  23  24
ENDBRANCH  19  23
ENDBRANCH  17  18
ENDBRANCH  16  17
ENDBRANCH  15  16
ENDBRANCH  14  15
ENDBRANCH  11  14
ENDBRANCH   3   4
TORSDOF 8
ENDMDL
MODEL 7
REMARK VINA RESULT:      -6.7      4.207      7.489
REMARK  8 active torsions:
REMARK  status: ('A' for Active; 'I' for Inactive)
REMARK    1  A    between atoms: C2_3  and  C3_4 
REMARK    2  A    between atoms: C8_11  and  O2_12 
REMARK    3  A    between atoms: O2_12  and  C9_13 
REMARK    4  A    between atoms: C9_13  and  C10_14 
REMARK    5  A    between atoms: C10_14  and  O3_15 
REMARK    6  A    between atoms: O3_15  and  C11_16 
REMARK    7  A    between atoms: C12_17  and  C13_18 
REMARK    8  A    between atoms: C13_18  and  O4_19 
ROOT
HETATM    1  C1  UNL     1      24.653   3.508  49.292  1.00  0.00     0.201 C 
HETATM    2  O1  UNL     1      25.662   3.204  49.965  1.00  0.00    -0.392 OA
HETATM    3  C2  UNL     1      26.660   2.905  50.634  1.00  0.00     0.201 C 
ENDROOT
BRANCH   3   4
HETATM    4  C3  UNL     1      26.553   2.040  51.853  1.00  0.00    -0.056 A 
HETATM    5  C4  UNL     1      27.592   1.917  52.714  1.00  0.00     0.016 A 
HETATM    6  C5  UNL     1      28.079   1.293  53.959  1.00  0.00     0.183 A 
HETATM    7  C6  UNL     1      29.368   0.538  53.567  1.00  0.00     0.052 C 
HETATM    8  N1  UNL     1      27.315   0.484  54.691  1.00  0.00    -0.433 NA
HETATM    9  C7  UNL     1      26.712  -0.255  55.418  1.00  0.00     0.294 A 
HETATM   10  N2  UNL     1      25.374  -0.677  55.225  1.00  0.00    -0.210 NA
HETATM   11  C8  UNL     1      24.802  -0.210  54.166  1.00  0.00     0.148 A 
HETATM   12  C18 UNL     1      25.491   0.688  53.236  1.00  0.00     0.112 A 
HETATM   13  C19 UNL     1      25.230   1.337  52.063  1.00  0.00     0.016 A 
BRANCH  11  14
HETATM   14  O2  UNL     1      23.773  -0.970  54.676  1.00  0.00    -0.335 OA
BRANCH  14  15
HETATM   15  C9  UNL     1      22.526  -1.245  53.995  1.00  0.00     0.203 C 
BRANCH  15  16
HETATM   16  C10 UNL     1      21.839   0.012  53.618  1.00  0.00     0.202 C 
BRANCH  16  17
HETATM   17  O3  UNL     1      21.507  -0.116  52.225  1.00  0.00    -0.352 OA
BRANCH  17  18
HETATM   18  C11 UNL     1      20.238   0.053  51.756  1.00  0.00     0.058 A 
HETATM   19  C12 UNL     1      19.027  -0.266  52.183  1.00  0.00    -0.005 A 
HETATM   20  C15 UNL     1      18.057   0.204  51.203  1.00  0.00     0.008 A 
HETATM   21  C16 UNL     1      18.680   0.797  50.203  1.00  0.00    -0.019 A 
HETATM   22  C17 UNL     1      20.161   0.762  50.453  1.00  0.00     0.092 A 
BRANCH  19  23
HETATM   23  C13 UNL     1      18.517  -0.968  53.397  1.00  0.00     0.208 C 
BRANCH  23  24
HETATM   24  O4  UNL     1      17.353  -1.699  53.105  1.00  0.00    -0.391 OA
HETATM   25  C14 UNL     1      17.493  -3.042  53.484  1.00  0.00     0.201 C 
ENDBRANCH  23  24
ENDBRANCH  19  23
ENDBRANCH  17  18
ENDBRANCH  16  17
ENDBRANCH  15  16
ENDBRANCH  14  15
ENDBRANCH  11  14
ENDBRANCH   3   4
TORSDOF 8
ENDMDL
MODEL 8
REMARK VINA RESULT:      -6.7      2.100      3.276
REMARK  8 active torsions:
REMARK  status: ('A' for Active; 'I' for Inactive)
REMARK    1  A    between atoms: C2_3  and  C3_4 
REMARK    2  A    between atoms: C8_11  and  O2_12 
REMARK    3  A    between atoms: O2_12  and  C9_13 
REMARK    4  A    between atoms: C9_13  and  C10_14 
REMARK    5  A    between atoms: C10_14  and  O3_15 
REMARK    6  A    between atoms: O3_15  and  C11_16 
REMARK    7  A    between atoms: C12_17  and  C13_18 
REMARK    8  A    between atoms: C13_18  and  O4_19 
ROOT
HETATM    1  C1  UNL     1      31.501   7.331  49.074  1.00  0.00     0.201 C 
HETATM    2  O1  UNL     1      30.614   6.668  48.494  1.00  0.00    -0.392 OA
HETATM    3  C2  UNL     1      29.736   6.009  47.923  1.00  0.00     0.201 C 
ENDROOT
BRANCH   3   4
HETATM    4  C3  UNL     1      28.314   6.022  48.400  1.00  0.00    -0.056 A 
HETATM    5  C4  UNL     1      27.648   7.189  48.576  1.00  0.00     0.016 A 
HETATM    6  C5  UNL     1      26.377   7.821  48.978  1.00  0.00     0.183 A 
HETATM    7  C6  UNL     1      26.742   8.797  50.119  1.00  0.00     0.052 C 
HETATM    8  N1  UNL     1      25.317   7.106  49.349  1.00  0.00    -0.433 NA
HETATM    9  C7  UNL     1      24.311   6.556  49.699  1.00  0.00     0.294 A 
HETATM   10  N2  UNL     1      24.136   5.153  49.788  1.00  0.00    -0.210 NA
HETATM   11  C8  UNL     1      25.171   4.453  49.464  1.00  0.00     0.148 A 
HETATM   12  C18 UNL     1      26.430   5.069  49.038  1.00  0.00     0.112 A 
HETATM   13  C19 UNL     1      27.680   4.673  48.654  1.00  0.00     0.016 A 
BRANCH  11  14
HETATM   14  O2  UNL     1      24.288   3.443  49.774  1.00  0.00    -0.335 OA
BRANCH  14  15
HETATM   15  C9  UNL     1      24.286   2.692  51.012  1.00  0.00     0.203 C 
BRANCH  15  16
HETATM   16  C10 UNL     1      22.906   2.512  51.521  1.00  0.00     0.202 C 
BRANCH  16  17
HETATM   17  O3  UNL     1      23.036   2.131  52.901  1.00  0.00    -0.352 OA
BRANCH  17  18
HETATM   18  C11 UNL     1      22.890   0.843  53.323  1.00  0.00     0.058 A 
HETATM   19  C12 UNL     1      23.686  -0.209  53.423  1.00  0.00    -0.005 A 
HETATM   20  C15 UNL     1      22.912  -1.320  53.960  1.00  0.00     0.008 A 
HETATM   21  C16 UNL     1      21.669  -0.937  54.178  1.00  0.00    -0.019 A 
HETATM   22  C17 UNL     1      21.520   0.507  53.787  1.00  0.00     0.092 A 
BRANCH  19  23
HETATM   23  C13 UNL     1      25.126  -0.443  53.108  1.00  0.00     0.208 C 
BRANCH  23  24
HETATM   24  O4  UNL     1      25.810  -0.952  54.225  1.00  0.00    -0.391 OA
HETATM   25  C14 UNL     1      26.217   0.083  55.080  1.00  0.00     0.201 C 
ENDBRANCH  23  24
ENDBRANCH  19  23
ENDBRANCH  17  18
ENDBRANCH  16  17
ENDBRANCH  15  16
ENDBRANCH  14  15
ENDBRANCH  11  14
ENDBRANCH   3   4
TORSDOF 8
ENDMDL
MODEL 9
REMARK VINA RESULT:      -6.6      2.848      7.958
REMARK  8 active torsions:
REMARK  status: ('A' for Active; 'I' for Inactive)
REMARK    1  A    between atoms: C2_3  and  C3_4 
REMARK    2  A    between atoms: C8_11  and  O2_12 
REMARK    3  A    between atoms: O2_12  and  C9_13 
REMARK    4  A    between atoms: C9_13  and  C10_14 
REMARK    5  A    between atoms: C10_14  and  O3_15 
REMARK    6  A    between atoms: O3_15  and  C11_16 
REMARK    7  A    between atoms: C12_17  and  C13_18 
REMARK    8  A    between atoms: C13_18  and  O4_19 
ROOT
HETATM    1  C1  UNL     1      21.415  -1.786  54.562  1.00  0.00     0.201 C 
HETATM    2  O1  UNL     1      21.782  -0.899  53.762  1.00  0.00    -0.392 OA
HETATM    3  C2  UNL     1      22.146  -0.018  52.972  1.00  0.00     0.201 C 
ENDROOT
BRANCH   3   4
HETATM    4  C3  UNL     1      23.584   0.395  52.870  1.00  0.00    -0.056 A 
HETATM    5  C4  UNL     1      24.533  -0.188  53.641  1.00  0.00     0.016 A 
HETATM    6  C5  UNL     1      25.966  -0.232  53.988  1.00  0.00     0.183 A 
HETATM    7  C6  UNL     1      26.031   0.013  55.512  1.00  0.00     0.052 C 
HETATM    8  N1  UNL     1      26.864   0.549  53.391  1.00  0.00    -0.433 NA
HETATM    9  C7  UNL     1      27.747   1.206  52.917  1.00  0.00     0.294 A 
HETATM   10  N2  UNL     1      27.586   2.174  51.895  1.00  0.00    -0.210 NA
HETATM   11  C8  UNL     1      26.374   2.331  51.478  1.00  0.00     0.148 A 
HETATM   12  C18 UNL     1      25.253   1.564  52.026  1.00  0.00     0.112 A 
HETATM   13  C19 UNL     1      23.901   1.473  51.857  1.00  0.00     0.016 A 
BRANCH  11  14
HETATM   14  O2  UNL     1      27.022   3.246  50.678  1.00  0.00    -0.335 OA
BRANCH  14  15
HETATM   15  C9  UNL     1      26.511   3.762  49.425  1.00  0.00     0.203 C 
BRANCH  15  16
HETATM   16  C10 UNL     1      25.913   5.104  49.609  1.00  0.00     0.202 C 
BRANCH  16  17
HETATM   17  O3  UNL     1      24.577   5.022  49.083  1.00  0.00    -0.352 OA
BRANCH  17  18
HETATM   18  C11 UNL     1      23.476   5.307  49.834  1.00  0.00     0.058 A 
HETATM   19  C12 UNL     1      23.111   6.300  50.629  1.00  0.00    -0.005 A 
HETATM   20  C15 UNL     1      21.781   6.007  51.147  1.00  0.00     0.008 A 
HETATM   21  C16 UNL     1      21.356   4.854  50.668  1.00  0.00    -0.019 A 
HETATM   22  C17 UNL     1      22.410   4.275  49.766  1.00  0.00     0.092 A 
BRANCH  19  23
HETATM   23  C13 UNL     1      23.768   7.570  51.056  1.00  0.00     0.208 C 
BRANCH  23  24
HETATM   24  O4  UNL     1      23.983   8.420  49.960  1.00  0.00    -0.391 OA
HETATM   25  C14 UNL     1      25.325   8.820  49.888  1.00  0.00     0.201 C 
ENDBRANCH  23  24
ENDBRANCH  19  23
ENDBRANCH  17  18
ENDBRANCH  16  17
ENDBRANCH  15  16
ENDBRANCH  14  15
ENDBRANCH  11  14
ENDBRANCH   3   4
TORSDOF 8
ENDMDL
