MODEL 1
REMARK VINA RESULT:      -8.0      0.000      0.000
REMARK  8 active torsions:
REMARK  status: ('A' for Active; 'I' for Inactive)
REMARK    1  A    between atoms: C2_2  and  C3_3 
REMARK    2  A    between atoms: C12_14  and  C13_15 
REMARK    3  A    between atoms: C13_15  and  C14_16 
REMARK    4  A    between atoms: C14_16  and  C15_17 
REMARK    5  A    between atoms: C15_17  and  O1_18 
REMARK    6  A    between atoms: O1_18  and  C16_19 
REMARK    7  A    between atoms: C16_19  and  C17_20 
REMARK    8  A    between atoms: C22_26  and  N3_27 
ROOT
HETATM    1  C3  UNL     1      27.276  -0.239  53.185  1.00  0.00     0.081 C 
HETATM    2  C4  UNL     1      27.077   0.008  54.666  1.00  0.00     0.046 C 
HETATM    3  C5  UNL     1      25.602  -0.038  55.070  1.00  0.00     0.270 C 
HETATM    4  N1  UNL     1      24.995  -1.267  54.849  1.00  0.00     0.083 N 
HETATM    5  C6  UNL     1      23.637  -1.421  55.112  1.00  0.00     0.274 C 
HETATM    6  C7  UNL     1      22.589  -0.894  54.228  1.00  0.00     0.017 C 
HETATM    7  C8  UNL     1      22.926  -0.965  52.745  1.00  0.00     0.032 C 
HETATM    8  C9  UNL     1      22.348   0.394  52.600  1.00  0.00     0.092 C 
HETATM    9  C10 UNL     1      22.382   0.567  54.101  1.00  0.00     0.032 C 
HETATM   10  N2  UNL     1      23.196   1.342  51.967  1.00  0.00    -0.336 N 
HETATM   11  C11 UNL     1      22.766   2.402  51.212  1.00  0.00     0.101 A 
HETATM   12  C12 UNL     1      23.835   3.121  50.726  1.00  0.00    -0.021 A 
HETATM   13  C21 UNL     1      24.932   2.472  51.203  1.00  0.00     0.064 A 
HETATM   14  C22 UNL     1      26.268   2.728  51.048  1.00  0.00     0.138 A 
HETATM   15  N4  UNL     1      27.177   1.907  51.647  1.00  0.00    -0.215 NA
HETATM   16  C23 UNL     1      26.706   0.864  52.373  1.00  0.00     0.138 A 
HETATM   17  N5  UNL     1      25.397   0.642  52.504  1.00  0.00    -0.214 NA
HETATM   18  C24 UNL     1      24.508   1.416  51.939  1.00  0.00     0.146 A 
HETATM   19  H9  UNL     1      25.530  -2.019  55.345  1.00  0.00     0.315 HD
ENDROOT
BRANCH  12  20
HETATM   20  C13 UNL     1      23.821   4.320  49.873  1.00  0.00     0.070 C 
BRANCH  20  21
HETATM   21  C14 UNL     1      23.838   5.597  50.629  1.00  0.00     0.002 C 
BRANCH  21  22
HETATM   22  C15 UNL     1      24.795   6.460  50.408  1.00  0.00     0.131 C 
BRANCH  22  23
HETATM   23  O1  UNL     1      25.903   7.206  50.054  1.00  0.00    -0.361 OA
BRANCH  23  24
HETATM   24  C16 UNL     1      26.048   7.735  48.742  1.00  0.00     0.206 C 
BRANCH  24  25
HETATM   25  C17 UNL     1      27.304   7.260  48.088  1.00  0.00     0.145 C 
HETATM   26  C18 UNL     1      28.498   8.046  48.640  1.00  0.00     0.036 C 
HETATM   27  C19 UNL     1      29.629   7.124  48.217  1.00  0.00     0.029 C 
HETATM   28  C20 UNL     1      28.956   5.775  48.179  1.00  0.00     0.168 C 
HETATM   29  O2  UNL     1      27.627   5.968  48.506  1.00  0.00    -0.384 OA
ENDBRANCH  24  25
ENDBRANCH  23  24
ENDBRANCH  22  23
ENDBRANCH  21  22
ENDBRANCH  20  21
ENDBRANCH  12  20
BRANCH  14  30
HETATM   30  N3  UNL     1      26.818   3.798  50.305  1.00  0.00    -0.383 N 
HETATM   31  H32 UNL     1      27.421   4.658  50.465  1.00  0.00     0.157 HD
HETATM   32  H33 UNL     1      26.713   3.967  49.279  1.00  0.00     0.157 HD
ENDBRANCH  14  30
BRANCH   1  33
HETATM   33  C2  UNL     1      26.813  -1.560  52.743  1.00  0.00    -0.025 C 
HETATM   34  C1  UNL     1      27.838  -2.396  52.798  1.00  0.00     0.008 C 
ENDBRANCH   1  33
TORSDOF 8
ENDMDL
MODEL 2
REMARK VINA RESULT:      -7.7      3.259      5.942
REMARK  8 active torsions:
REMARK  status: ('A' for Active; 'I' for Inactive)
REMARK    1  A    between atoms: C2_2  and  C3_3 
REMARK    2  A    between atoms: C12_14  and  C13_15 
REMARK    3  A    between atoms: C13_15  and  C14_16 
REMARK    4  A    between atoms: C14_16  and  C15_17 
REMARK    5  A    between atoms: C15_17  and  O1_18 
REMARK    6  A    between atoms: O1_18  and  C16_19 
REMARK    7  A    between atoms: C16_19  and  C17_20 
REMARK    8  A    between atoms: C22_26  and  N3_27 
ROOT
HETATM    1  C3  UNL     1      25.942  -0.580  54.057  1.00  0.00     0.081 C 
HETATM    2  C4  UNL     1      26.518  -0.932  52.702  1.00  0.00     0.046 C 
HETATM    3  C5  UNL     1      26.292   0.175  51.669  1.00  0.00     0.270 C 
HETATM    4  N1  UNL     1      26.902   1.380  51.992  1.00  0.00     0.083 N 
HETATM    5  C6  UNL     1      26.718   2.487  51.170  1.00  0.00     0.274 C 
HETATM    6  C7  UNL     1      25.476   3.272  51.155  1.00  0.00     0.017 C 
HETATM    7  C8  UNL     1      24.811   3.418  52.516  1.00  0.00     0.032 C 
HETATM    8  C9  UNL     1      23.506   3.190  51.848  1.00  0.00     0.092 C 
HETATM    9  C10 UNL     1      24.226   2.686  50.618  1.00  0.00     0.032 C 
HETATM   10  N2  UNL     1      22.711   2.160  52.420  1.00  0.00    -0.336 N 
HETATM   11  C11 UNL     1      21.341   2.129  52.415  1.00  0.00     0.101 A 
HETATM   12  C12 UNL     1      20.876   1.008  53.064  1.00  0.00    -0.021 A 
HETATM   13  C21 UNL     1      21.999   0.353  53.468  1.00  0.00     0.064 A 
HETATM   14  C22 UNL     1      22.158  -0.819  54.159  1.00  0.00     0.138 A 
HETATM   15  N4  UNL     1      23.418  -1.262  54.437  1.00  0.00    -0.215 NA
HETATM   16  C23 UNL     1      24.462  -0.508  54.012  1.00  0.00     0.138 A 
HETATM   17  N5  UNL     1      24.272   0.630  53.342  1.00  0.00    -0.214 NA
HETATM   18  C24 UNL     1      23.073   1.072  53.064  1.00  0.00     0.146 A 
HETATM   19  H9  UNL     1      27.928   1.227  52.141  1.00  0.00     0.315 HD
ENDROOT
BRANCH  12  20
HETATM   20  C13 UNL     1      19.483   0.592  53.292  1.00  0.00     0.070 C 
BRANCH  20  21
HETATM   21  C14 UNL     1      18.876  -0.132  52.147  1.00  0.00     0.002 C 
BRANCH  21  22
HETATM   22  C15 UNL     1      18.931   0.397  50.953  1.00  0.00     0.131 C 
BRANCH  22  23
HETATM   23  O1  UNL     1      19.204   0.883  49.688  1.00  0.00    -0.361 OA
BRANCH  23  24
HETATM   24  C16 UNL     1      19.244   2.281  49.428  1.00  0.00     0.206 C 
BRANCH  24  25
HETATM   25  C17 UNL     1      20.553   2.699  48.845  1.00  0.00     0.145 C 
HETATM   26  C18 UNL     1      21.404   1.459  48.552  1.00  0.00     0.036 C 
HETATM   27  C19 UNL     1      22.412   2.062  47.589  1.00  0.00     0.029 C 
HETATM   28  C20 UNL     1      21.636   3.196  46.968  1.00  0.00     0.168 C 
HETATM   29  O2  UNL     1      20.386   3.211  47.557  1.00  0.00    -0.384 OA
ENDBRANCH  24  25
ENDBRANCH  23  24
ENDBRANCH  22  23
ENDBRANCH  21  22
ENDBRANCH  20  21
ENDBRANCH  12  20
BRANCH  14  30
HETATM   30  N3  UNL     1      21.111  -1.646  54.626  1.00  0.00    -0.383 N 
HETATM   31  H32 UNL     1      20.303  -1.603  55.315  1.00  0.00     0.157 HD
HETATM   32  H33 UNL     1      20.904  -2.625  54.325  1.00  0.00     0.157 HD
ENDBRANCH  14  30
BRANCH   1  33
HETATM   33  C2  UNL     1      26.546   0.615  54.660  1.00  0.00    -0.025 C 
HETATM   34  C1  UNL     1      27.763   0.298  55.072  1.00  0.00     0.008 C 
ENDBRANCH   1  33
TORSDOF 8
ENDMDL
MODEL 3
REMARK VINA RESULT:      -7.5      2.012      2.567
REMARK  8 active torsions:
REMARK  status: ('A' for Active; 'I' for Inactive)
REMARK    1  A    between atoms: C2_2  and  C3_3 
REMARK    2  A    between atoms: C12_14  and  C13_15 
REMARK    3  A    between atoms: C13_15  and  C14_16 
REMARK    4  A    between atoms: C14_16  and  C15_17 
REMARK    5  A    between atoms: C15_17  and  O1_18 
REMARK    6  A    between atoms: O1_18  and  C16_19 
REMARK    7  A    between atoms: C16_19  and  C17_20 
REMARK    8  A    between atoms: C22_26  and  N3_27 
ROOT
HETATM    1  C3  UNL     1      27.368  -0.046  53.140  1.00  0.00     0.081 C 
HETATM    2  C4  UNL     1      27.149   0.254  54.609  1.00  0.00     0.046 C 
HETATM    3  C5  UNL     1      25.675   0.151  55.010  1.00  0.00     0.270 C 
HETATM    4  N1  UNL     1      25.133  -1.116  54.840  1.00  0.00     0.083 N 
HETATM    5  C6  UNL     1      23.784  -1.328  55.104  1.00  0.00     0.274 C 
HETATM    6  C7  UNL     1      22.715  -0.893  54.194  1.00  0.00     0.017 C 
HETATM    7  C8  UNL     1      23.064  -1.011  52.717  1.00  0.00     0.032 C 
HETATM    8  C9  UNL     1      22.418   0.309  52.511  1.00  0.00     0.092 C 
HETATM    9  C10 UNL     1      22.435   0.549  54.003  1.00  0.00     0.032 C 
HETATM   10  N2  UNL     1      23.221   1.272  51.840  1.00  0.00    -0.336 N 
HETATM   11  C11 UNL     1      22.743   2.274  51.039  1.00  0.00     0.101 A 
HETATM   12  C12 UNL     1      23.776   3.025  50.526  1.00  0.00    -0.021 A 
HETATM   13  C21 UNL     1      24.902   2.454  51.035  1.00  0.00     0.064 A 
HETATM   14  C22 UNL     1      26.225   2.770  50.873  1.00  0.00     0.138 A 
HETATM   15  N4  UNL     1      27.170   2.024  51.510  1.00  0.00    -0.215 NA
HETATM   16  C23 UNL     1      26.749   0.990  52.280  1.00  0.00     0.138 A 
HETATM   17  N5  UNL     1      25.452   0.707  52.415  1.00  0.00    -0.214 NA
HETATM   18  C24 UNL     1      24.528   1.411  51.815  1.00  0.00     0.146 A 
HETATM   19  H9  UNL     1      25.703  -1.818  55.370  1.00  0.00     0.315 HD
ENDROOT
BRANCH  12  20
HETATM   20  C13 UNL     1      23.707   4.184  49.621  1.00  0.00     0.070 C 
BRANCH  20  21
HETATM   21  C14 UNL     1      22.475   4.231  48.796  1.00  0.00     0.002 C 
BRANCH  21  22
HETATM   22  C15 UNL     1      21.834   5.363  48.665  1.00  0.00     0.131 C 
BRANCH  22  23
HETATM   23  O1  UNL     1      21.362   6.656  48.543  1.00  0.00    -0.361 OA
BRANCH  23  24
HETATM   24  C16 UNL     1      21.352   7.546  49.653  1.00  0.00     0.206 C 
BRANCH  24  25
HETATM   25  C17 UNL     1      22.565   8.414  49.678  1.00  0.00     0.145 C 
HETATM   26  C18 UNL     1      23.615   7.802  50.613  1.00  0.00     0.036 C 
HETATM   27  C19 UNL     1      24.849   8.547  50.135  1.00  0.00     0.029 C 
HETATM   28  C20 UNL     1      24.511   8.854  48.697  1.00  0.00     0.168 C 
HETATM   29  O2  UNL     1      23.242   8.363  48.459  1.00  0.00    -0.384 OA
ENDBRANCH  24  25
ENDBRANCH  23  24
ENDBRANCH  22  23
ENDBRANCH  21  22
ENDBRANCH  20  21
ENDBRANCH  12  20
BRANCH  14  30
HETATM   30  N3  UNL     1      26.724   3.833  50.086  1.00  0.00    -0.383 N 
HETATM   31  H32 UNL     1      27.192   3.981  49.143  1.00  0.00     0.157 HD
HETATM   32  H33 UNL     1      26.725   4.849  50.332  1.00  0.00     0.157 HD
ENDBRANCH  14  30
BRANCH   1  33
HETATM   33  C2  UNL     1      26.976  -1.407  52.755  1.00  0.00    -0.025 C 
HETATM   34  C1  UNL     1      28.023  -2.200  52.917  1.00  0.00     0.008 C 
ENDBRANCH   1  33
TORSDOF 8
ENDMDL
MODEL 4
REMARK VINA RESULT:      -7.4      3.685      7.628
REMARK  8 active torsions:
REMARK  status: ('A' for Active; 'I' for Inactive)
REMARK    1  A    between atoms: C2_2  and  C3_3 
REMARK    2  A    between atoms: C12_14  and  C13_15 
REMARK    3  A    between atoms: C13_15  and  C14_16 
REMARK    4  A    between atoms: C14_16  and  C15_17 
REMARK    5  A    between atoms: C15_17  and  O1_18 
REMARK    6  A    between atoms: O1_18  and  C16_19 
REMARK    7  A    between atoms: C16_19  and  C17_20 
REMARK    8  A    between atoms: C22_26  and  N3_27 
ROOT
HETATM    1  C3  UNL     1      18.436   2.528  50.515  1.00  0.00     0.081 C 
HETATM    2  C4  UNL     1      18.579   3.926  51.079  1.00  0.00     0.046 C 
HETATM    3  C5  UNL     1      20.035   4.400  51.096  1.00  0.00     0.270 C 
HETATM    4  N1  UNL     1      20.614   4.484  49.837  1.00  0.00     0.083 N 
HETATM    5  C6  UNL     1      21.954   4.838  49.718  1.00  0.00     0.274 C 
HETATM    6  C7  UNL     1      23.054   3.911  50.017  1.00  0.00     0.017 C 
HETATM    7  C8  UNL     1      22.777   2.465  49.626  1.00  0.00     0.032 C 
HETATM    8  C9  UNL     1      23.401   2.052  50.908  1.00  0.00     0.092 C 
HETATM    9  C10 UNL     1      23.309   3.475  51.410  1.00  0.00     0.032 C 
HETATM   10  N2  UNL     1      22.608   1.186  51.709  1.00  0.00    -0.336 N 
HETATM   11  C11 UNL     1      23.099   0.238  52.567  1.00  0.00     0.101 A 
HETATM   12  C12 UNL     1      22.074  -0.444  53.181  1.00  0.00    -0.021 A 
HETATM   13  C21 UNL     1      20.939   0.112  52.675  1.00  0.00     0.064 A 
HETATM   14  C22 UNL     1      19.618  -0.159  52.916  1.00  0.00     0.138 A 
HETATM   15  N4  UNL     1      18.662   0.562  52.265  1.00  0.00    -0.215 NA
HETATM   16  C23 UNL     1      19.071   1.522  51.399  1.00  0.00     0.138 A 
HETATM   17  N5  UNL     1      20.366   1.760  51.187  1.00  0.00    -0.214 NA
HETATM   18  C24 UNL     1      21.300   1.081  51.800  1.00  0.00     0.146 A 
HETATM   19  H9  UNL     1      20.037   5.107  49.223  1.00  0.00     0.315 HD
ENDROOT
BRANCH  12  20
HETATM   20  C13 UNL     1      22.158  -1.539  54.161  1.00  0.00     0.070 C 
BRANCH  20  21
HETATM   21  C14 UNL     1      23.006  -1.228  55.339  1.00  0.00     0.002 C 
BRANCH  21  22
HETATM   22  C15 UNL     1      24.301  -1.137  55.189  1.00  0.00     0.131 C 
BRANCH  22  23
HETATM   23  O1  UNL     1      25.633  -0.820  54.999  1.00  0.00    -0.361 OA
BRANCH  23  24
HETATM   24  C16 UNL     1      26.272  -1.040  53.747  1.00  0.00     0.206 C 
BRANCH  24  25
HETATM   25  C17 UNL     1      27.186   0.084  53.387  1.00  0.00     0.145 C 
HETATM   26  C18 UNL     1      26.620   0.840  52.179  1.00  0.00     0.036 C 
HETATM   27  C19 UNL     1      27.408   2.133  52.293  1.00  0.00     0.029 C 
HETATM   28  C20 UNL     1      27.694   2.214  53.771  1.00  0.00     0.168 C 
HETATM   29  O2  UNL     1      27.154   1.086  54.358  1.00  0.00    -0.384 OA
ENDBRANCH  24  25
ENDBRANCH  23  24
ENDBRANCH  22  23
ENDBRANCH  21  22
ENDBRANCH  20  21
ENDBRANCH  12  20
BRANCH  14  30
HETATM   30  N3  UNL     1      19.132  -1.145  53.805  1.00  0.00    -0.383 N 
HETATM   31  H32 UNL     1      19.479  -1.728  54.622  1.00  0.00     0.157 HD
HETATM   32  H33 UNL     1      18.170  -1.553  53.822  1.00  0.00     0.157 HD
ENDBRANCH  14  30
BRANCH   1  33
HETATM   33  C2  UNL     1      18.878   2.410  49.120  1.00  0.00    -0.025 C 
HETATM   34  C1  UNL     1      17.861   2.731  48.336  1.00  0.00     0.008 C 
ENDBRANCH   1  33
TORSDOF 8
ENDMDL
MODEL 5
REMARK VINA RESULT:      -7.4      4.994      8.217
REMARK  8 active torsions:
REMARK  status: ('A' for Active; 'I' for Inactive)
REMARK    1  A    between atoms: C2_2  and  C3_3 
REMARK    2  A    between atoms: C12_14  and  C13_15 
REMARK    3  A    between atoms: C13_15  and  C14_16 
REMARK    4  A    between atoms: C14_16  and  C15_17 
REMARK    5  A    between atoms: C15_17  and  O1_18 
REMARK    6  A    between atoms: O1_18  and  C16_19 
REMARK    7  A    between atoms: C16_19  and  C17_20 
REMARK    8  A    between atoms: C22_26  and  N3_27 
ROOT
HETATM    1  C3  UNL     1      25.958  -0.477  53.955  1.00  0.00     0.081 C 
HETATM    2  C4  UNL     1      26.600  -0.816  52.626  1.00  0.00     0.046 C 
HETATM    3  C5  UNL     1      26.342   0.257  51.565  1.00  0.00     0.270 C 
HETATM    4  N1  UNL     1      26.867   1.502  51.884  1.00  0.00     0.083 N 
HETATM    5  C6  UNL     1      26.644   2.581  51.035  1.00  0.00     0.274 C 
HETATM    6  C7  UNL     1      25.358   3.288  50.964  1.00  0.00     0.017 C 
HETATM    7  C8  UNL     1      24.640   3.417  52.300  1.00  0.00     0.032 C 
HETATM    8  C9  UNL     1      23.374   3.098  51.594  1.00  0.00     0.092 C 
HETATM    9  C10 UNL     1      24.164   2.617  50.398  1.00  0.00     0.032 C 
HETATM   10  N2  UNL     1      22.624   2.031  52.160  1.00  0.00    -0.336 N 
HETATM   11  C11 UNL     1      21.260   1.916  52.110  1.00  0.00     0.101 A 
HETATM   12  C12 UNL     1      20.841   0.780  52.766  1.00  0.00    -0.021 A 
HETATM   13  C21 UNL     1      21.988   0.203  53.219  1.00  0.00     0.064 A 
HETATM   14  C22 UNL     1      22.195  -0.945  53.937  1.00  0.00     0.138 A 
HETATM   15  N4  UNL     1      23.468  -1.305  54.265  1.00  0.00    -0.215 NA
HETATM   16  C23 UNL     1      24.479  -0.496  53.860  1.00  0.00     0.138 A 
HETATM   17  N5  UNL     1      24.242   0.616  53.162  1.00  0.00    -0.214 NA
HETATM   18  C24 UNL     1      23.030   0.979  52.837  1.00  0.00     0.146 A 
HETATM   19  H9  UNL     1      27.894   1.415  52.070  1.00  0.00     0.315 HD
ENDROOT
BRANCH  12  20
HETATM   20  C13 UNL     1      19.469   0.284  52.956  1.00  0.00     0.070 C 
BRANCH  20  21
HETATM   21  C14 UNL     1      18.699   0.147  51.695  1.00  0.00     0.002 C 
BRANCH  21  22
HETATM   22  C15 UNL     1      17.506   0.674  51.613  1.00  0.00     0.131 C 
BRANCH  22  23
HETATM   23  O1  UNL     1      16.190   1.089  51.694  1.00  0.00    -0.361 OA
BRANCH  23  24
HETATM   24  C16 UNL     1      15.853   2.471  51.730  1.00  0.00     0.206 C 
BRANCH  24  25
HETATM   25  C17 UNL     1      14.777   2.754  52.725  1.00  0.00     0.145 C 
HETATM   26  C18 UNL     1      14.931   4.183  53.255  1.00  0.00     0.036 C 
HETATM   27  C19 UNL     1      13.544   4.389  53.841  1.00  0.00     0.029 C 
HETATM   28  C20 UNL     1      12.692   3.475  52.997  1.00  0.00     0.168 C 
HETATM   29  O2  UNL     1      13.531   2.840  52.102  1.00  0.00    -0.384 OA
ENDBRANCH  24  25
ENDBRANCH  23  24
ENDBRANCH  22  23
ENDBRANCH  21  22
ENDBRANCH  20  21
ENDBRANCH  12  20
BRANCH  14  30
HETATM   30  N3  UNL     1      21.184  -1.826  54.386  1.00  0.00    -0.383 N 
HETATM   31  H32 UNL     1      20.472  -1.895  55.173  1.00  0.00     0.157 HD
HETATM   32  H33 UNL     1      20.904  -2.733  53.949  1.00  0.00     0.157 HD
ENDBRANCH  14  30
BRANCH   1  33
HETATM   33  C2  UNL     1      26.468   0.763  54.553  1.00  0.00    -0.025 C 
HETATM   34  C1  UNL     1      27.703   0.541  54.973  1.00  0.00     0.008 C 
ENDBRANCH   1  33
TORSDOF 8
ENDMDL
MODEL 6
REMARK VINA RESULT:      -7.4      4.838      8.547
REMARK  8 active torsions:
REMARK  status: ('A' for Active; 'I' for Inactive)
REMARK    1  A    between atoms: C2_2  and  C3_3 
REMARK    2  A    between atoms: C12_14  and  C13_15 
REMARK    3  A    between atoms: C13_15  and  C14_16 
REMARK    4  A    between atoms: C14_16  and  C15_17 
REMARK    5  A    between atoms: C15_17  and  O1_18 
REMARK    6  A    between atoms: O1_18  and  C16_19 
REMARK    7  A    between atoms: C16_19  and  C17_20 
REMARK    8  A    between atoms: C22_26  and  N3_27 
ROOT
HETATM    1  C3  UNL     1      16.290   1.173  50.958  1.00  0.00     0.081 C 
HETATM    2  C4  UNL     1      15.926   2.489  51.613  1.00  0.00     0.046 C 
HETATM    3  C5  UNL     1      17.098   3.473  51.634  1.00  0.00     0.270 C 
HETATM    4  N1  UNL     1      17.549   3.838  50.372  1.00  0.00     0.083 N 
HETATM    5  C6  UNL     1      18.654   4.675  50.252  1.00  0.00     0.274 C 
HETATM    6  C7  UNL     1      20.032   4.213  50.465  1.00  0.00     0.017 C 
HETATM    7  C8  UNL     1      20.298   2.794  49.983  1.00  0.00     0.032 C 
HETATM    8  C9  UNL     1      21.086   2.574  51.222  1.00  0.00     0.092 C 
HETATM    9  C10 UNL     1      20.492   3.828  51.820  1.00  0.00     0.032 C 
HETATM   10  N2  UNL     1      20.709   1.431  51.977  1.00  0.00    -0.336 N 
HETATM   11  C11 UNL     1      21.556   0.690  52.759  1.00  0.00     0.101 A 
HETATM   12  C12 UNL     1      20.886  -0.361  53.345  1.00  0.00    -0.021 A 
HETATM   13  C21 UNL     1      19.605  -0.244  52.899  1.00  0.00     0.064 A 
HETATM   14  C22 UNL     1      18.493  -1.003  53.147  1.00  0.00     0.138 A 
HETATM   15  N4  UNL     1      17.309  -0.659  52.566  1.00  0.00    -0.215 NA
HETATM   16  C23 UNL     1      17.293   0.431  51.760  1.00  0.00     0.138 A 
HETATM   17  N5  UNL     1      18.395   1.149  51.538  1.00  0.00    -0.214 NA
HETATM   18  C24 UNL     1      19.540   0.838  52.086  1.00  0.00     0.146 A 
HETATM   19  H9  UNL     1      16.755   4.232  49.814  1.00  0.00     0.315 HD
ENDROOT
BRANCH  12  20
HETATM   20  C13 UNL     1      21.415  -1.396  54.247  1.00  0.00     0.070 C 
BRANCH  20  21
HETATM   21  C14 UNL     1      22.490  -0.916  55.150  1.00  0.00     0.002 C 
BRANCH  21  22
HETATM   22  C15 UNL     1      23.739  -1.082  54.804  1.00  0.00     0.131 C 
BRANCH  22  23
HETATM   23  O1  UNL     1      25.080  -1.034  54.470  1.00  0.00    -0.361 OA
BRANCH  23  24
HETATM   24  C16 UNL     1      25.742   0.207  54.253  1.00  0.00     0.206 C 
BRANCH  24  25
HETATM   25  C17 UNL     1      27.204   0.112  54.537  1.00  0.00     0.145 C 
HETATM   26  C18 UNL     1      27.905  -0.611  53.382  1.00  0.00     0.036 C 
HETATM   27  C19 UNL     1      29.340  -0.189  53.648  1.00  0.00     0.029 C 
HETATM   28  C20 UNL     1      29.168   1.137  54.346  1.00  0.00     0.168 C 
HETATM   29  O2  UNL     1      27.810   1.367  54.464  1.00  0.00    -0.384 OA
ENDBRANCH  24  25
ENDBRANCH  23  24
ENDBRANCH  22  23
ENDBRANCH  21  22
ENDBRANCH  20  21
ENDBRANCH  12  20
BRANCH  14  30
HETATM   30  N3  UNL     1      18.448  -2.147  53.976  1.00  0.00    -0.383 N 
HETATM   31  H32 UNL     1      18.897  -2.507  54.870  1.00  0.00     0.157 HD
HETATM   32  H33 UNL     1      17.861  -3.000  53.837  1.00  0.00     0.157 HD
ENDBRANCH  14  30
BRANCH   1  33
HETATM   33  C2  UNL     1      16.684   1.308  49.550  1.00  0.00    -0.025 C 
HETATM   34  C1  UNL     1      15.594   1.199  48.805  1.00  0.00     0.008 C 
ENDBRANCH   1  33
TORSDOF 8
ENDMDL
MODEL 7
REMARK VINA RESULT:      -7.4      4.886      8.804
REMARK  8 active torsions:
REMARK  status: ('A' for Active; 'I' for Inactive)
REMARK    1  A    between atoms: C2_2  and  C3_3 
REMARK    2  A    between atoms: C12_14  and  C13_15 
REMARK    3  A    between atoms: C13_15  and  C14_16 
REMARK    4  A    between atoms: C14_16  and  C15_17 
REMARK    5  A    between atoms: C15_17  and  O1_18 
REMARK    6  A    between atoms: O1_18  and  C16_19 
REMARK    7  A    between atoms: C16_19  and  C17_20 
REMARK    8  A    between atoms: C22_26  and  N3_27 
ROOT
HETATM    1  C3  UNL     1      25.889  -0.505  53.964  1.00  0.00     0.081 C 
HETATM    2  C4  UNL     1      26.582  -0.848  52.661  1.00  0.00     0.046 C 
HETATM    3  C5  UNL     1      26.368   0.224  51.590  1.00  0.00     0.270 C 
HETATM    4  N1  UNL     1      26.882   1.469  51.928  1.00  0.00     0.083 N 
HETATM    5  C6  UNL     1      26.695   2.547  51.069  1.00  0.00     0.274 C 
HETATM    6  C7  UNL     1      25.414   3.257  50.947  1.00  0.00     0.017 C 
HETATM    7  C8  UNL     1      24.645   3.389  52.254  1.00  0.00     0.032 C 
HETATM    8  C9  UNL     1      23.407   3.070  51.499  1.00  0.00     0.092 C 
HETATM    9  C10 UNL     1      24.242   2.587  50.336  1.00  0.00     0.032 C 
HETATM   10  N2  UNL     1      22.633   2.007  52.036  1.00  0.00    -0.336 N 
HETATM   11  C11 UNL     1      21.272   1.894  51.934  1.00  0.00     0.101 A 
HETATM   12  C12 UNL     1      20.826   0.760  52.575  1.00  0.00    -0.021 A 
HETATM   13  C21 UNL     1      21.953   0.180  53.073  1.00  0.00     0.064 A 
HETATM   14  C22 UNL     1      22.129  -0.967  53.800  1.00  0.00     0.138 A 
HETATM   15  N4  UNL     1      23.388  -1.328  54.177  1.00  0.00    -0.215 NA
HETATM   16  C23 UNL     1      24.415  -0.522  53.811  1.00  0.00     0.138 A 
HETATM   17  N5  UNL     1      24.208   0.590  53.103  1.00  0.00    -0.214 NA
HETATM   18  C24 UNL     1      23.010   0.955  52.730  1.00  0.00     0.146 A 
HETATM   19  H9  UNL     1      27.902   1.380  52.154  1.00  0.00     0.315 HD
ENDROOT
BRANCH  12  20
HETATM   20  C13 UNL     1      19.446   0.266  52.711  1.00  0.00     0.070 C 
BRANCH  20  21
HETATM   21  C14 UNL     1      18.770   0.002  51.417  1.00  0.00     0.002 C 
BRANCH  21  22
HETATM   22  C15 UNL     1      17.503  -0.316  51.409  1.00  0.00     0.131 C 
BRANCH  22  23
HETATM   23  O1  UNL     1      16.140  -0.492  51.560  1.00  0.00    -0.361 OA
BRANCH  23  24
HETATM   24  C16 UNL     1      15.611  -1.279  52.621  1.00  0.00     0.206 C 
BRANCH  24  25
HETATM   25  C17 UNL     1      15.956  -2.723  52.464  1.00  0.00     0.145 C 
HETATM   26  C18 UNL     1      17.045  -3.104  53.473  1.00  0.00     0.036 C 
HETATM   27  C19 UNL     1      16.894  -4.615  53.454  1.00  0.00     0.029 C 
HETATM   28  C20 UNL     1      15.444  -4.796  53.083  1.00  0.00     0.168 C 
HETATM   29  O2  UNL     1      14.907  -3.537  52.894  1.00  0.00    -0.384 OA
ENDBRANCH  24  25
ENDBRANCH  23  24
ENDBRANCH  22  23
ENDBRANCH  21  22
ENDBRANCH  20  21
ENDBRANCH  12  20
BRANCH  14  30
HETATM   30  N3  UNL     1      21.100  -1.845  54.210  1.00  0.00    -0.383 N 
HETATM   31  H32 UNL     1      20.996  -2.792  54.682  1.00  0.00     0.157 HD
HETATM   32  H33 UNL     1      20.071  -1.698  54.104  1.00  0.00     0.157 HD
ENDBRANCH  14  30
BRANCH   1  33
HETATM   33  C2  UNL     1      26.378   0.735  54.580  1.00  0.00    -0.025 C 
HETATM   34  C1  UNL     1      27.605   0.518  55.026  1.00  0.00     0.008 C 
ENDBRANCH   1  33
TORSDOF 8
ENDMDL
MODEL 8
REMARK VINA RESULT:      -7.4      3.733      9.620
REMARK  8 active torsions:
REMARK  status: ('A' for Active; 'I' for Inactive)
REMARK    1  A    between atoms: C2_2  and  C3_3 
REMARK    2  A    between atoms: C12_14  and  C13_15 
REMARK    3  A    between atoms: C13_15  and  C14_16 
REMARK    4  A    between atoms: C14_16  and  C15_17 
REMARK    5  A    between atoms: C15_17  and  O1_18 
REMARK    6  A    between atoms: O1_18  and  C16_19 
REMARK    7  A    between atoms: C16_19  and  C17_20 
REMARK    8  A    between atoms: C22_26  and  N3_27 
ROOT
HETATM    1  C3  UNL     1      28.637  10.346  48.155  1.00  0.00     0.081 C 
HETATM    2  C4  UNL     1      29.655  10.601  49.247  1.00  0.00     0.046 C 
HETATM    3  C5  UNL     1      30.710   9.494  49.328  1.00  0.00     0.270 C 
HETATM    4  N1  UNL     1      31.476   9.361  48.177  1.00  0.00     0.083 N 
HETATM    5  C6  UNL     1      32.426   8.348  48.097  1.00  0.00     0.274 C 
HETATM    6  C7  UNL     1      32.073   6.940  47.865  1.00  0.00     0.017 C 
HETATM    7  C8  UNL     1      30.895   6.738  46.921  1.00  0.00     0.032 C 
HETATM    8  C9  UNL     1      30.408   5.677  47.839  1.00  0.00     0.092 C 
HETATM    9  C10 UNL     1      31.359   6.166  48.907  1.00  0.00     0.032 C 
HETATM   10  N2  UNL     1      29.059   5.825  48.263  1.00  0.00    -0.336 N 
HETATM   11  C11 UNL     1      28.217   4.792  48.582  1.00  0.00     0.101 A 
HETATM   12  C12 UNL     1      26.975   5.267  48.938  1.00  0.00    -0.021 A 
HETATM   13  C21 UNL     1      27.079   6.620  48.828  1.00  0.00     0.064 A 
HETATM   14  C22 UNL     1      26.165   7.614  49.052  1.00  0.00     0.138 A 
HETATM   15  N4  UNL     1      26.535   8.913  48.866  1.00  0.00    -0.215 NA
HETATM   16  C23 UNL     1      27.805   9.157  48.460  1.00  0.00     0.138 A 
HETATM   17  N5  UNL     1      28.671   8.165  48.249  1.00  0.00    -0.214 NA
HETATM   18  C24 UNL     1      28.338   6.913  48.422  1.00  0.00     0.146 A 
HETATM   19  H9  UNL     1      31.929  10.278  47.947  1.00  0.00     0.315 HD
ENDROOT
BRANCH  12  20
HETATM   20  C13 UNL     1      25.784   4.504  49.344  1.00  0.00     0.070 C 
BRANCH  20  21
HETATM   21  C14 UNL     1      26.073   3.106  49.750  1.00  0.00     0.002 C 
BRANCH  21  22
HETATM   22  C15 UNL     1      26.298   2.838  51.009  1.00  0.00     0.131 C 
BRANCH  22  23
HETATM   23  O1  UNL     1      26.319   2.486  52.346  1.00  0.00    -0.361 OA
BRANCH  23  24
HETATM   24  C16 UNL     1      25.701   1.289  52.803  1.00  0.00     0.206 C 
BRANCH  24  25
HETATM   25  C17 UNL     1      26.632   0.464  53.627  1.00  0.00     0.145 C 
HETATM   26  C18 UNL     1      27.542  -0.357  52.707  1.00  0.00     0.036 C 
HETATM   27  C19 UNL     1      28.643  -0.718  53.690  1.00  0.00     0.029 C 
HETATM   28  C20 UNL     1      28.595   0.427  54.671  1.00  0.00     0.168 C 
HETATM   29  O2  UNL     1      27.573   1.268  54.274  1.00  0.00    -0.384 OA
ENDBRANCH  24  25
ENDBRANCH  23  24
ENDBRANCH  22  23
ENDBRANCH  21  22
ENDBRANCH  20  21
ENDBRANCH  12  20
BRANCH  14  30
HETATM   30  N3  UNL     1      24.829   7.421  49.476  1.00  0.00    -0.383 N 
HETATM   31  H32 UNL     1      23.844   7.539  49.096  1.00  0.00     0.157 HD
HETATM   32  H33 UNL     1      24.512   7.065  50.405  1.00  0.00     0.157 HD
ENDBRANCH  14  30
BRANCH   1  33
HETATM   33  C2  UNL     1      29.221  10.294  46.809  1.00  0.00    -0.025 C 
HETATM   34  C1  UNL     1      29.192  11.515  46.299  1.00  0.00     0.008 C 
ENDBRANCH   1  33
TORSDOF 8
ENDMDL
MODEL 9
REMARK VINA RESULT:      -7.3      2.791      4.865
REMARK  8 active torsions:
REMARK  status: ('A' for Active; 'I' for Inactive)
REMARK    1  A    between atoms: C2_2  and  C3_3 
REMARK    2  A    between atoms: C12_14  and  C13_15 
REMARK    3  A    between atoms: C13_15  and  C14_16 
REMARK    4  A    between atoms: C14_16  and  C15_17 
REMARK    5  A    between atoms: C15_17  and  O1_18 
REMARK    6  A    between atoms: O1_18  and  C16_19 
REMARK    7  A    between atoms: C16_19  and  C17_20 
REMARK    8  A    between atoms: C22_26  and  N3_27 
ROOT
HETATM    1  C3  UNL     1      27.391  -0.001  53.232  1.00  0.00     0.081 C 
HETATM    2  C4  UNL     1      27.157   0.266  54.705  1.00  0.00     0.046 C 
HETATM    3  C5  UNL     1      25.682   0.128  55.093  1.00  0.00     0.270 C 
HETATM    4  N1  UNL     1      25.165  -1.145  54.895  1.00  0.00     0.083 N 
HETATM    5  C6  UNL     1      23.818  -1.387  55.146  1.00  0.00     0.274 C 
HETATM    6  C7  UNL     1      22.747  -0.954  54.237  1.00  0.00     0.017 C 
HETATM    7  C8  UNL     1      23.108  -1.036  52.760  1.00  0.00     0.032 C 
HETATM    8  C9  UNL     1      22.439   0.276  52.576  1.00  0.00     0.092 C 
HETATM    9  C10 UNL     1      22.441   0.486  54.072  1.00  0.00     0.032 C 
HETATM   10  N2  UNL     1      23.228   1.265  51.929  1.00  0.00    -0.336 N 
HETATM   11  C11 UNL     1      22.737   2.275  51.144  1.00  0.00     0.101 A 
HETATM   12  C12 UNL     1      23.760   3.054  50.653  1.00  0.00    -0.021 A 
HETATM   13  C21 UNL     1      24.893   2.493  51.159  1.00  0.00     0.064 A 
HETATM   14  C22 UNL     1      26.210   2.838  51.013  1.00  0.00     0.138 A 
HETATM   15  N4  UNL     1      27.165   2.096  51.642  1.00  0.00    -0.215 NA
HETATM   16  C23 UNL     1      26.758   1.040  52.388  1.00  0.00     0.138 A 
HETATM   17  N5  UNL     1      25.466   0.731  52.509  1.00  0.00    -0.214 NA
HETATM   18  C24 UNL     1      24.533   1.429  51.915  1.00  0.00     0.146 A 
HETATM   19  H9  UNL     1      25.744  -1.847  55.415  1.00  0.00     0.315 HD
ENDROOT
BRANCH  12  20
HETATM   20  C13 UNL     1      23.675   4.229  49.771  1.00  0.00     0.070 C 
BRANCH  20  21
HETATM   21  C14 UNL     1      22.889   5.352  50.339  1.00  0.00     0.002 C 
BRANCH  21  22
HETATM   22  C15 UNL     1      21.627   5.475  50.023  1.00  0.00     0.131 C 
BRANCH  22  23
HETATM   23  O1  UNL     1      20.252   5.549  49.905  1.00  0.00    -0.361 OA
BRANCH  23  24
HETATM   24  C16 UNL     1      19.545   4.725  48.985  1.00  0.00     0.206 C 
BRANCH  24  25
HETATM   25  C17 UNL     1      18.468   3.940  49.658  1.00  0.00     0.145 C 
HETATM   26  C18 UNL     1      19.095   2.809  50.481  1.00  0.00     0.036 C 
HETATM   27  C19 UNL     1      17.925   2.476  51.391  1.00  0.00     0.029 C 
HETATM   28  C20 UNL     1      17.184   3.787  51.466  1.00  0.00     0.168 C 
HETATM   29  O2  UNL     1      17.859   4.689  50.666  1.00  0.00    -0.384 OA
ENDBRANCH  24  25
ENDBRANCH  23  24
ENDBRANCH  22  23
ENDBRANCH  21  22
ENDBRANCH  20  21
ENDBRANCH  12  20
BRANCH  14  30
HETATM   30  N3  UNL     1      26.695   3.925  50.250  1.00  0.00    -0.383 N 
HETATM   31  H32 UNL     1      26.832   4.974  50.348  1.00  0.00     0.157 HD
HETATM   32  H33 UNL     1      27.073   3.888  49.277  1.00  0.00     0.157 HD
ENDBRANCH  14  30
BRANCH   1  33
HETATM   33  C2  UNL     1      27.026  -1.362  52.817  1.00  0.00    -0.025 C 
HETATM   34  C1  UNL     1      28.094  -2.133  52.947  1.00  0.00     0.008 C 
ENDBRANCH   1  33
TORSDOF 8
ENDMDL
