MODEL 1
REMARK VINA RESULT:      -7.3      0.000      0.000
REMARK  4 active torsions:
REMARK  status: ('A' for Active; 'I' for Inactive)
REMARK    1  A    between atoms: O1_2  and  C2_3 
REMARK    2  A    between atoms: C2_3  and  O2_4 
REMARK    3  A    between atoms: O2_4  and  C3_5 
REMARK       I    between atoms: N4_17  and  C12_18 
REMARK       I    between atoms: C12_18  and  N5_20 
REMARK    4  A    between atoms: N5_20  and  C13_21 
ROOT
HETATM    1  C3  UNL     1      24.822   0.588  52.665  1.00  0.00     0.157 C 
HETATM    2  C4  UNL     1      25.353  -0.465  53.600  1.00  0.00     0.035 C 
HETATM    3  C5  UNL     1      26.518  -1.221  52.990  1.00  0.00    -0.019 C 
HETATM    4  C6  UNL     1      27.634  -1.839  52.530  1.00  0.00     0.040 C 
HETATM    5  C7  UNL     1      28.961  -1.518  53.155  1.00  0.00     0.236 C 
HETATM    6  N1  UNL     1      29.496  -0.655  54.065  1.00  0.00    -0.299 NA
HETATM    7  C8  UNL     1      28.468   0.259  54.605  1.00  0.00     0.162 C 
HETATM    8  N2  UNL     1      27.580   1.092  54.240  1.00  0.00    -0.288 NA
HETATM    9  C9  UNL     1      27.159   1.543  52.953  1.00  0.00     0.186 C 
HETATM   10  C10 UNL     1      25.704   1.809  52.925  1.00  0.00     0.110 C 
HETATM   11  C11 UNL     1      25.180   2.501  54.200  1.00  0.00     0.148 C 
HETATM   12  N3  UNL     1      24.335   3.191  53.265  1.00  0.00    -0.231 NA
HETATM   13  N4  UNL     1      25.289   3.024  52.251  1.00  0.00    -0.248 N 
HETATM   14  C12 UNL     1      25.694   3.725  51.075  1.00  0.00     0.338 C 
HETATM   15  O3  UNL     1      26.616   3.369  50.267  1.00  0.00    -0.245 OA
HETATM   16  N5  UNL     1      25.012   4.937  50.764  1.00  0.00    -0.307 N 
HETATM   17  H17 UNL     1      24.137   4.193  53.483  1.00  0.00     0.146 HD
HETATM   18  H18 UNL     1      24.237   5.274  51.408  1.00  0.00     0.170 HD
ENDROOT
BRANCH   1  19
HETATM   19  O2  UNL     1      23.529   0.989  53.076  1.00  0.00    -0.359 OA
BRANCH  19  20
HETATM   20  C2  UNL     1      22.674  -0.113  53.023  1.00  0.00     0.337 C 
BRANCH  20  21
HETATM   21  O1  UNL     1      21.888  -0.100  54.166  1.00  0.00    -0.372 OA
HETATM   22  C1  UNL     1      21.572  -1.422  54.531  1.00  0.00     0.204 C 
ENDBRANCH  20  21
ENDBRANCH  19  20
ENDBRANCH   1  19
BRANCH  16  23
HETATM   23  C13 UNL     1      25.268   5.788  49.626  1.00  0.00     0.043 A 
HETATM   24  C14 UNL     1      24.126   5.774  48.910  1.00  0.00     0.037 A 
HETATM   25  C15 UNL     1      24.230   6.590  47.711  1.00  0.00     0.052 A 
HETATM   26  S1  UNL     1      25.979   7.303  47.731  1.00  0.00    -0.111 SA
HETATM   27  C16 UNL     1      26.397   6.450  49.327  1.00  0.00     0.079 A 
ENDBRANCH  16  23
TORSDOF 4
ENDMDL
MODEL 2
REMARK VINA RESULT:      -7.1      3.759      7.214
REMARK  4 active torsions:
REMARK  status: ('A' for Active; 'I' for Inactive)
REMARK    1  A    between atoms: O1_2  and  C2_3 
REMARK    2  A    between atoms: C2_3  and  O2_4 
REMARK    3  A    between atoms: O2_4  and  C3_5 
REMARK       I    between atoms: N4_17  and  C12_18 
REMARK       I    between atoms: C12_18  and  N5_20 
REMARK    4  A    between atoms: N5_20  and  C13_21 
ROOT
HETATM    1  C3  UNL     1      22.709   4.011  50.178  1.00  0.00     0.157 C 
HETATM    2  C4  UNL     1      21.279   4.244  49.769  1.00  0.00     0.035 C 
HETATM    3  C5  UNL     1      20.601   2.958  49.340  1.00  0.00    -0.019 C 
HETATM    4  C6  UNL     1      19.924   1.815  49.062  1.00  0.00     0.040 C 
HETATM    5  C7  UNL     1      18.898   1.315  50.038  1.00  0.00     0.236 C 
HETATM    6  N1  UNL     1      18.429   1.601  51.286  1.00  0.00    -0.299 NA
HETATM    7  C8  UNL     1      19.149   2.747  51.879  1.00  0.00     0.162 C 
HETATM    8  N2  UNL     1      20.319   3.158  52.154  1.00  0.00    -0.288 NA
HETATM    9  C9  UNL     1      21.609   2.578  51.964  1.00  0.00     0.186 C 
HETATM   10  C10 UNL     1      22.622   3.609  51.649  1.00  0.00     0.110 C 
HETATM   11  C11 UNL     1      22.467   4.899  52.479  1.00  0.00     0.148 C 
HETATM   12  N3  UNL     1      23.903   4.877  52.457  1.00  0.00    -0.231 NA
HETATM   13  N4  UNL     1      23.897   3.481  52.329  1.00  0.00    -0.248 N 
HETATM   14  C12 UNL     1      24.749   2.396  52.698  1.00  0.00     0.338 C 
HETATM   15  O3  UNL     1      24.539   1.160  52.462  1.00  0.00    -0.245 OA
HETATM   16  N5  UNL     1      25.951   2.712  53.396  1.00  0.00    -0.307 N 
HETATM   17  H17 UNL     1      24.377   5.208  53.326  1.00  0.00     0.146 HD
HETATM   18  H18 UNL     1      26.169   3.729  53.615  1.00  0.00     0.170 HD
ENDROOT
BRANCH   1  19
HETATM   19  O2  UNL     1      23.413   5.238  50.184  1.00  0.00    -0.359 OA
BRANCH  19  20
HETATM   20  C2  UNL     1      24.379   5.212  49.177  1.00  0.00     0.337 C 
BRANCH  20  21
HETATM   21  O1  UNL     1      25.625   5.319  49.775  1.00  0.00    -0.372 OA
HETATM   22  C1  UNL     1      26.325   4.108  49.619  1.00  0.00     0.204 C 
ENDBRANCH  20  21
ENDBRANCH  19  20
ENDBRANCH   1  19
BRANCH  16  23
HETATM   23  C13 UNL     1      26.941   1.767  53.854  1.00  0.00     0.043 A 
HETATM   24  C14 UNL     1      28.115   2.225  53.373  1.00  0.00     0.037 A 
HETATM   25  C15 UNL     1      29.225   1.363  53.747  1.00  0.00     0.052 A 
HETATM   26  S1  UNL     1      28.463  -0.036  54.763  1.00  0.00    -0.111 SA
HETATM   27  C16 UNL     1      26.751   0.662  54.591  1.00  0.00     0.079 A 
ENDBRANCH  16  23
TORSDOF 4
ENDMDL
MODEL 3
REMARK VINA RESULT:      -7.0      3.601      7.648
REMARK  4 active torsions:
REMARK  status: ('A' for Active; 'I' for Inactive)
REMARK    1  A    between atoms: O1_2  and  C2_3 
REMARK    2  A    between atoms: C2_3  and  O2_4 
REMARK    3  A    between atoms: O2_4  and  C3_5 
REMARK       I    between atoms: N4_17  and  C12_18 
REMARK       I    between atoms: C12_18  and  N5_20 
REMARK    4  A    between atoms: N5_20  and  C13_21 
ROOT
HETATM    1  C3  UNL     1      23.601   5.472  50.235  1.00  0.00     0.157 C 
HETATM    2  C4  UNL     1      22.392   5.829  49.413  1.00  0.00     0.035 C 
HETATM    3  C5  UNL     1      22.270   4.951  48.183  1.00  0.00    -0.019 C 
HETATM    4  C6  UNL     1      22.059   4.112  47.137  1.00  0.00     0.040 C 
HETATM    5  C7  UNL     1      20.933   3.122  47.207  1.00  0.00     0.236 C 
HETATM    6  N1  UNL     1      20.006   2.668  48.098  1.00  0.00    -0.299 NA
HETATM    7  C8  UNL     1      20.146   3.341  49.406  1.00  0.00     0.162 C 
HETATM    8  N2  UNL     1      20.997   3.587  50.317  1.00  0.00    -0.288 NA
HETATM    9  C9  UNL     1      22.378   3.256  50.455  1.00  0.00     0.186 C 
HETATM   10  C10 UNL     1      23.125   4.334  51.138  1.00  0.00     0.110 C 
HETATM   11  C11 UNL     1      22.357   4.964  52.318  1.00  0.00     0.148 C 
HETATM   12  N3  UNL     1      23.664   5.017  52.911  1.00  0.00    -0.231 NA
HETATM   13  N4  UNL     1      24.075   3.913  52.150  1.00  0.00    -0.248 N 
HETATM   14  C12 UNL     1      25.004   2.838  52.289  1.00  0.00     0.338 C 
HETATM   15  O3  UNL     1      25.224   1.918  51.433  1.00  0.00    -0.245 OA
HETATM   16  N5  UNL     1      25.763   2.776  53.495  1.00  0.00    -0.307 N 
HETATM   17  H17 UNL     1      23.705   4.845  53.940  1.00  0.00     0.146 HD
HETATM   18  H18 UNL     1      25.614   3.522  54.238  1.00  0.00     0.170 HD
ENDROOT
BRANCH   1  19
HETATM   19  O2  UNL     1      23.908   6.528  51.124  1.00  0.00    -0.359 OA
BRANCH  19  20
HETATM   20  C2  UNL     1      24.533   7.553  50.413  1.00  0.00     0.337 C 
BRANCH  20  21
HETATM   21  O1  UNL     1      25.903   7.414  50.578  1.00  0.00    -0.372 OA
HETATM   22  C1  UNL     1      26.550   8.578  50.120  1.00  0.00     0.204 C 
ENDBRANCH  20  21
ENDBRANCH  19  20
ENDBRANCH   1  19
BRANCH  16  23
HETATM   23  C13 UNL     1      26.749   1.776  53.828  1.00  0.00     0.043 A 
HETATM   24  C14 UNL     1      27.928   2.296  53.428  1.00  0.00     0.037 A 
HETATM   25  C15 UNL     1      29.034   1.389  53.690  1.00  0.00     0.052 A 
HETATM   26  S1  UNL     1      28.262  -0.136  54.494  1.00  0.00    -0.111 SA
HETATM   27  C16 UNL     1      26.551   0.580  54.402  1.00  0.00     0.079 A 
ENDBRANCH  16  23
TORSDOF 4
ENDMDL
MODEL 4
REMARK VINA RESULT:      -6.8      7.325      9.744
REMARK  4 active torsions:
REMARK  status: ('A' for Active; 'I' for Inactive)
REMARK    1  A    between atoms: O1_2  and  C2_3 
REMARK    2  A    between atoms: C2_3  and  O2_4 
REMARK    3  A    between atoms: O2_4  and  C3_5 
REMARK       I    between atoms: N4_17  and  C12_18 
REMARK       I    between atoms: C12_18  and  N5_20 
REMARK    4  A    between atoms: N5_20  and  C13_21 
ROOT
HETATM    1  C3  UNL     1      31.977   5.564  46.945  1.00  0.00     0.157 C 
HETATM    2  C4  UNL     1      33.460   5.724  46.742  1.00  0.00     0.035 C 
HETATM    3  C5  UNL     1      33.775   6.823  45.745  1.00  0.00    -0.019 C 
HETATM    4  C6  UNL     1      34.102   7.874  44.952  1.00  0.00     0.040 C 
HETATM    5  C7  UNL     1      34.696   9.105  45.573  1.00  0.00     0.236 C 
HETATM    6  N1  UNL     1      34.963   9.617  46.808  1.00  0.00    -0.299 NA
HETATM    7  C8  UNL     1      34.532   8.691  47.876  1.00  0.00     0.162 C 
HETATM    8  N2  UNL     1      33.518   8.046  48.290  1.00  0.00    -0.288 NA
HETATM    9  C9  UNL     1      32.180   7.946  47.806  1.00  0.00     0.186 C 
HETATM   10  C10 UNL     1      31.628   6.592  48.022  1.00  0.00     0.110 C 
HETATM   11  C11 UNL     1      32.005   5.983  49.388  1.00  0.00     0.148 C 
HETATM   12  N3  UNL     1      30.671   5.455  49.323  1.00  0.00    -0.231 NA
HETATM   13  N4  UNL     1      30.266   6.527  48.516  1.00  0.00    -0.248 N 
HETATM   14  C12 UNL     1      29.061   7.253  48.274  1.00  0.00     0.338 C 
HETATM   15  O3  UNL     1      28.918   8.224  47.458  1.00  0.00    -0.245 OA
HETATM   16  N5  UNL     1      27.901   6.866  49.007  1.00  0.00    -0.307 N 
HETATM   17  H17 UNL     1      30.156   5.405  50.230  1.00  0.00     0.146 HD
HETATM   18  H18 UNL     1      27.972   6.062  49.699  1.00  0.00     0.170 HD
ENDROOT
BRANCH   1  19
HETATM   19  O2  UNL     1      31.706   4.313  47.545  1.00  0.00    -0.359 OA
BRANCH  19  20
HETATM   20  C2  UNL     1      32.054   3.297  46.654  1.00  0.00     0.337 C 
BRANCH  20  21
HETATM   21  O1  UNL     1      32.741   2.323  47.362  1.00  0.00    -0.372 OA
HETATM   22  C1  UNL     1      32.313   1.049  46.942  1.00  0.00     0.204 C 
ENDBRANCH  20  21
ENDBRANCH  19  20
ENDBRANCH   1  19
BRANCH  16  23
HETATM   23  C13 UNL     1      26.593   7.468  48.909  1.00  0.00     0.043 A 
HETATM   24  C14 UNL     1      26.443   8.176  50.047  1.00  0.00     0.037 A 
HETATM   25  C15 UNL     1      25.152   8.843  50.103  1.00  0.00     0.052 A 
HETATM   26  S1  UNL     1      24.272   8.381  48.497  1.00  0.00    -0.111 SA
HETATM   27  C16 UNL     1      25.702   7.351  47.912  1.00  0.00     0.079 A 
ENDBRANCH  16  23
TORSDOF 4
ENDMDL
MODEL 5
REMARK VINA RESULT:      -6.6      3.036      5.244
REMARK  4 active torsions:
REMARK  status: ('A' for Active; 'I' for Inactive)
REMARK    1  A    between atoms: O1_2  and  C2_3 
REMARK    2  A    between atoms: C2_3  and  O2_4 
REMARK    3  A    between atoms: O2_4  and  C3_5 
REMARK       I    between atoms: N4_17  and  C12_18 
REMARK       I    between atoms: C12_18  and  N5_20 
REMARK    4  A    between atoms: N5_20  and  C13_21 
ROOT
HETATM    1  C3  UNL     1      24.724   3.207  52.245  1.00  0.00     0.157 C 
HETATM    2  C4  UNL     1      23.848   1.990  52.378  1.00  0.00     0.035 C 
HETATM    3  C5  UNL     1      22.377   2.356  52.393  1.00  0.00    -0.019 C 
HETATM    4  C6  UNL     1      21.052   2.630  52.291  1.00  0.00     0.040 C 
HETATM    5  C7  UNL     1      20.316   2.241  51.041  1.00  0.00     0.236 C 
HETATM    6  N1  UNL     1      20.575   1.733  49.802  1.00  0.00    -0.299 NA
HETATM    7  C8  UNL     1      22.021   1.497  49.611  1.00  0.00     0.162 C 
HETATM    8  N2  UNL     1      23.147   2.083  49.678  1.00  0.00    -0.288 NA
HETATM    9  C9  UNL     1      23.515   3.418  50.020  1.00  0.00     0.186 C 
HETATM   10  C10 UNL     1      24.807   3.453  50.739  1.00  0.00     0.110 C 
HETATM   11  C11 UNL     1      25.858   2.483  50.163  1.00  0.00     0.148 C 
HETATM   12  N3  UNL     1      26.764   3.551  50.485  1.00  0.00    -0.231 NA
HETATM   13  N4  UNL     1      25.735   4.492  50.335  1.00  0.00    -0.248 N 
HETATM   14  C12 UNL     1      25.625   5.863  49.951  1.00  0.00     0.338 C 
HETATM   15  O3  UNL     1      24.547   6.542  49.891  1.00  0.00    -0.245 OA
HETATM   16  N5  UNL     1      26.825   6.547  49.600  1.00  0.00    -0.307 N 
HETATM   17  H17 UNL     1      27.554   3.695  49.819  1.00  0.00     0.146 HD
HETATM   18  H18 UNL     1      27.748   6.021  49.635  1.00  0.00     0.170 HD
ENDROOT
BRANCH   1  19
HETATM   19  O2  UNL     1      26.048   2.891  52.628  1.00  0.00    -0.359 OA
BRANCH  19  20
HETATM   20  C2  UNL     1      26.016   2.172  53.824  1.00  0.00     0.337 C 
BRANCH  20  21
HETATM   21  O1  UNL     1      27.300   2.155  54.348  1.00  0.00    -0.372 OA
HETATM   22  C1  UNL     1      28.219   1.848  53.327  1.00  0.00     0.204 C 
ENDBRANCH  20  21
ENDBRANCH  19  20
ENDBRANCH   1  19
BRANCH  16  23
HETATM   23  C13 UNL     1      26.928   7.926  49.188  1.00  0.00     0.043 A 
HETATM   24  C14 UNL     1      26.889   7.896  47.840  1.00  0.00     0.037 A 
HETATM   25  C15 UNL     1      26.994   9.228  47.266  1.00  0.00     0.052 A 
HETATM   26  S1  UNL     1      27.139  10.404  48.737  1.00  0.00    -0.111 SA
HETATM   27  C16 UNL     1      27.046   9.014  49.964  1.00  0.00     0.079 A 
ENDBRANCH  16  23
TORSDOF 4
ENDMDL
MODEL 6
REMARK VINA RESULT:      -6.5      8.048     10.610
REMARK  4 active torsions:
REMARK  status: ('A' for Active; 'I' for Inactive)
REMARK    1  A    between atoms: O1_2  and  C2_3 
REMARK    2  A    between atoms: C2_3  and  O2_4 
REMARK    3  A    between atoms: O2_4  and  C3_5 
REMARK       I    between atoms: N4_17  and  C12_18 
REMARK       I    between atoms: C12_18  and  N5_20 
REMARK    4  A    between atoms: N5_20  and  C13_21 
ROOT
HETATM    1  C3  UNL     1      27.126  10.474  48.178  1.00  0.00     0.157 C 
HETATM    2  C4  UNL     1      25.644  10.620  47.959  1.00  0.00     0.035 C 
HETATM    3  C5  UNL     1      25.213  10.040  46.626  1.00  0.00    -0.019 C 
HETATM    4  C6  UNL     1      24.770   9.428  45.499  1.00  0.00     0.040 C 
HETATM    5  C7  UNL     1      23.984   8.154  45.617  1.00  0.00     0.236 C 
HETATM    6  N1  UNL     1      23.601   7.257  46.570  1.00  0.00    -0.299 NA
HETATM    7  C8  UNL     1      24.120   7.636  47.901  1.00  0.00     0.162 C 
HETATM    8  N2  UNL     1      25.199   7.921  48.509  1.00  0.00    -0.288 NA
HETATM    9  C9  UNL     1      26.554   8.000  48.072  1.00  0.00     0.186 C 
HETATM   10  C10 UNL     1      27.285   9.076  48.776  1.00  0.00     0.110 C 
HETATM   11  C11 UNL     1      26.948   9.169  50.278  1.00  0.00     0.148 C 
HETATM   12  N3  UNL     1      28.345   9.482  50.393  1.00  0.00    -0.231 NA
HETATM   13  N4  UNL     1      28.623   8.749  49.230  1.00  0.00    -0.248 N 
HETATM   14  C12 UNL     1      29.721   8.002  48.706  1.00  0.00     0.338 C 
HETATM   15  O3  UNL     1      29.755   7.403  47.580  1.00  0.00    -0.245 OA
HETATM   16  N5  UNL     1      30.896   7.908  49.509  1.00  0.00    -0.307 N 
HETATM   17  H17 UNL     1      28.828   9.109  51.240  1.00  0.00     0.146 HD
HETATM   18  H18 UNL     1      30.914   8.391  50.456  1.00  0.00     0.170 HD
ENDROOT
BRANCH   1  19
HETATM   19  O2  UNL     1      27.550  11.351  49.204  1.00  0.00    -0.359 OA
BRANCH  19  20
HETATM   20  C2  UNL     1      28.359  12.342  48.647  1.00  0.00     0.337 C 
BRANCH  20  21
HETATM   21  O1  UNL     1      29.536  12.395  49.380  1.00  0.00    -0.372 OA
HETATM   22  C1  UNL     1      30.583  11.837  48.624  1.00  0.00     0.204 C 
ENDBRANCH  20  21
ENDBRANCH  19  20
ENDBRANCH   1  19
BRANCH  16  23
HETATM   23  C13 UNL     1      32.108   7.205  49.162  1.00  0.00     0.043 A 
HETATM   24  C14 UNL     1      32.957   8.158  48.727  1.00  0.00     0.037 A 
HETATM   25  C15 UNL     1      34.238   7.598  48.326  1.00  0.00     0.052 A 
HETATM   26  S1  UNL     1      34.093   5.737  48.618  1.00  0.00    -0.111 SA
HETATM   27  C16 UNL     1      32.350   5.888  49.242  1.00  0.00     0.079 A 
ENDBRANCH  16  23
TORSDOF 4
ENDMDL
MODEL 7
REMARK VINA RESULT:      -6.2      3.301      8.778
REMARK  4 active torsions:
REMARK  status: ('A' for Active; 'I' for Inactive)
REMARK    1  A    between atoms: O1_2  and  C2_3 
REMARK    2  A    between atoms: C2_3  and  O2_4 
REMARK    3  A    between atoms: O2_4  and  C3_5 
REMARK       I    between atoms: N4_17  and  C12_18 
REMARK       I    between atoms: C12_18  and  N5_20 
REMARK    4  A    between atoms: N5_20  and  C13_21 
ROOT
HETATM    1  C3  UNL     1      24.894   6.849  48.598  1.00  0.00     0.157 C 
HETATM    2  C4  UNL     1      24.124   7.865  47.798  1.00  0.00     0.035 C 
HETATM    3  C5  UNL     1      23.346   7.218  46.668  1.00  0.00    -0.019 C 
HETATM    4  C6  UNL     1      22.543   6.667  45.723  1.00  0.00     0.040 C 
HETATM    5  C7  UNL     1      21.058   6.649  45.942  1.00  0.00     0.236 C 
HETATM    6  N1  UNL     1      20.150   6.950  46.914  1.00  0.00    -0.299 NA
HETATM    7  C8  UNL     1      20.818   7.433  48.140  1.00  0.00     0.162 C 
HETATM    8  N2  UNL     1      21.712   7.111  48.984  1.00  0.00    -0.288 NA
HETATM    9  C9  UNL     1      22.562   5.971  49.094  1.00  0.00     0.186 C 
HETATM   10  C10 UNL     1      23.890   6.338  49.631  1.00  0.00     0.110 C 
HETATM   11  C11 UNL     1      23.828   7.371  50.774  1.00  0.00     0.148 C 
HETATM   12  N3  UNL     1      24.914   6.592  51.301  1.00  0.00    -0.231 NA
HETATM   13  N4  UNL     1      24.440   5.451  50.638  1.00  0.00    -0.248 N 
HETATM   14  C12 UNL     1      24.468   4.038  50.844  1.00  0.00     0.338 C 
HETATM   15  O3  UNL     1      23.960   3.156  50.076  1.00  0.00    -0.245 OA
HETATM   16  N5  UNL     1      25.124   3.557  52.015  1.00  0.00    -0.307 N 
HETATM   17  H17 UNL     1      24.936   6.485  52.339  1.00  0.00     0.146 HD
HETATM   18  H18 UNL     1      25.563   4.256  52.685  1.00  0.00     0.170 HD
ENDROOT
BRANCH   1  19
HETATM   19  O2  UNL     1      25.894   7.495  49.361  1.00  0.00    -0.359 OA
BRANCH  19  20
HETATM   20  C2  UNL     1      26.977   7.792  48.533  1.00  0.00     0.337 C 
BRANCH  20  21
HETATM   21  O1  UNL     1      27.947   8.416  49.304  1.00  0.00    -0.372 OA
HETATM   22  C1  UNL     1      27.326   9.248  50.254  1.00  0.00     0.204 C 
ENDBRANCH  20  21
ENDBRANCH  19  20
ENDBRANCH   1  19
BRANCH  16  23
HETATM   23  C13 UNL     1      25.263   2.174  52.404  1.00  0.00     0.043 A 
HETATM   24  C14 UNL     1      26.456   1.786  51.910  1.00  0.00     0.037 A 
HETATM   25  C15 UNL     1      26.740   0.393  52.214  1.00  0.00     0.052 A 
HETATM   26  S1  UNL     1      25.247  -0.228  53.191  1.00  0.00    -0.111 SA
HETATM   27  C16 UNL     1      24.397   1.420  53.098  1.00  0.00     0.079 A 
ENDBRANCH  16  23
TORSDOF 4
ENDMDL
MODEL 8
REMARK VINA RESULT:      -6.2      3.628      7.189
REMARK  4 active torsions:
REMARK  status: ('A' for Active; 'I' for Inactive)
REMARK    1  A    between atoms: O1_2  and  C2_3 
REMARK    2  A    between atoms: C2_3  and  O2_4 
REMARK    3  A    between atoms: O2_4  and  C3_5 
REMARK       I    between atoms: N4_17  and  C12_18 
REMARK       I    between atoms: C12_18  and  N5_20 
REMARK    4  A    between atoms: N5_20  and  C13_21 
ROOT
HETATM    1  C3  UNL     1      21.534   3.673  51.219  1.00  0.00     0.157 C 
HETATM    2  C4  UNL     1      20.863   4.592  50.234  1.00  0.00     0.035 C 
HETATM    3  C5  UNL     1      21.498   5.969  50.228  1.00  0.00    -0.019 C 
HETATM    4  C6  UNL     1      22.111   7.173  50.106  1.00  0.00     0.040 C 
HETATM    5  C7  UNL     1      22.911   7.467  48.869  1.00  0.00     0.236 C 
HETATM    6  N1  UNL     1      23.352   6.833  47.746  1.00  0.00    -0.299 NA
HETATM    7  C8  UNL     1      22.933   5.416  47.730  1.00  0.00     0.162 C 
HETATM    8  N2  UNL     1      22.976   4.353  48.426  1.00  0.00    -0.288 NA
HETATM    9  C9  UNL     1      23.537   4.066  49.706  1.00  0.00     0.186 C 
HETATM   10  C10 UNL     1      22.715   3.085  50.447  1.00  0.00     0.110 C 
HETATM   11  C11 UNL     1      22.174   1.943  49.564  1.00  0.00     0.148 C 
HETATM   12  N3  UNL     1      22.424   1.153  50.738  1.00  0.00    -0.231 NA
HETATM   13  N4  UNL     1      23.440   2.034  51.136  1.00  0.00    -0.248 N 
HETATM   14  C12 UNL     1      24.655   1.956  51.880  1.00  0.00     0.338 C 
HETATM   15  O3  UNL     1      25.446   2.925  52.134  1.00  0.00    -0.245 OA
HETATM   16  N5  UNL     1      25.031   0.681  52.394  1.00  0.00    -0.307 N 
HETATM   17  H17 UNL     1      22.766   0.181  50.569  1.00  0.00     0.146 HD
HETATM   18  H18 UNL     1      24.403  -0.157  52.208  1.00  0.00     0.170 HD
ENDROOT
BRANCH   1  19
HETATM   19  O2  UNL     1      20.699   2.565  51.491  1.00  0.00    -0.359 OA
BRANCH  19  20
HETATM   20  C2  UNL     1      19.412   3.025  51.776  1.00  0.00     0.337 C 
BRANCH  20  21
HETATM   21  O1  UNL     1      18.511   2.049  51.376  1.00  0.00    -0.372 OA
HETATM   22  C1  UNL     1      18.989   0.783  51.763  1.00  0.00     0.204 C 
ENDBRANCH  20  21
ENDBRANCH  19  20
ENDBRANCH   1  19
BRANCH  16  23
HETATM   23  C13 UNL     1      26.215   0.391  53.169  1.00  0.00     0.043 A 
HETATM   24  C14 UNL     1      26.932  -0.464  52.412  1.00  0.00     0.037 A 
HETATM   25  C15 UNL     1      28.166  -0.863  53.069  1.00  0.00     0.052 A 
HETATM   26  S1  UNL     1      28.174   0.042  54.728  1.00  0.00    -0.111 SA
HETATM   27  C16 UNL     1      26.541   0.857  54.384  1.00  0.00     0.079 A 
ENDBRANCH  16  23
TORSDOF 4
ENDMDL
MODEL 9
REMARK VINA RESULT:      -6.1      3.295      6.250
REMARK  4 active torsions:
REMARK  status: ('A' for Active; 'I' for Inactive)
REMARK    1  A    between atoms: O1_2  and  C2_3 
REMARK    2  A    between atoms: C2_3  and  O2_4 
REMARK    3  A    between atoms: O2_4  and  C3_5 
REMARK       I    between atoms: N4_17  and  C12_18 
REMARK       I    between atoms: C12_18  and  N5_20 
REMARK    4  A    between atoms: N5_20  and  C13_21 
ROOT
HETATM    1  C3  UNL     1      23.572   4.473  51.162  1.00  0.00     0.157 C 
HETATM    2  C4  UNL     1      22.469   3.470  50.950  1.00  0.00     0.035 C 
HETATM    3  C5  UNL     1      21.209   4.126  50.418  1.00  0.00    -0.019 C 
HETATM    4  C6  UNL     1      20.104   4.652  49.831  1.00  0.00     0.040 C 
HETATM    5  C7  UNL     1      19.812   4.328  48.395  1.00  0.00     0.236 C 
HETATM    6  N1  UNL     1      20.390   3.688  47.339  1.00  0.00    -0.299 NA
HETATM    7  C8  UNL     1      21.719   3.153  47.699  1.00  0.00     0.162 C 
HETATM    8  N2  UNL     1      22.840   3.503  48.184  1.00  0.00    -0.288 NA
HETATM    9  C9  UNL     1      23.335   4.758  48.649  1.00  0.00     0.186 C 
HETATM   10  C10 UNL     1      24.250   4.586  49.797  1.00  0.00     0.110 C 
HETATM   11  C11 UNL     1      25.204   3.383  49.649  1.00  0.00     0.148 C 
HETATM   12  N3  UNL     1      26.135   4.268  50.292  1.00  0.00    -0.231 NA
HETATM   13  N4  UNL     1      25.461   5.383  49.775  1.00  0.00    -0.248 N 
HETATM   14  C12 UNL     1      25.795   6.716  49.387  1.00  0.00     0.338 C 
HETATM   15  O3  UNL     1      24.986   7.593  48.934  1.00  0.00    -0.245 OA
HETATM   16  N5  UNL     1      27.157   7.117  49.514  1.00  0.00    -0.307 N 
HETATM   17  H17 UNL     1      27.126   4.200  49.970  1.00  0.00     0.146 HD
HETATM   18  H18 UNL     1      27.868   6.420  49.887  1.00  0.00     0.170 HD
ENDROOT
BRANCH   1  19
HETATM   19  O2  UNL     1      24.563   3.926  52.009  1.00  0.00    -0.359 OA
BRANCH  19  20
HETATM   20  C2  UNL     1      23.948   3.119  52.967  1.00  0.00     0.337 C 
BRANCH  20  21
HETATM   21  O1  UNL     1      24.813   2.078  53.270  1.00  0.00    -0.372 OA
HETATM   22  C1  UNL     1      24.121   0.856  53.189  1.00  0.00     0.204 C 
ENDBRANCH  20  21
ENDBRANCH  19  20
ENDBRANCH   1  19
BRANCH  16  23
HETATM   23  C13 UNL     1      27.697   8.413  49.179  1.00  0.00     0.043 A 
HETATM   24  C14 UNL     1      28.238   8.264  47.953  1.00  0.00     0.037 A 
HETATM   25  C15 UNL     1      28.840   9.498  47.475  1.00  0.00     0.052 A 
HETATM   26  S1  UNL     1      28.564  10.764  48.850  1.00  0.00    -0.111 SA
HETATM   27  C16 UNL     1      27.679   9.531  49.920  1.00  0.00     0.079 A 
ENDBRANCH  16  23
TORSDOF 4
ENDMDL
