MODEL 1
REMARK VINA RESULT:      -8.3      0.000      0.000
REMARK  5 active torsions:
REMARK  status: ('A' for Active; 'I' for Inactive)
REMARK    1  A    between atoms: C1_2  and  C2_3 
REMARK       I    between atoms: C1_2  and  N2_14 
REMARK    2  A    between atoms: C2_3  and  C3_4 
REMARK    3  A    between atoms: C3_4  and  C4_5 
REMARK    4  A    between atoms: N2_14  and  C11_15 
REMARK    5  A    between atoms: C11_15  and  C12_16 
ROOT
HETATM    1  C2  UNL     1      26.903   1.808  51.935  1.00  0.00     0.104 C 
ENDROOT
BRANCH   1   2
HETATM    2  C1  UNL     1      26.069   2.692  51.115  1.00  0.00     0.217 C 
HETATM    3  O1  UNL     1      24.842   2.439  51.062  1.00  0.00    -0.274 OA
HETATM    4  N2  UNL     1      26.622   3.790  50.408  1.00  0.00    -0.357 N 
HETATM    5  H11 UNL     1      27.658   3.910  50.520  1.00  0.00     0.162 HD
BRANCH   4   6
HETATM    6  C11 UNL     1      25.871   4.720  49.574  1.00  0.00     0.161 C 
BRANCH   6   7
HETATM    7  C12 UNL     1      26.802   5.577  48.820  1.00  0.00    -0.041 A 
HETATM    8  C13 UNL     1      26.549   6.812  48.261  1.00  0.00     0.009 A 
HETATM    9  C14 UNL     1      27.463   7.557  47.576  1.00  0.00     0.001 A 
HETATM   10  C15 UNL     1      28.745   7.022  47.436  1.00  0.00     0.000 A 
HETATM   11  C16 UNL     1      29.098   5.797  47.957  1.00  0.00     0.001 A 
HETATM   12  C17 UNL     1      28.100   5.104  48.643  1.00  0.00     0.009 A 
ENDBRANCH   6   7
ENDBRANCH   4   6
ENDBRANCH   1   2
BRANCH   1  13
HETATM   13  C3  UNL     1      26.688   1.926  53.394  1.00  0.00     0.025 C 
BRANCH  13  14
HETATM   14  C4  UNL     1      26.684   0.660  54.180  1.00  0.00     0.082 A 
HETATM   15  C5  UNL     1      25.709  -0.322  53.638  1.00  0.00     0.086 A 
HETATM   16  S1  UNL     1      24.101  -0.307  53.559  1.00  0.00    -0.065 SA
HETATM   17  N1  UNL     1      26.498  -1.385  53.154  1.00  0.00    -0.350 N 
HETATM   18  C6  UNL     1      27.894  -1.422  53.218  1.00  0.00     0.036 A 
HETATM   19  H6  UNL     1      26.118  -2.279  52.686  1.00  0.00     0.166 HD
HETATM   20  C7  UNL     1      29.204  -1.645  53.182  1.00  0.00     0.007 A 
HETATM   21  C10 UNL     1      27.975  -0.070  53.897  1.00  0.00    -0.024 A 
HETATM   22  C8  UNL     1      30.180  -0.652  53.741  1.00  0.00     0.057 A 
HETATM   23  C9  UNL     1      29.205   0.399  54.203  1.00  0.00    -0.013 A 
ENDBRANCH  13  14
ENDBRANCH   1  13
TORSDOF 5
ENDMDL
MODEL 2
REMARK VINA RESULT:      -8.0      3.344      6.524
REMARK  5 active torsions:
REMARK  status: ('A' for Active; 'I' for Inactive)
REMARK    1  A    between atoms: C1_2  and  C2_3 
REMARK       I    between atoms: C1_2  and  N2_14 
REMARK    2  A    between atoms: C2_3  and  C3_4 
REMARK    3  A    between atoms: C3_4  and  C4_5 
REMARK    4  A    between atoms: N2_14  and  C11_15 
REMARK    5  A    between atoms: C11_15  and  C12_16 
ROOT
HETATM    1  C2  UNL     1      24.790   3.070  50.796  1.00  0.00     0.104 C 
ENDROOT
BRANCH   1   2
HETATM    2  C1  UNL     1      26.168   2.883  51.258  1.00  0.00     0.217 C 
HETATM    3  O1  UNL     1      27.088   3.186  50.461  1.00  0.00    -0.274 OA
HETATM    4  N2  UNL     1      26.456   2.380  52.552  1.00  0.00    -0.357 N 
HETATM    5  H11 UNL     1      25.614   2.157  53.136  1.00  0.00     0.162 HD
BRANCH   4   6
HETATM    6  C11 UNL     1      27.791   2.165  53.095  1.00  0.00     0.161 C 
BRANCH   6   7
HETATM    7  C12 UNL     1      28.091   0.723  53.125  1.00  0.00    -0.041 A 
HETATM    8  C13 UNL     1      29.265   0.112  53.513  1.00  0.00     0.009 A 
HETATM    9  C14 UNL     1      29.474  -1.236  53.520  1.00  0.00     0.001 A 
HETATM   10  C15 UNL     1      28.417  -2.047  53.102  1.00  0.00     0.000 A 
HETATM   11  C16 UNL     1      27.205  -1.535  52.695  1.00  0.00     0.001 A 
HETATM   12  C17 UNL     1      27.080  -0.145  52.720  1.00  0.00     0.009 A 
ENDBRANCH   6   7
ENDBRANCH   4   6
ENDBRANCH   1   2
BRANCH   1  13
HETATM   13  C3  UNL     1      23.834   2.037  51.252  1.00  0.00     0.025 C 
BRANCH  13  14
HETATM   14  C4  UNL     1      23.070   2.325  52.497  1.00  0.00     0.082 A 
HETATM   15  C5  UNL     1      21.738   2.915  52.203  1.00  0.00     0.086 A 
HETATM   16  S1  UNL     1      21.308   4.324  51.553  1.00  0.00    -0.065 SA
HETATM   17  N1  UNL     1      20.809   1.943  52.628  1.00  0.00    -0.350 N 
HETATM   18  C6  UNL     1      21.160   0.716  53.200  1.00  0.00     0.036 A 
HETATM   19  H6  UNL     1      19.738   2.036  52.563  1.00  0.00     0.166 HD
HETATM   20  C7  UNL     1      21.286  -0.486  53.754  1.00  0.00     0.007 A 
HETATM   21  C10 UNL     1      22.644   1.007  53.099  1.00  0.00    -0.024 A 
HETATM   22  C8  UNL     1      22.634  -1.069  54.058  1.00  0.00     0.057 A 
HETATM   23  C9  UNL     1      23.495   0.059  53.553  1.00  0.00    -0.013 A 
ENDBRANCH  13  14
ENDBRANCH   1  13
TORSDOF 5
ENDMDL
MODEL 3
REMARK VINA RESULT:      -7.9      2.850      4.014
REMARK  5 active torsions:
REMARK  status: ('A' for Active; 'I' for Inactive)
REMARK    1  A    between atoms: C1_2  and  C2_3 
REMARK       I    between atoms: C1_2  and  N2_14 
REMARK    2  A    between atoms: C2_3  and  C3_4 
REMARK    3  A    between atoms: C3_4  and  C4_5 
REMARK    4  A    between atoms: N2_14  and  C11_15 
REMARK    5  A    between atoms: C11_15  and  C12_16 
ROOT
HETATM    1  C2  UNL     1      27.168   1.923  52.112  1.00  0.00     0.104 C 
ENDROOT
BRANCH   1   2
HETATM    2  C1  UNL     1      26.307   2.726  51.239  1.00  0.00     0.217 C 
HETATM    3  O1  UNL     1      26.803   3.141  50.165  1.00  0.00    -0.274 OA
HETATM    4  N2  UNL     1      24.965   3.023  51.590  1.00  0.00    -0.357 N 
HETATM    5  H11 UNL     1      24.652   2.628  52.510  1.00  0.00     0.162 HD
BRANCH   4   6
HETATM    6  C11 UNL     1      24.038   3.809  50.785  1.00  0.00     0.161 C 
BRANCH   6   7
HETATM    7  C12 UNL     1      23.210   2.912  49.960  1.00  0.00    -0.041 A 
HETATM    8  C13 UNL     1      23.086   2.902  48.587  1.00  0.00     0.009 A 
HETATM    9  C14 UNL     1      22.300   2.036  47.884  1.00  0.00     0.001 A 
HETATM   10  C15 UNL     1      21.575   1.095  48.617  1.00  0.00     0.000 A 
HETATM   11  C16 UNL     1      21.630   1.023  49.991  1.00  0.00     0.001 A 
HETATM   12  C17 UNL     1      22.459   1.947  50.628  1.00  0.00     0.009 A 
ENDBRANCH   6   7
ENDBRANCH   4   6
ENDBRANCH   1   2
BRANCH   1  13
HETATM   13  C3  UNL     1      26.774   1.914  53.538  1.00  0.00     0.025 C 
BRANCH  13  14
HETATM   14  C4  UNL     1      26.657   0.583  54.198  1.00  0.00     0.082 A 
HETATM   15  C5  UNL     1      25.655  -0.282  53.521  1.00  0.00     0.086 A 
HETATM   16  S1  UNL     1      24.058  -0.159  53.373  1.00  0.00    -0.065 SA
HETATM   17  N1  UNL     1      26.405  -1.342  52.972  1.00  0.00    -0.350 N 
HETATM   18  C6  UNL     1      27.792  -1.472  53.094  1.00  0.00     0.036 A 
HETATM   19  H6  UNL     1      25.999  -2.163  52.404  1.00  0.00     0.166 HD
HETATM   20  C7  UNL     1      29.087  -1.771  53.095  1.00  0.00     0.007 A 
HETATM   21  C10 UNL     1      27.917  -0.196  53.903  1.00  0.00    -0.024 A 
HETATM   22  C8  UNL     1      30.090  -0.898  53.790  1.00  0.00     0.057 A 
HETATM   23  C9  UNL     1      29.155   0.165  54.307  1.00  0.00    -0.013 A 
ENDBRANCH  13  14
ENDBRANCH   1  13
TORSDOF 5
ENDMDL
MODEL 4
REMARK VINA RESULT:      -7.8      2.011      3.548
REMARK  5 active torsions:
REMARK  status: ('A' for Active; 'I' for Inactive)
REMARK    1  A    between atoms: C1_2  and  C2_3 
REMARK       I    between atoms: C1_2  and  N2_14 
REMARK    2  A    between atoms: C2_3  and  C3_4 
REMARK    3  A    between atoms: C3_4  and  C4_5 
REMARK    4  A    between atoms: N2_14  and  C11_15 
REMARK    5  A    between atoms: C11_15  and  C12_16 
ROOT
HETATM    1  C2  UNL     1      24.370   3.065  52.674  1.00  0.00     0.104 C 
ENDROOT
BRANCH   1   2
HETATM    2  C1  UNL     1      24.804   2.934  51.280  1.00  0.00     0.217 C 
HETATM    3  O1  UNL     1      23.986   2.445  50.466  1.00  0.00    -0.274 OA
HETATM    4  N2  UNL     1      26.098   3.342  50.864  1.00  0.00    -0.357 N 
HETATM    5  H11 UNL     1      26.702   3.735  51.626  1.00  0.00     0.162 HD
BRANCH   4   6
HETATM    6  C11 UNL     1      26.613   3.252  49.504  1.00  0.00     0.161 C 
BRANCH   6   7
HETATM    7  C12 UNL     1      26.919   4.600  48.996  1.00  0.00    -0.041 A 
HETATM    8  C13 UNL     1      28.125   5.071  48.522  1.00  0.00     0.009 A 
HETATM    9  C14 UNL     1      28.338   6.337  48.061  1.00  0.00     0.001 A 
HETATM   10  C15 UNL     1      27.249   7.211  48.073  1.00  0.00     0.000 A 
HETATM   11  C16 UNL     1      26.004   6.839  48.527  1.00  0.00     0.001 A 
HETATM   12  C17 UNL     1      25.877   5.525  48.980  1.00  0.00     0.009 A 
ENDBRANCH   6   7
ENDBRANCH   4   6
ENDBRANCH   1   2
BRANCH   1  13
HETATM   13  C3  UNL     1      25.033   2.144  53.623  1.00  0.00     0.025 C 
BRANCH  13  14
HETATM   14  C4  UNL     1      25.073   0.702  53.249  1.00  0.00     0.082 A 
HETATM   15  C5  UNL     1      26.127  -0.032  53.997  1.00  0.00     0.086 A 
HETATM   16  S1  UNL     1      27.732   0.071  53.970  1.00  0.00    -0.065 SA
HETATM   17  N1  UNL     1      25.422  -0.932  54.824  1.00  0.00    -0.350 N 
HETATM   18  C6  UNL     1      24.029  -1.043  54.859  1.00  0.00     0.036 A 
HETATM   19  H6  UNL     1      25.873  -1.628  55.511  1.00  0.00     0.166 HD
HETATM   20  C7  UNL     1      22.737  -1.297  55.040  1.00  0.00     0.007 A 
HETATM   21  C10 UNL     1      23.840   0.040  53.815  1.00  0.00    -0.024 A 
HETATM   22  C8  UNL     1      21.681  -0.558  54.272  1.00  0.00     0.057 A 
HETATM   23  C9  UNL     1      22.572   0.345  53.460  1.00  0.00    -0.013 A 
ENDBRANCH  13  14
ENDBRANCH   1  13
TORSDOF 5
ENDMDL
MODEL 5
REMARK VINA RESULT:      -7.6      4.158      7.402
REMARK  5 active torsions:
REMARK  status: ('A' for Active; 'I' for Inactive)
REMARK    1  A    between atoms: C1_2  and  C2_3 
REMARK       I    between atoms: C1_2  and  N2_14 
REMARK    2  A    between atoms: C2_3  and  C3_4 
REMARK    3  A    between atoms: C3_4  and  C4_5 
REMARK    4  A    between atoms: N2_14  and  C11_15 
REMARK    5  A    between atoms: C11_15  and  C12_16 
ROOT
HETATM    1  C2  UNL     1      23.037   1.758  51.718  1.00  0.00     0.104 C 
ENDROOT
BRANCH   1   2
HETATM    2  C1  UNL     1      24.384   2.111  52.174  1.00  0.00     0.217 C 
HETATM    3  O1  UNL     1      24.992   3.003  51.536  1.00  0.00    -0.274 OA
HETATM    4  N2  UNL     1      24.981   1.472  53.291  1.00  0.00    -0.357 N 
HETATM    5  H11 UNL     1      24.387   0.740  53.749  1.00  0.00     0.162 HD
BRANCH   4   6
HETATM    6  C11 UNL     1      26.310   1.760  53.815  1.00  0.00     0.161 C 
BRANCH   6   7
HETATM    7  C12 UNL     1      27.195   0.603  53.595  1.00  0.00    -0.041 A 
HETATM    8  C13 UNL     1      26.869  -0.615  53.037  1.00  0.00     0.009 A 
HETATM    9  C14 UNL     1      27.744  -1.647  52.858  1.00  0.00     0.001 A 
HETATM   10  C15 UNL     1      29.062  -1.443  53.272  1.00  0.00     0.000 A 
HETATM   11  C16 UNL     1      29.487  -0.264  53.840  1.00  0.00     0.001 A 
HETATM   12  C17 UNL     1      28.525   0.737  53.985  1.00  0.00     0.009 A 
ENDBRANCH   6   7
ENDBRANCH   4   6
ENDBRANCH   1   2
BRANCH   1  13
HETATM   13  C3  UNL     1      22.135   1.249  52.774  1.00  0.00     0.025 C 
BRANCH  13  14
HETATM   14  C4  UNL     1      21.681  -0.165  52.652  1.00  0.00     0.082 A 
HETATM   15  C5  UNL     1      21.610  -0.837  53.976  1.00  0.00     0.086 A 
HETATM   16  S1  UNL     1      22.751  -1.242  55.037  1.00  0.00    -0.065 SA
HETATM   17  N1  UNL     1      20.238  -1.094  54.178  1.00  0.00    -0.350 N 
HETATM   18  C6  UNL     1      19.232  -0.757  53.267  1.00  0.00     0.036 A 
HETATM   19  H6  UNL     1      19.816  -1.575  55.045  1.00  0.00     0.166 HD
HETATM   20  C7  UNL     1      18.142  -0.520  52.544  1.00  0.00     0.007 A 
HETATM   21  C10 UNL     1      20.217  -0.155  52.285  1.00  0.00    -0.024 A 
HETATM   22  C8  UNL     1      18.225   0.149  51.204  1.00  0.00     0.057 A 
HETATM   23  C9  UNL     1      19.716   0.358  51.139  1.00  0.00    -0.013 A 
ENDBRANCH  13  14
ENDBRANCH   1  13
TORSDOF 5
ENDMDL
MODEL 6
REMARK VINA RESULT:      -7.5      3.658      6.397
REMARK  5 active torsions:
REMARK  status: ('A' for Active; 'I' for Inactive)
REMARK    1  A    between atoms: C1_2  and  C2_3 
REMARK       I    between atoms: C1_2  and  N2_14 
REMARK    2  A    between atoms: C2_3  and  C3_4 
REMARK    3  A    between atoms: C3_4  and  C4_5 
REMARK    4  A    between atoms: N2_14  and  C11_15 
REMARK    5  A    between atoms: C11_15  and  C12_16 
ROOT
HETATM    1  C2  UNL     1      22.597   2.178  50.402  1.00  0.00     0.104 C 
ENDROOT
BRANCH   1   2
HETATM    2  C1  UNL     1      23.812   2.717  51.021  1.00  0.00     0.217 C 
HETATM    3  O1  UNL     1      23.738   3.860  51.532  1.00  0.00    -0.274 OA
HETATM    4  N2  UNL     1      25.024   1.980  51.044  1.00  0.00    -0.357 N 
HETATM    5  H11 UNL     1      24.975   1.037  50.588  1.00  0.00     0.162 HD
BRANCH   4   6
HETATM    6  C11 UNL     1      26.275   2.434  51.638  1.00  0.00     0.161 C 
BRANCH   6   7
HETATM    7  C12 UNL     1      26.960   1.301  52.283  1.00  0.00    -0.041 A 
HETATM    8  C13 UNL     1      26.618  -0.034  52.232  1.00  0.00     0.009 A 
HETATM    9  C14 UNL     1      27.304  -1.037  52.852  1.00  0.00     0.001 A 
HETATM   10  C15 UNL     1      28.433  -0.675  53.589  1.00  0.00     0.000 A 
HETATM   11  C16 UNL     1      28.858   0.630  53.703  1.00  0.00     0.001 A 
HETATM   12  C17 UNL     1      28.096   1.590  53.035  1.00  0.00     0.009 A 
ENDBRANCH   6   7
ENDBRANCH   4   6
ENDBRANCH   1   2
BRANCH   1  13
HETATM   13  C3  UNL     1      22.021   0.998  51.083  1.00  0.00     0.025 C 
BRANCH  13  14
HETATM   14  C4  UNL     1      21.310   1.241  52.370  1.00  0.00     0.082 A 
HETATM   15  C5  UNL     1      19.859   0.936  52.264  1.00  0.00     0.086 A 
HETATM   16  S1  UNL     1      18.676   1.627  51.420  1.00  0.00    -0.065 SA
HETATM   17  N1  UNL     1      19.661  -0.174  53.110  1.00  0.00    -0.350 N 
HETATM   18  C6  UNL     1      20.672  -0.787  53.856  1.00  0.00     0.036 A 
HETATM   19  H6  UNL     1      18.718  -0.669  53.277  1.00  0.00     0.166 HD
HETATM   20  C7  UNL     1      21.483  -1.501  54.631  1.00  0.00     0.007 A 
HETATM   21  C10 UNL     1      21.732   0.169  53.346  1.00  0.00    -0.024 A 
HETATM   22  C8  UNL     1      22.943  -1.178  54.740  1.00  0.00     0.057 A 
HETATM   23  C9  UNL     1      22.995  -0.004  53.798  1.00  0.00    -0.013 A 
ENDBRANCH  13  14
ENDBRANCH   1  13
TORSDOF 5
ENDMDL
MODEL 7
REMARK VINA RESULT:      -7.5      2.612      3.472
REMARK  5 active torsions:
REMARK  status: ('A' for Active; 'I' for Inactive)
REMARK    1  A    between atoms: C1_2  and  C2_3 
REMARK       I    between atoms: C1_2  and  N2_14 
REMARK    2  A    between atoms: C2_3  and  C3_4 
REMARK    3  A    between atoms: C3_4  and  C4_5 
REMARK    4  A    between atoms: N2_14  and  C11_15 
REMARK    5  A    between atoms: C11_15  and  C12_16 
ROOT
HETATM    1  C2  UNL     1      21.487   1.953  51.267  1.00  0.00     0.104 C 
ENDROOT
BRANCH   1   2
HETATM    2  C1  UNL     1      21.925   3.343  51.117  1.00  0.00     0.217 C 
HETATM    3  O1  UNL     1      21.491   4.176  51.947  1.00  0.00    -0.274 OA
HETATM    4  N2  UNL     1      22.804   3.737  50.075  1.00  0.00    -0.357 N 
HETATM    5  H11 UNL     1      23.105   2.962  49.436  1.00  0.00     0.162 HD
BRANCH   4   6
HETATM    6  C11 UNL     1      23.293   5.091  49.851  1.00  0.00     0.161 C 
BRANCH   6   7
HETATM    7  C12 UNL     1      24.712   5.051  49.459  1.00  0.00    -0.041 A 
HETATM    8  C13 UNL     1      25.455   6.054  48.872  1.00  0.00     0.009 A 
HETATM    9  C14 UNL     1      26.773   5.949  48.538  1.00  0.00     0.001 A 
HETATM   10  C15 UNL     1      27.407   4.737  48.814  1.00  0.00     0.000 A 
HETATM   11  C16 UNL     1      26.754   3.675  49.398  1.00  0.00     0.001 A 
HETATM   12  C17 UNL     1      25.406   3.869  49.707  1.00  0.00     0.009 A 
ENDBRANCH   6   7
ENDBRANCH   4   6
ENDBRANCH   1   2
BRANCH   1  13
HETATM   13  C3  UNL     1      22.570   0.986  51.554  1.00  0.00     0.025 C 
BRANCH  13  14
HETATM   14  C4  UNL     1      23.219   1.076  52.892  1.00  0.00     0.082 A 
HETATM   15  C5  UNL     1      22.668   0.074  53.841  1.00  0.00     0.086 A 
HETATM   16  S1  UNL     1      21.210  -0.089  54.504  1.00  0.00    -0.065 SA
HETATM   17  N1  UNL     1      23.739  -0.807  54.099  1.00  0.00    -0.350 N 
HETATM   18  C6  UNL     1      25.014  -0.681  53.539  1.00  0.00     0.036 A 
HETATM   19  H6  UNL     1      23.696  -1.665  54.749  1.00  0.00     0.166 HD
HETATM   20  C7  UNL     1      26.273  -0.736  53.117  1.00  0.00     0.007 A 
HETATM   21  C10 UNL     1      24.633   0.562  52.760  1.00  0.00    -0.024 A 
HETATM   22  C8  UNL     1      26.824   0.287  52.168  1.00  0.00     0.057 A 
HETATM   23  C9  UNL     1      25.588   1.130  51.990  1.00  0.00    -0.013 A 
ENDBRANCH  13  14
ENDBRANCH   1  13
TORSDOF 5
ENDMDL
MODEL 8
REMARK VINA RESULT:      -7.4      4.410      7.316
REMARK  5 active torsions:
REMARK  status: ('A' for Active; 'I' for Inactive)
REMARK    1  A    between atoms: C1_2  and  C2_3 
REMARK       I    between atoms: C1_2  and  N2_14 
REMARK    2  A    between atoms: C2_3  and  C3_4 
REMARK    3  A    between atoms: C3_4  and  C4_5 
REMARK    4  A    between atoms: N2_14  and  C11_15 
REMARK    5  A    between atoms: C11_15  and  C12_16 
ROOT
HETATM    1  C2  UNL     1      20.886   0.144  52.967  1.00  0.00     0.104 C 
ENDROOT
BRANCH   1   2
HETATM    2  C1  UNL     1      21.841  -0.661  53.734  1.00  0.00     0.217 C 
HETATM    3  O1  UNL     1      21.451  -1.780  54.143  1.00  0.00    -0.274 OA
HETATM    4  N2  UNL     1      23.154  -0.198  54.006  1.00  0.00    -0.357 N 
HETATM    5  H11 UNL     1      23.375   0.752  53.618  1.00  0.00     0.162 HD
BRANCH   4   6
HETATM    6  C11 UNL     1      24.168  -0.929  54.755  1.00  0.00     0.161 C 
BRANCH   6   7
HETATM    7  C12 UNL     1      25.501  -0.644  54.198  1.00  0.00    -0.041 A 
HETATM    8  C13 UNL     1      25.995  -1.005  52.962  1.00  0.00     0.009 A 
HETATM    9  C14 UNL     1      27.245  -0.703  52.507  1.00  0.00     0.001 A 
HETATM   10  C15 UNL     1      28.076   0.024  53.361  1.00  0.00     0.000 A 
HETATM   11  C16 UNL     1      27.678   0.430  54.615  1.00  0.00     0.001 A 
HETATM   12  C17 UNL     1      26.383   0.078  54.999  1.00  0.00     0.009 A 
ENDBRANCH   6   7
ENDBRANCH   4   6
ENDBRANCH   1   2
BRANCH   1  13
HETATM   13  C3  UNL     1      21.181   0.250  51.521  1.00  0.00     0.025 C 
BRANCH  13  14
HETATM   14  C4  UNL     1      21.389   1.619  50.972  1.00  0.00     0.082 A 
HETATM   15  C5  UNL     1      20.433   2.598  51.553  1.00  0.00     0.086 A 
HETATM   16  S1  UNL     1      18.834   2.737  51.431  1.00  0.00    -0.065 SA
HETATM   17  N1  UNL     1      21.233   3.480  52.308  1.00  0.00    -0.350 N 
HETATM   18  C6  UNL     1      22.622   3.381  52.422  1.00  0.00     0.036 A 
HETATM   19  H6  UNL     1      20.867   4.321  52.873  1.00  0.00     0.166 HD
HETATM   20  C7  UNL     1      23.929   3.456  52.655  1.00  0.00     0.007 A 
HETATM   21  C10 UNL     1      22.684   2.155  51.533  1.00  0.00    -0.024 A 
HETATM   22  C8  UNL     1      24.888   2.471  52.055  1.00  0.00     0.057 A 
HETATM   23  C9  UNL     1      23.903   1.615  51.302  1.00  0.00    -0.013 A 
ENDBRANCH  13  14
ENDBRANCH   1  13
TORSDOF 5
ENDMDL
MODEL 9
REMARK VINA RESULT:      -7.3      2.278      7.350
REMARK  5 active torsions:
REMARK  status: ('A' for Active; 'I' for Inactive)
REMARK    1  A    between atoms: C1_2  and  C2_3 
REMARK       I    between atoms: C1_2  and  N2_14 
REMARK    2  A    between atoms: C2_3  and  C3_4 
REMARK    3  A    between atoms: C3_4  and  C4_5 
REMARK    4  A    between atoms: N2_14  and  C11_15 
REMARK    5  A    between atoms: C11_15  and  C12_16 
ROOT
HETATM    1  C2  UNL     1      24.735   3.005  51.563  1.00  0.00     0.104 C 
ENDROOT
BRANCH   1   2
HETATM    2  C1  UNL     1      26.167   2.749  51.738  1.00  0.00     0.217 C 
HETATM    3  O1  UNL     1      26.897   2.846  50.723  1.00  0.00    -0.274 OA
HETATM    4  N2  UNL     1      26.711   2.404  53.002  1.00  0.00    -0.357 N 
HETATM    5  H11 UNL     1      26.012   2.349  53.782  1.00  0.00     0.162 HD
BRANCH   4   6
HETATM    6  C11 UNL     1      28.118   2.136  53.269  1.00  0.00     0.161 C 
BRANCH   6   7
HETATM    7  C12 UNL     1      28.360   0.683  53.255  1.00  0.00    -0.041 A 
HETATM    8  C13 UNL     1      27.480  -0.317  52.898  1.00  0.00     0.009 A 
HETATM    9  C14 UNL     1      27.773  -1.649  52.904  1.00  0.00     0.001 A 
HETATM   10  C15 UNL     1      29.060  -2.016  53.302  1.00  0.00     0.000 A 
HETATM   11  C16 UNL     1      30.012  -1.095  53.678  1.00  0.00     0.001 A 
HETATM   12  C17 UNL     1      29.625   0.246  53.641  1.00  0.00     0.009 A 
ENDBRANCH   6   7
ENDBRANCH   4   6
ENDBRANCH   1   2
BRANCH   1  13
HETATM   13  C3  UNL     1      24.304   3.207  50.162  1.00  0.00     0.025 C 
BRANCH  13  14
HETATM   14  C4  UNL     1      23.615   4.490  49.845  1.00  0.00     0.082 A 
HETATM   15  C5  UNL     1      22.789   4.969  50.984  1.00  0.00     0.086 A 
HETATM   16  S1  UNL     1      21.465   4.370  51.675  1.00  0.00    -0.065 SA
HETATM   17  N1  UNL     1      23.415   6.159  51.409  1.00  0.00    -0.350 N 
HETATM   18  C6  UNL     1      24.562   6.699  50.820  1.00  0.00     0.036 A 
HETATM   19  H6  UNL     1      23.083   6.779  52.225  1.00  0.00     0.166 HD
HETATM   20  C7  UNL     1      25.635   7.366  50.405  1.00  0.00     0.007 A 
HETATM   21  C10 UNL     1      24.658   5.581  49.801  1.00  0.00    -0.024 A 
HETATM   22  C8  UNL     1      26.456   6.881  49.247  1.00  0.00     0.057 A 
HETATM   23  C9  UNL     1      25.680   5.632  48.918  1.00  0.00    -0.013 A 
ENDBRANCH  13  14
ENDBRANCH   1  13
TORSDOF 5
ENDMDL
