MODEL 1
REMARK VINA RESULT:      -7.8      0.000      0.000
REMARK  4 active torsions:
REMARK  status: ('A' for Active; 'I' for Inactive)
REMARK    1  A    between atoms: N1_2  and  C3_4 
REMARK    2  A    between atoms: C3_4  and  C4_5 
REMARK    3  A    between atoms: C4_5  and  N2_6 
REMARK    4  A    between atoms: N2_6  and  C6_8 
ROOT
HETATM    1  C6  UNL     1      24.632   0.645  53.121  1.00  0.00     0.011 C 
HETATM    2  C7  UNL     1      24.462   1.863  52.575  1.00  0.00     0.066 C 
HETATM    3  C8  UNL     1      23.354   2.672  52.028  1.00  0.00     0.124 C 
HETATM    4  C9  UNL     1      22.066   2.376  51.791  1.00  0.00     0.157 C 
HETATM    5  N3  UNL     1      21.760   3.670  51.259  1.00  0.00    -0.245 NA
HETATM    6  C10 UNL     1      21.071   3.709  50.091  1.00  0.00     0.093 C 
HETATM    7  C11 UNL     1      21.042   5.210  50.045  1.00  0.00     0.064 C 
HETATM    8  C12 UNL     1      22.519   5.591  49.600  1.00  0.00     0.137 C 
HETATM    9  N4  UNL     1      22.900   6.893  49.991  1.00  0.00    -0.124 NA
HETATM   10  N5  UNL     1      23.689   6.848  51.126  1.00  0.00    -0.005 NA
HETATM   11  N6  UNL     1      23.836   5.444  51.478  1.00  0.00    -0.152 NA
HETATM   12  C13 UNL     1      23.203   4.966  52.457  1.00  0.00     0.278 C 
HETATM   13  O1  UNL     1      24.013   3.927  51.856  1.00  0.00    -0.299 OA
HETATM   14  N7  UNL     1      21.244   1.279  51.875  1.00  0.00    -0.372 N 
HETATM   15  C14 UNL     1      20.366   0.216  52.174  1.00  0.00     0.128 C 
HETATM   16  C15 UNL     1      20.993  -0.725  53.138  1.00  0.00     0.035 C 
HETATM   17  C16 UNL     1      21.567  -1.668  53.978  1.00  0.00     0.105 C 
HETATM   18  N8  UNL     1      21.909  -0.951  55.143  1.00  0.00    -0.414 N 
HETATM   19  C17 UNL     1      23.377  -0.781  54.876  1.00  0.00     0.120 C 
HETATM   20  C18 UNL     1      23.408  -0.045  53.577  1.00  0.00     0.076 C 
HETATM   21  H21 UNL     1      21.666   1.203  50.894  1.00  0.00     0.161 HD
HETATM   22  H26 UNL     1      20.911  -1.003  55.453  1.00  0.00     0.153 HD
ENDROOT
BRANCH   1  23
HETATM   23  N2  UNL     1      25.910   0.109  53.515  1.00  0.00    -0.387 N 
HETATM   24  C5  UNL     1      26.304  -1.071  52.771  1.00  0.00     0.149 C 
BRANCH  23  25
HETATM   25  C4  UNL     1      26.807   0.699  54.459  1.00  0.00     0.152 C 
BRANCH  25  26
HETATM   26  C3  UNL     1      28.020  -0.159  54.760  1.00  0.00     0.291 C 
BRANCH  26  27
HETATM   27  N1  UNL     1      29.225   0.634  54.423  1.00  0.00     0.081 N 
HETATM   28  C1  UNL     1      30.019  -0.127  53.470  1.00  0.00     0.309 C 
HETATM   29  C2  UNL     1      28.791   1.872  53.773  1.00  0.00     0.309 C 
ENDBRANCH  26  27
ENDBRANCH  25  26
ENDBRANCH  23  25
ENDBRANCH   1  23
TORSDOF 4
ENDMDL
MODEL 2
REMARK VINA RESULT:      -7.6      2.574      6.459
REMARK  4 active torsions:
REMARK  status: ('A' for Active; 'I' for Inactive)
REMARK    1  A    between atoms: N1_2  and  C3_4 
REMARK    2  A    between atoms: C3_4  and  C4_5 
REMARK    3  A    between atoms: C4_5  and  N2_6 
REMARK    4  A    between atoms: N2_6  and  C6_8 
ROOT
HETATM    1  C6  UNL     1      23.793   3.800  50.359  1.00  0.00     0.011 C 
HETATM    2  C7  UNL     1      24.665   3.183  51.176  1.00  0.00     0.066 C 
HETATM    3  C8  UNL     1      24.756   1.909  51.920  1.00  0.00     0.124 C 
HETATM    4  C9  UNL     1      23.866   0.921  52.107  1.00  0.00     0.157 C 
HETATM    5  N3  UNL     1      24.746   0.148  52.931  1.00  0.00    -0.245 NA
HETATM    6  C10 UNL     1      24.234  -0.338  54.091  1.00  0.00     0.093 C 
HETATM    7  C11 UNL     1      25.516  -1.016  54.485  1.00  0.00     0.064 C 
HETATM    8  C12 UNL     1      26.430   0.188  54.976  1.00  0.00     0.137 C 
HETATM    9  N4  UNL     1      27.811  -0.091  54.892  1.00  0.00    -0.124 NA
HETATM   10  N5  UNL     1      28.356   0.491  53.761  1.00  0.00    -0.005 NA
HETATM   11  N6  UNL     1      27.273   1.194  53.089  1.00  0.00    -0.152 NA
HETATM   12  C13 UNL     1      26.764   0.718  52.039  1.00  0.00     0.278 C 
HETATM   13  O1  UNL     1      26.111   1.968  52.365  1.00  0.00    -0.299 OA
HETATM   14  N7  UNL     1      22.556   0.659  51.787  1.00  0.00    -0.372 N 
HETATM   15  C14 UNL     1      21.294   0.306  51.267  1.00  0.00     0.128 C 
HETATM   16  C15 UNL     1      20.952   1.157  50.097  1.00  0.00     0.035 C 
HETATM   17  C16 UNL     1      20.561   1.977  49.050  1.00  0.00     0.105 C 
HETATM   18  N8  UNL     1      21.571   1.825  48.077  1.00  0.00    -0.414 N 
HETATM   19  C17 UNL     1      22.332   3.091  48.346  1.00  0.00     0.120 C 
HETATM   20  C18 UNL     1      22.728   2.956  49.780  1.00  0.00     0.076 C 
HETATM   21  H21 UNL     1      22.488   1.189  52.715  1.00  0.00     0.161 HD
HETATM   22  H26 UNL     1      21.133   0.920  47.784  1.00  0.00     0.153 HD
ENDROOT
BRANCH   1  23
HETATM   23  N2  UNL     1      23.986   5.124  49.825  1.00  0.00    -0.387 N 
HETATM   24  C5  UNL     1      23.208   6.146  50.497  1.00  0.00     0.149 C 
BRANCH  23  25
HETATM   25  C4  UNL     1      24.924   5.485  48.809  1.00  0.00     0.152 C 
BRANCH  25  26
HETATM   26  C3  UNL     1      25.977   6.471  49.278  1.00  0.00     0.291 C 
BRANCH  26  27
HETATM   27  N1  UNL     1      27.115   6.396  48.332  1.00  0.00     0.081 N 
HETATM   28  C1  UNL     1      28.037   7.477  48.643  1.00  0.00     0.309 C 
HETATM   29  C2  UNL     1      27.807   5.125  48.548  1.00  0.00     0.309 C 
ENDBRANCH  26  27
ENDBRANCH  25  26
ENDBRANCH  23  25
ENDBRANCH   1  23
TORSDOF 4
ENDMDL
MODEL 3
REMARK VINA RESULT:      -7.4      2.117      6.932
REMARK  4 active torsions:
REMARK  status: ('A' for Active; 'I' for Inactive)
REMARK    1  A    between atoms: N1_2  and  C3_4 
REMARK    2  A    between atoms: C3_4  and  C4_5 
REMARK    3  A    between atoms: C4_5  and  N2_6 
REMARK    4  A    between atoms: N2_6  and  C6_8 
ROOT
HETATM    1  C6  UNL     1      24.231   3.907  50.156  1.00  0.00     0.011 C 
HETATM    2  C7  UNL     1      25.021   3.252  51.025  1.00  0.00     0.066 C 
HETATM    3  C8  UNL     1      25.000   1.986  51.787  1.00  0.00     0.124 C 
HETATM    4  C9  UNL     1      24.046   1.053  51.938  1.00  0.00     0.157 C 
HETATM    5  N3  UNL     1      24.834   0.243  52.816  1.00  0.00    -0.245 NA
HETATM    6  C10 UNL     1      24.236  -0.196  53.952  1.00  0.00     0.093 C 
HETATM    7  C11 UNL     1      25.453  -0.940  54.421  1.00  0.00     0.064 C 
HETATM    8  C12 UNL     1      26.409   0.216  54.947  1.00  0.00     0.137 C 
HETATM    9  N4  UNL     1      27.773  -0.143  54.939  1.00  0.00    -0.124 NA
HETATM   10  N5  UNL     1      28.410   0.391  53.833  1.00  0.00    -0.005 NA
HETATM   11  N6  UNL     1      27.406   1.145  53.096  1.00  0.00    -0.152 NA
HETATM   12  C13 UNL     1      26.927   0.684  52.026  1.00  0.00     0.278 C 
HETATM   13  O1  UNL     1      26.331   1.974  52.303  1.00  0.00    -0.299 OA
HETATM   14  N7  UNL     1      22.741   0.862  51.551  1.00  0.00    -0.372 N 
HETATM   15  C14 UNL     1      21.490   0.574  50.968  1.00  0.00     0.128 C 
HETATM   16  C15 UNL     1      21.260   1.427  49.772  1.00  0.00     0.035 C 
HETATM   17  C16 UNL     1      20.973   2.253  48.697  1.00  0.00     0.105 C 
HETATM   18  N8  UNL     1      22.021   2.029  47.781  1.00  0.00    -0.414 N 
HETATM   19  C17 UNL     1      22.840   3.253  48.076  1.00  0.00     0.120 C 
HETATM   20  C18 UNL     1      23.151   3.116  49.530  1.00  0.00     0.076 C 
HETATM   21  H21 UNL     1      22.655   1.409  52.468  1.00  0.00     0.161 HD
HETATM   22  H26 UNL     1      21.549   1.147  47.475  1.00  0.00     0.153 HD
ENDROOT
BRANCH   1  23
HETATM   23  N2  UNL     1      24.528   5.210  49.618  1.00  0.00    -0.387 N 
HETATM   24  C5  UNL     1      25.852   5.316  49.037  1.00  0.00     0.149 C 
BRANCH  23  25
HETATM   25  C4  UNL     1      23.613   6.304  49.530  1.00  0.00     0.152 C 
BRANCH  25  26
HETATM   26  C3  UNL     1      22.875   6.583  50.825  1.00  0.00     0.291 C 
BRANCH  26  27
HETATM   27  N1  UNL     1      21.426   6.612  50.517  1.00  0.00     0.081 N 
HETATM   28  C1  UNL     1      21.269   6.729  49.075  1.00  0.00     0.309 C 
HETATM   29  C2  UNL     1      20.843   5.338  50.941  1.00  0.00     0.309 C 
ENDBRANCH  26  27
ENDBRANCH  25  26
ENDBRANCH  23  25
ENDBRANCH   1  23
TORSDOF 4
ENDMDL
MODEL 4
REMARK VINA RESULT:      -7.4      1.938      7.265
REMARK  4 active torsions:
REMARK  status: ('A' for Active; 'I' for Inactive)
REMARK    1  A    between atoms: N1_2  and  C3_4 
REMARK    2  A    between atoms: C3_4  and  C4_5 
REMARK    3  A    between atoms: C4_5  and  N2_6 
REMARK    4  A    between atoms: N2_6  and  C6_8 
ROOT
HETATM    1  C6  UNL     1      21.622   2.583  50.649  1.00  0.00     0.011 C 
HETATM    2  C7  UNL     1      22.524   1.782  51.243  1.00  0.00     0.066 C 
HETATM    3  C8  UNL     1      23.918   1.870  51.725  1.00  0.00     0.124 C 
HETATM    4  C9  UNL     1      24.838   2.843  51.620  1.00  0.00     0.157 C 
HETATM    5  N3  UNL     1      25.850   2.100  52.307  1.00  0.00    -0.245 NA
HETATM    6  C10 UNL     1      27.080   2.060  51.735  1.00  0.00     0.093 C 
HETATM    7  C11 UNL     1      27.668   1.215  52.828  1.00  0.00     0.064 C 
HETATM    8  C12 UNL     1      27.087  -0.233  52.525  1.00  0.00     0.137 C 
HETATM    9  N4  UNL     1      27.046  -1.067  53.662  1.00  0.00    -0.124 NA
HETATM   10  N5  UNL     1      25.767  -1.108  54.189  1.00  0.00    -0.005 NA
HETATM   11  N6  UNL     1      24.938  -0.268  53.338  1.00  0.00    -0.152 NA
HETATM   12  C13 UNL     1      24.569   0.869  53.735  1.00  0.00     0.278 C 
HETATM   13  O1  UNL     1      24.031   0.624  52.414  1.00  0.00    -0.299 OA
HETATM   14  N7  UNL     1      24.948   4.077  51.026  1.00  0.00    -0.372 N 
HETATM   15  C14 UNL     1      24.970   5.423  50.607  1.00  0.00     0.128 C 
HETATM   16  C15 UNL     1      23.589   5.928  50.391  1.00  0.00     0.035 C 
HETATM   17  C16 UNL     1      22.324   6.416  50.105  1.00  0.00     0.105 C 
HETATM   18  N8  UNL     1      21.602   6.273  51.309  1.00  0.00    -0.414 N 
HETATM   19  C17 UNL     1      20.838   5.028  50.963  1.00  0.00     0.120 C 
HETATM   20  C18 UNL     1      21.913   4.032  50.678  1.00  0.00     0.076 C 
HETATM   21  H21 UNL     1      25.262   3.399  50.259  1.00  0.00     0.161 HD
HETATM   22  H26 UNL     1      22.063   7.139  51.673  1.00  0.00     0.153 HD
ENDROOT
BRANCH   1  23
HETATM   23  N2  UNL     1      20.309   2.155  50.238  1.00  0.00    -0.387 N 
HETATM   24  C5  UNL     1      20.158   2.029  48.802  1.00  0.00     0.149 C 
BRANCH  23  25
HETATM   25  C4  UNL     1      19.248   1.764  51.111  1.00  0.00     0.152 C 
BRANCH  25  26
HETATM   26  C3  UNL     1      19.144   0.263  51.306  1.00  0.00     0.291 C 
BRANCH  26  27
HETATM   27  N1  UNL     1      19.014   0.008  52.759  1.00  0.00     0.081 N 
HETATM   28  C1  UNL     1      18.118  -1.124  52.944  1.00  0.00     0.309 C 
HETATM   29  C2  UNL     1      20.332  -0.361  53.279  1.00  0.00     0.309 C 
ENDBRANCH  26  27
ENDBRANCH  25  26
ENDBRANCH  23  25
ENDBRANCH   1  23
TORSDOF 4
ENDMDL
MODEL 5
REMARK VINA RESULT:      -7.1      6.052      9.309
REMARK  4 active torsions:
REMARK  status: ('A' for Active; 'I' for Inactive)
REMARK    1  A    between atoms: N1_2  and  C3_4 
REMARK    2  A    between atoms: C3_4  and  C4_5 
REMARK    3  A    between atoms: C4_5  and  N2_6 
REMARK    4  A    between atoms: N2_6  and  C6_8 
ROOT
HETATM    1  C6  UNL     1      26.635   5.288  49.014  1.00  0.00     0.011 C 
HETATM    2  C7  UNL     1      27.917   5.122  48.643  1.00  0.00     0.066 C 
HETATM    3  C8  UNL     1      29.019   5.950  48.111  1.00  0.00     0.124 C 
HETATM    4  C9  UNL     1      29.056   7.227  47.700  1.00  0.00     0.157 C 
HETATM    5  N3  UNL     1      30.441   7.178  47.341  1.00  0.00    -0.245 NA
HETATM    6  C10 UNL     1      30.779   7.680  46.126  1.00  0.00     0.093 C 
HETATM    7  C11 UNL     1      32.241   7.384  46.304  1.00  0.00     0.064 C 
HETATM    8  C12 UNL     1      32.328   5.814  46.077  1.00  0.00     0.137 C 
HETATM    9  N4  UNL     1      33.450   5.223  46.696  1.00  0.00    -0.124 NA
HETATM   10  N5  UNL     1      33.087   4.621  47.888  1.00  0.00    -0.005 NA
HETATM   11  N6  UNL     1      31.653   4.823  48.038  1.00  0.00    -0.152 NA
HETATM   12  C13 UNL     1      31.215   5.669  48.863  1.00  0.00     0.278 C 
HETATM   13  O1  UNL     1      30.102   5.023  48.200  1.00  0.00    -0.299 OA
HETATM   14  N7  UNL     1      28.173   8.266  47.532  1.00  0.00    -0.372 N 
HETATM   15  C14 UNL     1      27.310   9.381  47.575  1.00  0.00     0.128 C 
HETATM   16  C15 UNL     1      26.138   9.103  48.447  1.00  0.00     0.035 C 
HETATM   17  C16 UNL     1      24.994   8.860  49.190  1.00  0.00     0.105 C 
HETATM   18  N8  UNL     1      25.464   8.533  50.479  1.00  0.00    -0.414 N 
HETATM   19  C17 UNL     1      25.326   7.040  50.395  1.00  0.00     0.120 C 
HETATM   20  C18 UNL     1      26.191   6.680  49.232  1.00  0.00     0.076 C 
HETATM   21  H21 UNL     1      28.125   7.741  46.600  1.00  0.00     0.161 HD
HETATM   22  H26 UNL     1      25.603   9.552  50.672  1.00  0.00     0.153 HD
ENDROOT
BRANCH   1  23
HETATM   23  N2  UNL     1      25.777   4.217  49.454  1.00  0.00    -0.387 N 
HETATM   24  C5  UNL     1      26.410   3.303  50.384  1.00  0.00     0.149 C 
BRANCH  23  25
HETATM   25  C4  UNL     1      24.391   4.074  49.134  1.00  0.00     0.152 C 
BRANCH  25  26
HETATM   26  C3  UNL     1      23.585   3.390  50.222  1.00  0.00     0.291 C 
BRANCH  26  27
HETATM   27  N1  UNL     1      22.875   4.445  50.983  1.00  0.00     0.081 N 
HETATM   28  C1  UNL     1      21.459   4.108  51.013  1.00  0.00     0.309 C 
HETATM   29  C2  UNL     1      23.378   4.436  52.357  1.00  0.00     0.309 C 
ENDBRANCH  26  27
ENDBRANCH  25  26
ENDBRANCH  23  25
ENDBRANCH   1  23
TORSDOF 4
ENDMDL
MODEL 6
REMARK VINA RESULT:      -6.9      7.011     10.530
REMARK  4 active torsions:
REMARK  status: ('A' for Active; 'I' for Inactive)
REMARK    1  A    between atoms: N1_2  and  C3_4 
REMARK    2  A    between atoms: C3_4  and  C4_5 
REMARK    3  A    between atoms: C4_5  and  N2_6 
REMARK    4  A    between atoms: N2_6  and  C6_8 
ROOT
HETATM    1  C6  UNL     1      27.622   6.507  48.493  1.00  0.00     0.011 C 
HETATM    2  C7  UNL     1      28.722   5.815  48.148  1.00  0.00     0.066 C 
HETATM    3  C8  UNL     1      30.099   6.102  47.694  1.00  0.00     0.124 C 
HETATM    4  C9  UNL     1      30.705   7.251  47.357  1.00  0.00     0.157 C 
HETATM    5  N3  UNL     1      31.948   6.619  47.033  1.00  0.00    -0.245 NA
HETATM    6  C10 UNL     1      32.529   6.971  45.858  1.00  0.00     0.093 C 
HETATM    7  C11 UNL     1      33.709   6.063  46.058  1.00  0.00     0.064 C 
HETATM    8  C12 UNL     1      33.118   4.621  45.745  1.00  0.00     0.137 C 
HETATM    9  N4  UNL     1      33.842   3.577  46.359  1.00  0.00    -0.124 NA
HETATM   10  N5  UNL     1      33.196   3.147  47.505  1.00  0.00    -0.005 NA
HETATM   11  N6  UNL     1      31.986   3.945  47.628  1.00  0.00    -0.152 NA
HETATM   12  C13 UNL     1      31.917   4.864  48.487  1.00  0.00     0.278 C 
HETATM   13  O1  UNL     1      30.668   4.794  47.759  1.00  0.00    -0.299 OA
HETATM   14  N7  UNL     1      30.368   8.577  47.225  1.00  0.00    -0.372 N 
HETATM   15  C14 UNL     1      30.071   9.953  47.308  1.00  0.00     0.128 C 
HETATM   16  C15 UNL     1      28.854  10.178  48.131  1.00  0.00     0.035 C 
HETATM   17  C16 UNL     1      27.682  10.427  48.828  1.00  0.00     0.105 C 
HETATM   18  N8  UNL     1      27.901   9.878  50.108  1.00  0.00    -0.414 N 
HETATM   19  C17 UNL     1      27.135   8.598  49.936  1.00  0.00     0.120 C 
HETATM   20  C18 UNL     1      27.815   7.944  48.778  1.00  0.00     0.076 C 
HETATM   21  H21 UNL     1      30.143   8.162  46.264  1.00  0.00     0.161 HD
HETATM   22  H26 UNL     1      28.458  10.726  50.363  1.00  0.00     0.153 HD
ENDROOT
BRANCH   1  23
HETATM   23  N2  UNL     1      26.365   5.899  48.848  1.00  0.00    -0.387 N 
HETATM   24  C5  UNL     1      25.212   6.548  48.255  1.00  0.00     0.149 C 
BRANCH  23  25
HETATM   25  C4  UNL     1      26.203   4.702  49.612  1.00  0.00     0.152 C 
BRANCH  25  26
HETATM   26  C3  UNL     1      24.810   4.533  50.187  1.00  0.00     0.291 C 
BRANCH  26  27
HETATM   27  N1  UNL     1      24.310   3.203  49.768  1.00  0.00     0.081 N 
HETATM   28  C1  UNL     1      23.822   2.507  50.950  1.00  0.00     0.309 C 
HETATM   29  C2  UNL     1      23.184   3.404  48.856  1.00  0.00     0.309 C 
ENDBRANCH  26  27
ENDBRANCH  25  26
ENDBRANCH  23  25
ENDBRANCH   1  23
TORSDOF 4
ENDMDL
MODEL 7
REMARK VINA RESULT:      -6.9      2.712      6.728
REMARK  4 active torsions:
REMARK  status: ('A' for Active; 'I' for Inactive)
REMARK    1  A    between atoms: N1_2  and  C3_4 
REMARK    2  A    between atoms: C3_4  and  C4_5 
REMARK    3  A    between atoms: C4_5  and  N2_6 
REMARK    4  A    between atoms: N2_6  and  C6_8 
ROOT
HETATM    1  C6  UNL     1      24.151   4.986  50.410  1.00  0.00     0.011 C 
HETATM    2  C7  UNL     1      24.902   4.154  51.152  1.00  0.00     0.066 C 
HETATM    3  C8  UNL     1      24.881   2.736  51.568  1.00  0.00     0.124 C 
HETATM    4  C9  UNL     1      23.963   1.771  51.398  1.00  0.00     0.157 C 
HETATM    5  N3  UNL     1      24.719   0.785  52.110  1.00  0.00    -0.245 NA
HETATM    6  C10 UNL     1      24.056   0.057  53.044  1.00  0.00     0.093 C 
HETATM    7  C11 UNL     1      25.267  -0.750  53.415  1.00  0.00     0.064 C 
HETATM    8  C12 UNL     1      26.125   0.260  54.293  1.00  0.00     0.137 C 
HETATM    9  N4  UNL     1      27.501  -0.050  54.314  1.00  0.00    -0.124 NA
HETATM   10  N5  UNL     1      28.195   0.763  53.435  1.00  0.00    -0.005 NA
HETATM   11  N6  UNL     1      27.217   1.652  52.827  1.00  0.00    -0.152 NA
HETATM   12  C13 UNL     1      26.843   1.466  51.638  1.00  0.00     0.278 C 
HETATM   13  O1  UNL     1      26.168   2.628  52.177  1.00  0.00    -0.299 OA
HETATM   14  N7  UNL     1      22.702   1.650  50.865  1.00  0.00    -0.372 N 
HETATM   15  C14 UNL     1      21.514   1.488  50.124  1.00  0.00     0.128 C 
HETATM   16  C15 UNL     1      21.337   2.609  49.164  1.00  0.00     0.035 C 
HETATM   17  C16 UNL     1      21.095   3.672  48.309  1.00  0.00     0.105 C 
HETATM   18  N8  UNL     1      22.219   3.715  47.460  1.00  0.00    -0.414 N 
HETATM   19  C17 UNL     1      22.955   4.845  48.121  1.00  0.00     0.120 C 
HETATM   20  C18 UNL     1      23.160   4.352  49.516  1.00  0.00     0.076 C 
HETATM   21  H21 UNL     1      22.521   1.945  51.879  1.00  0.00     0.161 HD
HETATM   22  H26 UNL     1      21.813   2.927  46.904  1.00  0.00     0.153 HD
ENDROOT
BRANCH   1  23
HETATM   23  N2  UNL     1      24.428   6.390  50.243  1.00  0.00    -0.387 N 
HETATM   24  C5  UNL     1      23.392   7.258  50.769  1.00  0.00     0.149 C 
BRANCH  23  25
HETATM   25  C4  UNL     1      25.637   6.946  49.722  1.00  0.00     0.152 C 
BRANCH  25  26
HETATM   26  C3  UNL     1      26.049   6.357  48.387  1.00  0.00     0.291 C 
BRANCH  26  27
HETATM   27  N1  UNL     1      27.415   6.846  48.084  1.00  0.00     0.081 N 
HETATM   28  C1  UNL     1      27.715   7.947  48.987  1.00  0.00     0.309 C 
HETATM   29  C2  UNL     1      28.359   5.761  48.354  1.00  0.00     0.309 C 
ENDBRANCH  26  27
ENDBRANCH  25  26
ENDBRANCH  23  25
ENDBRANCH   1  23
TORSDOF 4
ENDMDL
MODEL 8
REMARK VINA RESULT:      -6.9      2.057      7.253
REMARK  4 active torsions:
REMARK  status: ('A' for Active; 'I' for Inactive)
REMARK    1  A    between atoms: N1_2  and  C3_4 
REMARK    2  A    between atoms: C3_4  and  C4_5 
REMARK    3  A    between atoms: C4_5  and  N2_6 
REMARK    4  A    between atoms: N2_6  and  C6_8 
ROOT
HETATM    1  C6  UNL     1      21.958   2.273  51.458  1.00  0.00     0.011 C 
HETATM    2  C7  UNL     1      22.968   1.638  52.078  1.00  0.00     0.066 C 
HETATM    3  C8  UNL     1      24.391   1.884  52.388  1.00  0.00     0.124 C 
HETATM    4  C9  UNL     1      25.224   2.873  52.025  1.00  0.00     0.157 C 
HETATM    5  N3  UNL     1      26.348   2.317  52.715  1.00  0.00    -0.245 NA
HETATM    6  C10 UNL     1      27.518   2.246  52.030  1.00  0.00     0.093 C 
HETATM    7  C11 UNL     1      28.267   1.637  53.181  1.00  0.00     0.064 C 
HETATM    8  C12 UNL     1      27.765   0.129  53.187  1.00  0.00     0.137 C 
HETATM    9  N4  UNL     1      27.893  -0.496  54.445  1.00  0.00    -0.124 NA
HETATM   10  N5  UNL     1      26.676  -0.516  55.104  1.00  0.00    -0.005 NA
HETATM   11  N6  UNL     1      25.711   0.116  54.217  1.00  0.00    -0.152 NA
HETATM   12  C13 UNL     1      25.301   1.284  54.456  1.00  0.00     0.278 C 
HETATM   13  O1  UNL     1      24.659   0.785  53.258  1.00  0.00    -0.299 OA
HETATM   14  N7  UNL     1      25.188   3.990  51.225  1.00  0.00    -0.372 N 
HETATM   15  C14 UNL     1      25.073   5.242  50.587  1.00  0.00     0.128 C 
HETATM   16  C15 UNL     1      23.645   5.625  50.438  1.00  0.00     0.035 C 
HETATM   17  C16 UNL     1      22.326   5.987  50.211  1.00  0.00     0.105 C 
HETATM   18  N8  UNL     1      21.735   6.014  51.490  1.00  0.00    -0.414 N 
HETATM   19  C17 UNL     1      21.032   4.688  51.440  1.00  0.00     0.120 C 
HETATM   20  C18 UNL     1      22.145   3.718  51.214  1.00  0.00     0.076 C 
HETATM   21  H21 UNL     1      25.476   3.207  50.553  1.00  0.00     0.161 HD
HETATM   22  H26 UNL     1      22.164   6.955  51.654  1.00  0.00     0.153 HD
ENDROOT
BRANCH   1  23
HETATM   23  N2  UNL     1      20.646   1.708  51.265  1.00  0.00    -0.387 N 
HETATM   24  C5  UNL     1      19.958   1.390  52.500  1.00  0.00     0.149 C 
BRANCH  23  25
HETATM   25  C4  UNL     1      19.980   1.556  50.009  1.00  0.00     0.152 C 
BRANCH  25  26
HETATM   26  C3  UNL     1      20.925   1.317  48.847  1.00  0.00     0.291 C 
BRANCH  26  27
HETATM   27  N1  UNL     1      20.623   2.331  47.809  1.00  0.00     0.081 N 
HETATM   28  C1  UNL     1      19.563   3.193  48.310  1.00  0.00     0.309 C 
HETATM   29  C2  UNL     1      21.821   3.147  47.605  1.00  0.00     0.309 C 
ENDBRANCH  26  27
ENDBRANCH  25  26
ENDBRANCH  23  25
ENDBRANCH   1  23
TORSDOF 4
ENDMDL
MODEL 9
REMARK VINA RESULT:      -6.6      5.396      7.948
REMARK  4 active torsions:
REMARK  status: ('A' for Active; 'I' for Inactive)
REMARK    1  A    between atoms: N1_2  and  C3_4 
REMARK    2  A    between atoms: C3_4  and  C4_5 
REMARK    3  A    between atoms: C4_5  and  N2_6 
REMARK    4  A    between atoms: N2_6  and  C6_8 
ROOT
HETATM    1  C6  UNL     1      25.698   4.949  49.471  1.00  0.00     0.011 C 
HETATM    2  C7  UNL     1      26.951   4.960  48.982  1.00  0.00     0.066 C 
HETATM    3  C8  UNL     1      27.907   5.948  48.442  1.00  0.00     0.124 C 
HETATM    4  C9  UNL     1      27.773   7.252  48.151  1.00  0.00     0.157 C 
HETATM    5  N3  UNL     1      29.117   7.389  47.676  1.00  0.00    -0.245 NA
HETATM    6  C10 UNL     1      29.288   8.026  46.490  1.00  0.00     0.093 C 
HETATM    7  C11 UNL     1      30.783   7.882  46.518  1.00  0.00     0.064 C 
HETATM    8  C12 UNL     1      31.012   6.356  46.138  1.00  0.00     0.137 C 
HETATM    9  N4  UNL     1      32.241   5.844  46.604  1.00  0.00    -0.124 NA
HETATM   10  N5  UNL     1      32.054   5.107  47.760  1.00  0.00    -0.005 NA
HETATM   11  N6  UNL     1      30.627   5.133  48.046  1.00  0.00    -0.152 NA
HETATM   12  C13 UNL     1      30.181   5.852  48.980  1.00  0.00     0.278 C 
HETATM   13  O1  UNL     1      29.085   5.144  48.353  1.00  0.00    -0.299 OA
HETATM   14  N7  UNL     1      26.775   8.196  48.155  1.00  0.00    -0.372 N 
HETATM   15  C14 UNL     1      25.808   9.198  48.374  1.00  0.00     0.128 C 
HETATM   16  C15 UNL     1      24.757   8.719  49.309  1.00  0.00     0.035 C 
HETATM   17  C16 UNL     1      23.718   8.286  50.117  1.00  0.00     0.105 C 
HETATM   18  N8  UNL     1      24.336   7.907  51.327  1.00  0.00    -0.414 N 
HETATM   19  C17 UNL     1      24.347   6.420  51.114  1.00  0.00     0.120 C 
HETATM   20  C18 UNL     1      25.134   6.259  49.855  1.00  0.00     0.076 C 
HETATM   21  H21 UNL     1      26.696   7.749  47.185  1.00  0.00     0.161 HD
HETATM   22  H26 UNL     1      24.385   8.915  51.603  1.00  0.00     0.153 HD
ENDROOT
BRANCH   1  23
HETATM   23  N2  UNL     1      25.001   3.755  49.877  1.00  0.00    -0.387 N 
HETATM   24  C5  UNL     1      24.064   3.260  48.888  1.00  0.00     0.149 C 
BRANCH  23  25
HETATM   25  C4  UNL     1      25.243   3.014  51.075  1.00  0.00     0.152 C 
BRANCH  25  26
HETATM   26  C3  UNL     1      26.621   2.382  51.129  1.00  0.00     0.291 C 
BRANCH  26  27
HETATM   27  N1  UNL     1      26.740   1.676  52.426  1.00  0.00     0.081 N 
HETATM   28  C1  UNL     1      26.779   0.245  52.163  1.00  0.00     0.309 C 
HETATM   29  C2  UNL     1      28.009   2.064  53.043  1.00  0.00     0.309 C 
ENDBRANCH  26  27
ENDBRANCH  25  26
ENDBRANCH  23  25
ENDBRANCH   1  23
TORSDOF 4
ENDMDL
