MODEL 1
REMARK VINA RESULT:      -7.6      0.000      0.000
REMARK  3 active torsions:
REMARK  status: ('A' for Active; 'I' for Inactive)
REMARK    1  A    between atoms: C2_2  and  C5_5 
REMARK    2  A    between atoms: C6_7  and  S1_8 
REMARK    3  A    between atoms: S1_8  and  C7_9 
ROOT
HETATM    1  C7  UNL     1      25.700   1.070  53.168  1.00  0.00     0.046 C 
HETATM    2  C8  UNL     1      26.386   2.167  53.581  1.00  0.00     0.200 C 
HETATM    3  N2  UNL     1      27.702   2.173  53.670  1.00  0.00    -0.413 NA
HETATM    4  C9  UNL     1      28.854   2.448  53.782  1.00  0.00     0.269 C 
HETATM    5  N3  UNL     1      29.749   1.342  53.699  1.00  0.00    -0.375 N 
HETATM    6  C10 UNL     1      29.663  -0.064  54.172  1.00  0.00     0.126 C 
HETATM    7  C11 UNL     1      28.651  -0.682  53.376  1.00  0.00     0.007 C 
HETATM    8  C12 UNL     1      28.460  -2.093  53.034  1.00  0.00     0.036 C 
HETATM    9  C13 UNL     1      27.097  -2.328  52.468  1.00  0.00     0.271 C 
HETATM   10  N4  UNL     1      26.115  -1.297  52.403  1.00  0.00     0.093 N 
HETATM   11  C14 UNL     1      26.507  -0.036  52.838  1.00  0.00     0.263 C 
HETATM   12  C15 UNL     1      27.331  -0.358  54.060  1.00  0.00     0.047 C 
HETATM   13  H13 UNL     1      30.657   1.583  53.194  1.00  0.00     0.161 HD
HETATM   14  H21 UNL     1      25.634  -1.246  51.477  1.00  0.00     0.316 HD
ENDROOT
BRANCH   1  15
HETATM   15  S1  UNL     1      23.958   0.871  52.989  1.00  0.00    -0.073 SA
BRANCH  15  16
HETATM   16  C6  UNL     1      23.158   2.246  52.218  1.00  0.00     0.096 C 
HETATM   17  N1  UNL     1      23.243   1.832  51.011  1.00  0.00    -0.252 NA
HETATM   18  C5  UNL     1      22.650   2.787  50.138  1.00  0.00     0.252 C 
HETATM   19  O1  UNL     1      21.817   3.585  50.920  1.00  0.00    -0.358 OA
HETATM   20  C16 UNL     1      22.462   3.568  52.149  1.00  0.00     0.237 C 
BRANCH  18  21
HETATM   21  C2  UNL     1      21.773   2.125  49.086  1.00  0.00    -0.005 C 
HETATM   22  C1  UNL     1      20.539   2.973  48.907  1.00  0.00     0.019 C 
HETATM   23  C3  UNL     1      22.507   2.064  47.760  1.00  0.00     0.019 C 
HETATM   24  C4  UNL     1      21.351   0.749  49.513  1.00  0.00     0.019 C 
ENDBRANCH  18  21
ENDBRANCH  15  16
ENDBRANCH   1  15
TORSDOF 3
ENDMDL
MODEL 2
REMARK VINA RESULT:      -7.6      1.328      2.077
REMARK  3 active torsions:
REMARK  status: ('A' for Active; 'I' for Inactive)
REMARK    1  A    between atoms: C2_2  and  C5_5 
REMARK    2  A    between atoms: C6_7  and  S1_8 
REMARK    3  A    between atoms: S1_8  and  C7_9 
ROOT
HETATM    1  C7  UNL     1      25.633   1.031  53.248  1.00  0.00     0.046 C 
HETATM    2  C8  UNL     1      26.303   2.142  53.650  1.00  0.00     0.200 C 
HETATM    3  N2  UNL     1      27.621   2.183  53.697  1.00  0.00    -0.413 NA
HETATM    4  C9  UNL     1      28.768   2.487  53.775  1.00  0.00     0.269 C 
HETATM    5  N3  UNL     1      29.689   1.407  53.652  1.00  0.00    -0.375 N 
HETATM    6  C10 UNL     1      29.655  -0.005  54.113  1.00  0.00     0.126 C 
HETATM    7  C11 UNL     1      28.635  -0.642  53.343  1.00  0.00     0.007 C 
HETATM    8  C12 UNL     1      28.470  -2.055  52.993  1.00  0.00     0.036 C 
HETATM    9  C13 UNL     1      27.096  -2.322  52.469  1.00  0.00     0.271 C 
HETATM   10  N4  UNL     1      26.086  -1.316  52.446  1.00  0.00     0.093 N 
HETATM   11  C14 UNL     1      26.458  -0.049  52.882  1.00  0.00     0.263 C 
HETATM   12  C15 UNL     1      27.330  -0.361  54.073  1.00  0.00     0.047 C 
HETATM   13  H13 UNL     1      30.573   1.677  53.120  1.00  0.00     0.161 HD
HETATM   14  H21 UNL     1      25.574  -1.270  51.536  1.00  0.00     0.316 HD
ENDROOT
BRANCH   1  15
HETATM   15  S1  UNL     1      23.893   0.787  53.123  1.00  0.00    -0.073 SA
BRANCH  15  16
HETATM   16  C6  UNL     1      23.185   1.441  51.640  1.00  0.00     0.096 C 
HETATM   17  N1  UNL     1      23.544   2.656  51.808  1.00  0.00    -0.252 NA
HETATM   18  C5  UNL     1      23.088   3.442  50.712  1.00  0.00     0.252 C 
HETATM   19  O1  UNL     1      22.819   2.559  49.668  1.00  0.00    -0.358 OA
HETATM   20  C16 UNL     1      22.437   1.409  50.345  1.00  0.00     0.237 C 
BRANCH  18  21
HETATM   21  C2  UNL     1      24.159   4.403  50.218  1.00  0.00    -0.005 C 
HETATM   22  C1  UNL     1      23.856   4.739  48.780  1.00  0.00     0.019 C 
HETATM   23  C3  UNL     1      24.121   5.685  51.027  1.00  0.00     0.019 C 
HETATM   24  C4  UNL     1      25.524   3.782  50.288  1.00  0.00     0.019 C 
ENDBRANCH  18  21
ENDBRANCH  15  16
ENDBRANCH   1  15
TORSDOF 3
ENDMDL
MODEL 3
REMARK VINA RESULT:      -7.4      2.450      7.245
REMARK  3 active torsions:
REMARK  status: ('A' for Active; 'I' for Inactive)
REMARK    1  A    between atoms: C2_2  and  C5_5 
REMARK    2  A    between atoms: C6_7  and  S1_8 
REMARK    3  A    between atoms: S1_8  and  C7_9 
ROOT
HETATM    1  C7  UNL     1      23.413   1.492  51.461  1.00  0.00     0.046 C 
HETATM    2  C8  UNL     1      22.281   1.019  50.878  1.00  0.00     0.200 C 
HETATM    3  N2  UNL     1      21.895   1.416  49.681  1.00  0.00    -0.413 NA
HETATM    4  C9  UNL     1      21.371   1.567  48.624  1.00  0.00     0.269 C 
HETATM    5  N3  UNL     1      21.877   2.650  47.848  1.00  0.00    -0.375 N 
HETATM    6  C10 UNL     1      22.367   4.005  48.207  1.00  0.00     0.126 C 
HETATM    7  C11 UNL     1      23.587   3.803  48.921  1.00  0.00     0.007 C 
HETATM    8  C12 UNL     1      24.733   4.699  49.092  1.00  0.00     0.036 C 
HETATM    9  C13 UNL     1      25.633   4.217  50.184  1.00  0.00     0.271 C 
HETATM   10  N4  UNL     1      25.306   3.091  50.994  1.00  0.00     0.093 N 
HETATM   11  C14 UNL     1      24.130   2.419  50.681  1.00  0.00     0.263 C 
HETATM   12  C15 UNL     1      23.185   3.553  50.367  1.00  0.00     0.047 C 
HETATM   13  H13 UNL     1      21.906   2.432  46.805  1.00  0.00     0.161 HD
HETATM   14  H21 UNL     1      26.103   2.426  51.114  1.00  0.00     0.316 HD
ENDROOT
BRANCH   1  15
HETATM   15  S1  UNL     1      24.085   1.086  53.039  1.00  0.00    -0.073 SA
BRANCH  15  16
HETATM   16  C6  UNL     1      25.390  -0.105  52.974  1.00  0.00     0.096 C 
HETATM   17  N1  UNL     1      26.365   0.720  52.925  1.00  0.00    -0.252 NA
HETATM   18  C5  UNL     1      27.593   0.003  52.864  1.00  0.00     0.252 C 
HETATM   19  O1  UNL     1      27.328  -1.287  53.322  1.00  0.00    -0.358 OA
HETATM   20  C16 UNL     1      26.005  -1.468  52.944  1.00  0.00     0.237 C 
BRANCH  18  21
HETATM   21  C2  UNL     1      28.643   0.597  53.791  1.00  0.00    -0.005 C 
HETATM   22  C1  UNL     1      29.983   0.026  53.403  1.00  0.00     0.019 C 
HETATM   23  C3  UNL     1      28.697   2.103  53.617  1.00  0.00     0.019 C 
HETATM   24  C4  UNL     1      28.369   0.246  55.224  1.00  0.00     0.019 C 
ENDBRANCH  18  21
ENDBRANCH  15  16
ENDBRANCH   1  15
TORSDOF 3
ENDMDL
MODEL 4
REMARK VINA RESULT:      -7.4      2.538      6.399
REMARK  3 active torsions:
REMARK  status: ('A' for Active; 'I' for Inactive)
REMARK    1  A    between atoms: C2_2  and  C5_5 
REMARK    2  A    between atoms: C6_7  and  S1_8 
REMARK    3  A    between atoms: S1_8  and  C7_9 
ROOT
HETATM    1  C7  UNL     1      22.685   1.655  52.167  1.00  0.00     0.046 C 
HETATM    2  C8  UNL     1      23.305   2.734  52.712  1.00  0.00     0.200 C 
HETATM    3  N2  UNL     1      23.516   3.839  52.024  1.00  0.00    -0.413 NA
HETATM    4  C9  UNL     1      23.770   4.938  51.647  1.00  0.00     0.269 C 
HETATM    5  N3  UNL     1      23.622   5.145  50.245  1.00  0.00    -0.375 N 
HETATM    6  C10 UNL     1      23.890   4.285  49.064  1.00  0.00     0.126 C 
HETATM    7  C11 UNL     1      22.927   3.232  49.121  1.00  0.00     0.007 C 
HETATM    8  C12 UNL     1      22.381   2.402  48.045  1.00  0.00     0.036 C 
HETATM    9  C13 UNL     1      21.664   1.212  48.596  1.00  0.00     0.271 C 
HETATM   10  N4  UNL     1      21.648   0.915  49.991  1.00  0.00     0.093 N 
HETATM   11  C14 UNL     1      22.285   1.825  50.828  1.00  0.00     0.263 C 
HETATM   12  C15 UNL     1      23.523   2.176  50.041  1.00  0.00     0.047 C 
HETATM   13  H13 UNL     1      23.240   6.113  50.009  1.00  0.00     0.161 HD
HETATM   14  H21 UNL     1      20.697   0.672  50.348  1.00  0.00     0.316 HD
ENDROOT
BRANCH   1  15
HETATM   15  S1  UNL     1      22.319   0.105  52.920  1.00  0.00    -0.073 SA
BRANCH  15  16
HETATM   16  C6  UNL     1      23.630  -0.527  53.925  1.00  0.00     0.096 C 
HETATM   17  N1  UNL     1      24.553  -0.481  53.041  1.00  0.00    -0.252 NA
HETATM   18  C5  UNL     1      25.773  -0.953  53.602  1.00  0.00     0.252 C 
HETATM   19  O1  UNL     1      25.637  -0.870  54.987  1.00  0.00    -0.358 OA
HETATM   20  C16 UNL     1      24.275  -1.067  55.162  1.00  0.00     0.237 C 
BRANCH  18  21
HETATM   21  C2  UNL     1      26.952  -0.072  53.217  1.00  0.00    -0.005 C 
HETATM   22  C1  UNL     1      28.172  -0.951  53.103  1.00  0.00     0.019 C 
HETATM   23  C3  UNL     1      26.700   0.574  51.868  1.00  0.00     0.019 C 
HETATM   24  C4  UNL     1      27.213   0.978  54.259  1.00  0.00     0.019 C 
ENDBRANCH  18  21
ENDBRANCH  15  16
ENDBRANCH   1  15
TORSDOF 3
ENDMDL
MODEL 5
REMARK VINA RESULT:      -7.2      7.879     10.068
REMARK  3 active torsions:
REMARK  status: ('A' for Active; 'I' for Inactive)
REMARK    1  A    between atoms: C2_2  and  C5_5 
REMARK    2  A    between atoms: C6_7  and  S1_8 
REMARK    3  A    between atoms: S1_8  and  C7_9 
ROOT
HETATM    1  C7  UNL     1      29.221   7.783  48.090  1.00  0.00     0.046 C 
HETATM    2  C8  UNL     1      28.866   9.015  48.540  1.00  0.00     0.200 C 
HETATM    3  N2  UNL     1      27.859   9.189  49.374  1.00  0.00    -0.413 NA
HETATM    4  C9  UNL     1      27.053   9.599  50.146  1.00  0.00     0.269 C 
HETATM    5  N3  UNL     1      26.059   8.656  50.539  1.00  0.00    -0.375 N 
HETATM    6  C10 UNL     1      25.347   7.577  49.807  1.00  0.00     0.126 C 
HETATM    7  C11 UNL     1      26.332   6.585  49.518  1.00  0.00     0.007 C 
HETATM    8  C12 UNL     1      26.173   5.148  49.277  1.00  0.00     0.036 C 
HETATM    9  C13 UNL     1      27.414   4.563  48.685  1.00  0.00     0.271 C 
HETATM   10  N4  UNL     1      28.532   5.368  48.318  1.00  0.00     0.093 N 
HETATM   11  C14 UNL     1      28.436   6.728  48.593  1.00  0.00     0.263 C 
HETATM   12  C15 UNL     1      27.004   7.032  48.229  1.00  0.00     0.047 C 
HETATM   13  H13 UNL     1      25.781   8.752  51.564  1.00  0.00     0.161 HD
HETATM   14  H21 UNL     1      29.444   4.978  48.644  1.00  0.00     0.316 HD
ENDROOT
BRANCH   1  15
HETATM   15  S1  UNL     1      30.522   7.354  46.982  1.00  0.00    -0.073 SA
BRANCH  15  16
HETATM   16  C6  UNL     1      31.896   6.564  47.767  1.00  0.00     0.096 C 
HETATM   17  N1  UNL     1      31.696   5.389  47.307  1.00  0.00    -0.252 NA
HETATM   18  C5  UNL     1      32.701   4.508  47.798  1.00  0.00     0.252 C 
HETATM   19  O1  UNL     1      33.762   5.306  48.221  1.00  0.00    -0.358 OA
HETATM   20  C16 UNL     1      33.117   6.466  48.626  1.00  0.00     0.237 C 
BRANCH  18  21
HETATM   21  C2  UNL     1      33.238   3.595  46.706  1.00  0.00    -0.005 C 
HETATM   22  C1  UNL     1      32.510   2.278  46.801  1.00  0.00     0.019 C 
HETATM   23  C3  UNL     1      32.962   4.197  45.342  1.00  0.00     0.019 C 
HETATM   24  C4  UNL     1      34.708   3.344  46.879  1.00  0.00     0.019 C 
ENDBRANCH  18  21
ENDBRANCH  15  16
ENDBRANCH   1  15
TORSDOF 3
ENDMDL
MODEL 6
REMARK VINA RESULT:      -7.1      4.204      5.318
REMARK  3 active torsions:
REMARK  status: ('A' for Active; 'I' for Inactive)
REMARK    1  A    between atoms: C2_2  and  C5_5 
REMARK    2  A    between atoms: C6_7  and  S1_8 
REMARK    3  A    between atoms: S1_8  and  C7_9 
ROOT
HETATM    1  C7  UNL     1      25.539   2.443  51.392  1.00  0.00     0.046 C 
HETATM    2  C8  UNL     1      26.799   2.132  51.794  1.00  0.00     0.200 C 
HETATM    3  N2  UNL     1      27.066   1.021  52.452  1.00  0.00    -0.413 NA
HETATM    4  C9  UNL     1      27.565   0.088  52.994  1.00  0.00     0.269 C 
HETATM    5  N3  UNL     1      26.648  -0.833  53.580  1.00  0.00    -0.375 N 
HETATM    6  C10 UNL     1      25.352  -0.656  54.283  1.00  0.00     0.126 C 
HETATM    7  C11 UNL     1      24.430  -0.199  53.292  1.00  0.00     0.007 C 
HETATM    8  C12 UNL     1      22.971  -0.315  53.245  1.00  0.00     0.036 C 
HETATM    9  C13 UNL     1      22.393   0.592  52.208  1.00  0.00     0.271 C 
HETATM   10  N4  UNL     1      23.197   1.512  51.472  1.00  0.00     0.093 N 
HETATM   11  C14 UNL     1      24.564   1.484  51.725  1.00  0.00     0.263 C 
HETATM   12  C15 UNL     1      24.612   1.311  53.223  1.00  0.00     0.047 C 
HETATM   13  H13 UNL     1      26.966  -1.847  53.488  1.00  0.00     0.161 HD
HETATM   14  H21 UNL     1      23.000   1.501  50.447  1.00  0.00     0.316 HD
ENDROOT
BRANCH   1  15
HETATM   15  S1  UNL     1      24.991   3.869  50.513  1.00  0.00    -0.073 SA
BRANCH  15  16
HETATM   16  C6  UNL     1      26.230   4.589  49.477  1.00  0.00     0.096 C 
HETATM   17  N1  UNL     1      25.628   5.691  49.241  1.00  0.00    -0.252 NA
HETATM   18  C5  UNL     1      26.435   6.502  48.393  1.00  0.00     0.252 C 
HETATM   19  O1  UNL     1      27.736   6.014  48.491  1.00  0.00    -0.358 OA
HETATM   20  C16 UNL     1      27.528   4.664  48.738  1.00  0.00     0.237 C 
BRANCH  18  21
HETATM   21  C2  UNL     1      26.466   7.951  48.856  1.00  0.00    -0.005 C 
HETATM   22  C1  UNL     1      25.910   8.807  47.747  1.00  0.00     0.019 C 
HETATM   23  C3  UNL     1      25.587   8.124  50.080  1.00  0.00     0.019 C 
HETATM   24  C4  UNL     1      27.868   8.399  49.152  1.00  0.00     0.019 C 
ENDBRANCH  18  21
ENDBRANCH  15  16
ENDBRANCH   1  15
TORSDOF 3
ENDMDL
MODEL 7
REMARK VINA RESULT:      -7.1      2.763      7.390
REMARK  3 active torsions:
REMARK  status: ('A' for Active; 'I' for Inactive)
REMARK    1  A    between atoms: C2_2  and  C5_5 
REMARK    2  A    between atoms: C6_7  and  S1_8 
REMARK    3  A    between atoms: S1_8  and  C7_9 
ROOT
HETATM    1  C7  UNL     1      22.724   2.052  52.010  1.00  0.00     0.046 C 
HETATM    2  C8  UNL     1      22.211   2.609  50.883  1.00  0.00     0.200 C 
HETATM    3  N2  UNL     1      20.951   2.440  50.533  1.00  0.00    -0.413 NA
HETATM    4  C9  UNL     1      19.870   2.484  50.037  1.00  0.00     0.269 C 
HETATM    5  N3  UNL     1      18.918   1.574  50.582  1.00  0.00    -0.375 N 
HETATM    6  C10 UNL     1      19.028   0.183  51.091  1.00  0.00     0.126 C 
HETATM    7  C11 UNL     1      19.800   0.265  52.289  1.00  0.00     0.007 C 
HETATM    8  C12 UNL     1      19.830  -0.630  53.448  1.00  0.00     0.036 C 
HETATM    9  C13 UNL     1      21.017  -0.351  54.312  1.00  0.00     0.271 C 
HETATM   10  N4  UNL     1      22.016   0.597  53.944  1.00  0.00     0.093 N 
HETATM   11  C14 UNL     1      21.803   1.299  52.762  1.00  0.00     0.263 C 
HETATM   12  C15 UNL     1      21.256   0.232  51.847  1.00  0.00     0.047 C 
HETATM   13  H13 UNL     1      17.935   1.986  50.632  1.00  0.00     0.161 HD
HETATM   14  H21 UNL     1      22.280   1.239  54.725  1.00  0.00     0.316 HD
ENDROOT
BRANCH   1  15
HETATM   15  S1  UNL     1      24.368   2.162  52.636  1.00  0.00    -0.073 SA
BRANCH  15  16
HETATM   16  C6  UNL     1      25.132   0.592  52.914  1.00  0.00     0.096 C 
HETATM   17  N1  UNL     1      26.340   0.958  52.714  1.00  0.00    -0.252 NA
HETATM   18  C5  UNL     1      27.209  -0.156  52.881  1.00  0.00     0.252 C 
HETATM   19  O1  UNL     1      26.507  -1.107  53.619  1.00  0.00    -0.358 OA
HETATM   20  C16 UNL     1      25.195  -0.867  53.236  1.00  0.00     0.237 C 
BRANCH  18  21
HETATM   21  C2  UNL     1      28.449   0.206  53.685  1.00  0.00    -0.005 C 
HETATM   22  C1  UNL     1      28.106   0.090  55.148  1.00  0.00     0.019 C 
HETATM   23  C3  UNL     1      29.570  -0.769  53.378  1.00  0.00     0.019 C 
HETATM   24  C4  UNL     1      28.890   1.614  53.406  1.00  0.00     0.019 C 
ENDBRANCH  18  21
ENDBRANCH  15  16
ENDBRANCH   1  15
TORSDOF 3
ENDMDL
MODEL 8
REMARK VINA RESULT:      -7.0      9.094     11.413
REMARK  3 active torsions:
REMARK  status: ('A' for Active; 'I' for Inactive)
REMARK    1  A    between atoms: C2_2  and  C5_5 
REMARK    2  A    between atoms: C6_7  and  S1_8 
REMARK    3  A    between atoms: S1_8  and  C7_9 
ROOT
HETATM    1  C7  UNL     1      30.356   8.295  48.801  1.00  0.00     0.046 C 
HETATM    2  C8  UNL     1      31.202   9.351  48.681  1.00  0.00     0.200 C 
HETATM    3  N2  UNL     1      30.805  10.590  48.899  1.00  0.00    -0.413 NA
HETATM    4  C9  UNL     1      30.714  11.761  49.086  1.00  0.00     0.269 C 
HETATM    5  N3  UNL     1      29.383  12.245  49.249  1.00  0.00    -0.375 N 
HETATM    6  C10 UNL     1      28.091  11.877  48.616  1.00  0.00     0.126 C 
HETATM    7  C11 UNL     1      27.788  10.562  49.084  1.00  0.00     0.007 C 
HETATM    8  C12 UNL     1      26.493   9.889  49.213  1.00  0.00     0.036 C 
HETATM    9  C13 UNL     1      26.670   8.420  49.420  1.00  0.00     0.271 C 
HETATM   10  N4  UNL     1      27.951   7.797  49.373  1.00  0.00     0.093 N 
HETATM   11  C14 UNL     1      29.045   8.635  49.182  1.00  0.00     0.263 C 
HETATM   12  C15 UNL     1      28.527   9.611  48.154  1.00  0.00     0.047 C 
HETATM   13  H13 UNL     1      29.314  13.025  49.974  1.00  0.00     0.161 HD
HETATM   14  H21 UNL     1      28.115   7.133  50.162  1.00  0.00     0.316 HD
ENDROOT
BRANCH   1  15
HETATM   15  S1  UNL     1      30.698   6.584  48.551  1.00  0.00    -0.073 SA
BRANCH  15  16
HETATM   16  C6  UNL     1      32.418   6.222  48.352  1.00  0.00     0.096 C 
HETATM   17  N1  UNL     1      32.295   4.980  48.080  1.00  0.00    -0.252 NA
HETATM   18  C5  UNL     1      33.581   4.410  47.863  1.00  0.00     0.252 C 
HETATM   19  O1  UNL     1      34.447   5.467  47.588  1.00  0.00    -0.358 OA
HETATM   20  C16 UNL     1      33.886   6.506  48.317  1.00  0.00     0.237 C 
BRANCH  18  21
HETATM   21  C2  UNL     1      33.599   3.493  46.649  1.00  0.00    -0.005 C 
HETATM   22  C1  UNL     1      32.796   4.150  45.556  1.00  0.00     0.019 C 
HETATM   23  C3  UNL     1      35.022   3.312  46.155  1.00  0.00     0.019 C 
HETATM   24  C4  UNL     1      32.982   2.160  46.963  1.00  0.00     0.019 C 
ENDBRANCH  18  21
ENDBRANCH  15  16
ENDBRANCH   1  15
TORSDOF 3
ENDMDL
MODEL 9
REMARK VINA RESULT:      -7.0      2.044      3.126
REMARK  3 active torsions:
REMARK  status: ('A' for Active; 'I' for Inactive)
REMARK    1  A    between atoms: C2_2  and  C5_5 
REMARK    2  A    between atoms: C6_7  and  S1_8 
REMARK    3  A    between atoms: S1_8  and  C7_9 
ROOT
HETATM    1  C7  UNL     1      25.895   2.217  51.486  1.00  0.00     0.046 C 
HETATM    2  C8  UNL     1      27.145   2.073  51.998  1.00  0.00     0.200 C 
HETATM    3  N2  UNL     1      27.441   1.119  52.858  1.00  0.00    -0.413 NA
HETATM    4  C9  UNL     1      27.964   0.334  53.584  1.00  0.00     0.269 C 
HETATM    5  N3  UNL     1      27.073  -0.530  54.282  1.00  0.00    -0.375 N 
HETATM    6  C10 UNL     1      25.728  -0.325  54.879  1.00  0.00     0.126 C 
HETATM    7  C11 UNL     1      24.841  -0.118  53.779  1.00  0.00     0.007 C 
HETATM    8  C12 UNL     1      23.397  -0.345  53.685  1.00  0.00     0.036 C 
HETATM    9  C13 UNL     1      22.827   0.320  52.474  1.00  0.00     0.271 C 
HETATM   10  N4  UNL     1      23.615   1.150  51.623  1.00  0.00     0.093 N 
HETATM   11  C14 UNL     1      24.964   1.265  51.941  1.00  0.00     0.263 C 
HETATM   12  C15 UNL     1      24.933   1.364  53.446  1.00  0.00     0.047 C 
HETATM   13  H13 UNL     1      27.457  -1.520  54.390  1.00  0.00     0.161 HD
HETATM   14  H21 UNL     1      23.480   0.943  50.608  1.00  0.00     0.316 HD
ENDROOT
BRANCH   1  15
HETATM   15  S1  UNL     1      25.313   3.421  50.339  1.00  0.00    -0.073 SA
BRANCH  15  16
HETATM   16  C6  UNL     1      24.058   4.482  50.992  1.00  0.00     0.096 C 
HETATM   17  N1  UNL     1      23.078   4.011  50.321  1.00  0.00    -0.252 NA
HETATM   18  C5  UNL     1      21.887   4.711  50.664  1.00  0.00     0.252 C 
HETATM   19  O1  UNL     1      22.122   5.327  51.891  1.00  0.00    -0.358 OA
HETATM   20  C16 UNL     1      23.487   5.572  51.842  1.00  0.00     0.237 C 
BRANCH  18  21
HETATM   21  C2  UNL     1      20.709   3.768  50.857  1.00  0.00    -0.005 C 
HETATM   22  C1  UNL     1      19.449   4.517  50.508  1.00  0.00     0.019 C 
HETATM   23  C3  UNL     1      20.835   2.581  49.921  1.00  0.00     0.019 C 
HETATM   24  C4  UNL     1      20.611   3.302  52.281  1.00  0.00     0.019 C 
ENDBRANCH  18  21
ENDBRANCH  15  16
ENDBRANCH   1  15
TORSDOF 3
ENDMDL
