MODEL 1
REMARK VINA RESULT:      -8.3      0.000      0.000
REMARK  4 active torsions:
REMARK  status: ('A' for Active; 'I' for Inactive)
REMARK    1  A    between atoms: C2_2  and  C3_3 
REMARK    2  A    between atoms: C4_5  and  C5_6 
REMARK    3  A    between atoms: N1_8  and  C7_9 
REMARK    4  A    between atoms: C11_15  and  O1_16 
ROOT
HETATM    1  C7  UNL     1      23.761  -0.206  53.647  1.00  0.00     0.151 A 
HETATM    2  N2  UNL     1      24.208  -0.819  54.761  1.00  0.00    -0.223 NA
HETATM    3  C8  UNL     1      23.388  -1.497  55.590  1.00  0.00     0.236 A 
HETATM    4  N3  UNL     1      22.069  -1.564  55.294  1.00  0.00    -0.241 NA
HETATM    5  C9  UNL     1      21.583  -0.958  54.180  1.00  0.00     0.077 A 
HETATM    6  C10 UNL     1      20.239  -1.040  53.899  1.00  0.00     0.072 A 
HETATM    7  C11 UNL     1      19.689  -0.453  52.796  1.00  0.00     0.106 A 
HETATM    8  C13 UNL     1      20.527   0.250  51.933  1.00  0.00     0.136 A 
HETATM    9  C14 UNL     1      21.884   0.330  52.220  1.00  0.00     0.121 A 
HETATM   10  C15 UNL     1      22.422  -0.271  53.340  1.00  0.00     0.075 A 
HETATM   11  O2  UNL     1      22.770   1.016  51.397  1.00  0.00    -0.345 OA
HETATM   12  C16 UNL     1      22.230   1.821  50.344  1.00  0.00     0.202 C 
HETATM   13  C17 UNL     1      20.986   1.203  49.762  1.00  0.00     0.202 C 
HETATM   14  O3  UNL     1      20.058   0.882  50.782  1.00  0.00    -0.344 OA
ENDROOT
BRANCH   1  15
HETATM   15  N1  UNL     1      24.653   0.509  52.781  1.00  0.00    -0.302 N 
HETATM   16  C5  UNL     1      26.041   0.624  52.487  1.00  0.00     0.059 A 
HETATM   17  C6  UNL     1      25.134   1.400  51.779  1.00  0.00     0.129 A 
BRANCH  16  18
HETATM   18  C4  UNL     1      27.481   0.424  52.522  1.00  0.00     0.073 C 
HETATM   19  C3  UNL     1      28.111   0.180  53.659  1.00  0.00     0.117 C 
HETATM   20  F1  UNL     1      27.392   0.119  54.806  1.00  0.00    -0.206 F 
BRANCH  19  21
HETATM   21  C2  UNL     1      29.556  -0.018  53.679  1.00  0.00     0.032 C 
HETATM   22  C1  UNL     1      30.046  -1.266  53.740  1.00  0.00     0.014 C 
ENDBRANCH  19  21
ENDBRANCH  16  18
ENDBRANCH   1  15
BRANCH   7  23
HETATM   23  O1  UNL     1      18.352  -0.478  52.426  1.00  0.00    -0.353 OA
HETATM   24  C12 UNL     1      17.491  -1.324  53.167  1.00  0.00     0.210 C 
ENDBRANCH   7  23
TORSDOF 4
ENDMDL
MODEL 2
REMARK VINA RESULT:      -8.0      1.777      2.554
REMARK  4 active torsions:
REMARK  status: ('A' for Active; 'I' for Inactive)
REMARK    1  A    between atoms: C2_2  and  C3_3 
REMARK    2  A    between atoms: C4_5  and  C5_6 
REMARK    3  A    between atoms: N1_8  and  C7_9 
REMARK    4  A    between atoms: C11_15  and  O1_16 
ROOT
HETATM    1  C7  UNL     1      23.720   0.383  53.329  1.00  0.00     0.151 A 
HETATM    2  N2  UNL     1      23.311  -0.558  54.204  1.00  0.00    -0.223 NA
HETATM    3  C8  UNL     1      22.123  -1.186  54.086  1.00  0.00     0.236 A 
HETATM    4  N3  UNL     1      21.313  -0.862  53.051  1.00  0.00    -0.241 NA
HETATM    5  C9  UNL     1      21.692   0.081  52.150  1.00  0.00     0.077 A 
HETATM    6  C10 UNL     1      20.852   0.393  51.106  1.00  0.00     0.072 A 
HETATM    7  C11 UNL     1      21.174   1.331  50.169  1.00  0.00     0.106 A 
HETATM    8  C13 UNL     1      22.399   1.987  50.282  1.00  0.00     0.136 A 
HETATM    9  C14 UNL     1      23.244   1.668  51.337  1.00  0.00     0.121 A 
HETATM   10  C15 UNL     1      22.901   0.716  52.276  1.00  0.00     0.075 A 
HETATM   11  O2  UNL     1      24.478   2.288  51.503  1.00  0.00    -0.345 OA
HETATM   12  C16 UNL     1      24.784   3.418  50.680  1.00  0.00     0.202 C 
HETATM   13  C17 UNL     1      24.195   3.269  49.301  1.00  0.00     0.202 C 
HETATM   14  O3  UNL     1      22.816   2.959  49.373  1.00  0.00    -0.344 OA
ENDROOT
BRANCH   1  15
HETATM   15  N1  UNL     1      24.987   1.038  53.477  1.00  0.00    -0.302 N 
HETATM   16  C5  UNL     1      26.379   0.786  53.318  1.00  0.00     0.059 A 
HETATM   17  C6  UNL     1      25.964   2.037  53.755  1.00  0.00     0.129 A 
BRANCH  16  18
HETATM   18  C4  UNL     1      27.636   0.115  53.029  1.00  0.00     0.073 C 
HETATM   19  C3  UNL     1      28.465  -0.233  53.998  1.00  0.00     0.117 C 
HETATM   20  F1  UNL     1      28.128   0.045  55.281  1.00  0.00    -0.206 F 
BRANCH  19  21
HETATM   21  C2  UNL     1      29.724  -0.904  53.693  1.00  0.00     0.032 C 
HETATM   22  C1  UNL     1      29.707  -2.199  53.338  1.00  0.00     0.014 C 
ENDBRANCH  19  21
ENDBRANCH  16  18
ENDBRANCH   1  15
BRANCH   7  23
HETATM   23  O1  UNL     1      20.400   1.716  49.084  1.00  0.00    -0.353 OA
HETATM   24  C12 UNL     1      19.040   2.023  49.336  1.00  0.00     0.210 C 
ENDBRANCH   7  23
TORSDOF 4
ENDMDL
MODEL 3
REMARK VINA RESULT:      -8.0      3.224      5.379
REMARK  4 active torsions:
REMARK  status: ('A' for Active; 'I' for Inactive)
REMARK    1  A    between atoms: C2_2  and  C3_3 
REMARK    2  A    between atoms: C4_5  and  C5_6 
REMARK    3  A    between atoms: N1_8  and  C7_9 
REMARK    4  A    between atoms: C11_15  and  O1_16 
ROOT
HETATM    1  C7  UNL     1      26.628   2.387  51.714  1.00  0.00     0.151 A 
HETATM    2  N2  UNL     1      27.811   2.375  52.362  1.00  0.00    -0.223 NA
HETATM    3  C8  UNL     1      28.010   1.660  53.488  1.00  0.00     0.236 A 
HETATM    4  N3  UNL     1      26.986   0.928  53.987  1.00  0.00    -0.241 NA
HETATM    5  C9  UNL     1      25.781   0.916  53.362  1.00  0.00     0.077 A 
HETATM    6  C10 UNL     1      24.755   0.164  53.887  1.00  0.00     0.072 A 
HETATM    7  C11 UNL     1      23.521   0.111  53.306  1.00  0.00     0.106 A 
HETATM    8  C13 UNL     1      23.305   0.846  52.142  1.00  0.00     0.136 A 
HETATM    9  C14 UNL     1      24.343   1.604  51.615  1.00  0.00     0.121 A 
HETATM   10  C15 UNL     1      25.585   1.645  52.216  1.00  0.00     0.075 A 
HETATM   11  O2  UNL     1      24.188   2.358  50.457  1.00  0.00    -0.345 OA
HETATM   12  C16 UNL     1      22.871   2.508  49.918  1.00  0.00     0.202 C 
HETATM   13  C17 UNL     1      22.048   1.262  50.122  1.00  0.00     0.202 C 
HETATM   14  O3  UNL     1      22.079   0.854  51.477  1.00  0.00    -0.344 OA
ENDROOT
BRANCH   1  15
HETATM   15  N1  UNL     1      26.441   3.157  50.518  1.00  0.00    -0.302 N 
HETATM   16  C5  UNL     1      25.963   4.428  50.094  1.00  0.00     0.059 A 
HETATM   17  C6  UNL     1      26.438   3.532  49.145  1.00  0.00     0.129 A 
BRANCH  16  18
HETATM   18  C4  UNL     1      25.404   5.770  50.115  1.00  0.00     0.073 C 
HETATM   19  C3  UNL     1      24.425   6.091  50.943  1.00  0.00     0.117 C 
HETATM   20  F1  UNL     1      23.940   5.145  51.783  1.00  0.00    -0.206 F 
BRANCH  19  21
HETATM   21  C2  UNL     1      23.874   7.442  50.953  1.00  0.00     0.032 C 
HETATM   22  C1  UNL     1      22.630   7.646  50.491  1.00  0.00     0.014 C 
ENDBRANCH  19  21
ENDBRANCH  16  18
ENDBRANCH   1  15
BRANCH   7  23
HETATM   23  O1  UNL     1      22.426  -0.613  53.755  1.00  0.00    -0.353 OA
HETATM   24  C12 UNL     1      22.549  -1.259  55.010  1.00  0.00     0.210 C 
ENDBRANCH   7  23
TORSDOF 4
ENDMDL
MODEL 4
REMARK VINA RESULT:      -8.0      1.830      3.543
REMARK  4 active torsions:
REMARK  status: ('A' for Active; 'I' for Inactive)
REMARK    1  A    between atoms: C2_2  and  C3_3 
REMARK    2  A    between atoms: C4_5  and  C5_6 
REMARK    3  A    between atoms: N1_8  and  C7_9 
REMARK    4  A    between atoms: C11_15  and  O1_16 
ROOT
HETATM    1  C7  UNL     1      24.608   1.984  51.768  1.00  0.00     0.151 A 
HETATM    2  N2  UNL     1      25.056   2.841  50.828  1.00  0.00    -0.223 NA
HETATM    3  C8  UNL     1      24.300   3.218  49.776  1.00  0.00     0.236 A 
HETATM    4  N3  UNL     1      23.047   2.721  49.661  1.00  0.00    -0.241 NA
HETATM    5  C9  UNL     1      22.561   1.856  50.589  1.00  0.00     0.077 A 
HETATM    6  C10 UNL     1      21.284   1.364  50.450  1.00  0.00     0.072 A 
HETATM    7  C11 UNL     1      20.740   0.492  51.348  1.00  0.00     0.106 A 
HETATM    8  C13 UNL     1      21.512   0.095  52.438  1.00  0.00     0.136 A 
HETATM    9  C14 UNL     1      22.800   0.594  52.574  1.00  0.00     0.121 A 
HETATM   10  C15 UNL     1      23.335   1.476  51.656  1.00  0.00     0.075 A 
HETATM   11  O2  UNL     1      23.619   0.236  53.639  1.00  0.00    -0.345 OA
HETATM   12  C16 UNL     1      23.187  -0.825  54.497  1.00  0.00     0.202 C 
HETATM   13  C17 UNL     1      21.690  -0.822  54.665  1.00  0.00     0.202 C 
HETATM   14  O3  UNL     1      21.042  -0.791  53.407  1.00  0.00    -0.344 OA
ENDROOT
BRANCH   1  15
HETATM   15  N1  UNL     1      25.431   1.597  52.877  1.00  0.00    -0.302 N 
HETATM   16  C5  UNL     1      26.483   0.696  53.201  1.00  0.00     0.059 A 
HETATM   17  C6  UNL     1      25.991   1.543  54.185  1.00  0.00     0.129 A 
BRANCH  16  18
HETATM   18  C4  UNL     1      27.500  -0.338  53.088  1.00  0.00     0.073 C 
HETATM   19  C3  UNL     1      28.727  -0.144  53.542  1.00  0.00     0.117 C 
HETATM   20  F1  UNL     1      29.031   1.042  54.123  1.00  0.00    -0.206 F 
BRANCH  19  21
HETATM   21  C2  UNL     1      29.737  -1.189  53.421  1.00  0.00     0.032 C 
HETATM   22  C1  UNL     1      29.347  -2.469  53.313  1.00  0.00     0.014 C 
ENDBRANCH  19  21
ENDBRANCH  16  18
ENDBRANCH   1  15
BRANCH   7  23
HETATM   23  O1  UNL     1      19.467  -0.059  51.298  1.00  0.00    -0.353 OA
HETATM   24  C12 UNL     1      18.381   0.836  51.140  1.00  0.00     0.210 C 
ENDBRANCH   7  23
TORSDOF 4
ENDMDL
MODEL 5
REMARK VINA RESULT:      -7.9      3.682      5.355
REMARK  4 active torsions:
REMARK  status: ('A' for Active; 'I' for Inactive)
REMARK    1  A    between atoms: C2_2  and  C3_3 
REMARK    2  A    between atoms: C4_5  and  C5_6 
REMARK    3  A    between atoms: N1_8  and  C7_9 
REMARK    4  A    between atoms: C11_15  and  O1_16 
ROOT
HETATM    1  C7  UNL     1      26.109   2.384  51.440  1.00  0.00     0.151 A 
HETATM    2  N2  UNL     1      27.385   2.517  51.854  1.00  0.00    -0.223 NA
HETATM    3  C8  UNL     1      27.872   1.848  52.920  1.00  0.00     0.236 A 
HETATM    4  N3  UNL     1      27.050   1.014  53.598  1.00  0.00    -0.241 NA
HETATM    5  C9  UNL     1      25.758   0.855  53.211  1.00  0.00     0.077 A 
HETATM    6  C10 UNL     1      24.942   0.002  53.916  1.00  0.00     0.072 A 
HETATM    7  C11 UNL     1      23.636  -0.201  53.578  1.00  0.00     0.106 A 
HETATM    8  C13 UNL     1      23.122   0.485  52.479  1.00  0.00     0.136 A 
HETATM    9  C14 UNL     1      23.950   1.346  51.769  1.00  0.00     0.121 A 
HETATM   10  C15 UNL     1      25.269   1.538  52.126  1.00  0.00     0.075 A 
HETATM   11  O2  UNL     1      23.496   2.058  50.664  1.00  0.00    -0.345 OA
HETATM   12  C16 UNL     1      22.092   2.049  50.384  1.00  0.00     0.202 C 
HETATM   13  C17 UNL     1      21.470   0.722  50.734  1.00  0.00     0.202 C 
HETATM   14  O3  UNL     1      21.801   0.343  52.057  1.00  0.00    -0.344 OA
ENDROOT
BRANCH   1  15
HETATM   15  N1  UNL     1      25.615   3.107  50.304  1.00  0.00    -0.302 N 
HETATM   16  C5  UNL     1      25.859   4.302  49.572  1.00  0.00     0.059 A 
HETATM   17  C6  UNL     1      24.834   3.458  49.166  1.00  0.00     0.129 A 
BRANCH  16  18
HETATM   18  C4  UNL     1      26.438   5.567  49.147  1.00  0.00     0.073 C 
HETATM   19  C3  UNL     1      27.593   5.610  48.506  1.00  0.00     0.117 C 
HETATM   20  F1  UNL     1      28.242   4.448  48.246  1.00  0.00    -0.206 F 
BRANCH  19  21
HETATM   21  C2  UNL     1      28.162   6.885  48.086  1.00  0.00     0.032 C 
HETATM   22  C1  UNL     1      27.391   7.761  47.422  1.00  0.00     0.014 C 
ENDBRANCH  19  21
ENDBRANCH  16  18
ENDBRANCH   1  15
BRANCH   7  23
HETATM   23  O1  UNL     1      22.734  -1.037  54.222  1.00  0.00    -0.353 OA
HETATM   24  C12 UNL     1      23.081  -1.482  55.521  1.00  0.00     0.210 C 
ENDBRANCH   7  23
TORSDOF 4
ENDMDL
MODEL 6
REMARK VINA RESULT:      -7.6      2.760      6.720
REMARK  4 active torsions:
REMARK  status: ('A' for Active; 'I' for Inactive)
REMARK    1  A    between atoms: C2_2  and  C3_3 
REMARK    2  A    between atoms: C4_5  and  C5_6 
REMARK    3  A    between atoms: N1_8  and  C7_9 
REMARK    4  A    between atoms: C11_15  and  O1_16 
ROOT
HETATM    1  C7  UNL     1      22.468   0.380  53.637  1.00  0.00     0.151 A 
HETATM    2  N2  UNL     1      21.925  -0.413  54.584  1.00  0.00    -0.223 NA
HETATM    3  C8  UNL     1      22.667  -1.254  55.333  1.00  0.00     0.236 A 
HETATM    4  N3  UNL     1      24.004  -1.305  55.127  1.00  0.00    -0.241 NA
HETATM    5  C9  UNL     1      24.585  -0.522  54.182  1.00  0.00     0.077 A 
HETATM    6  C10 UNL     1      25.946  -0.591  53.992  1.00  0.00     0.072 A 
HETATM    7  C11 UNL     1      26.589   0.169  53.058  1.00  0.00     0.106 A 
HETATM    8  C13 UNL     1      25.832   1.042  52.279  1.00  0.00     0.136 A 
HETATM    9  C14 UNL     1      24.459   1.109  52.475  1.00  0.00     0.121 A 
HETATM   10  C15 UNL     1      23.825   0.332  53.424  1.00  0.00     0.075 A 
HETATM   11  O2  UNL     1      23.650   1.960  51.730  1.00  0.00    -0.345 OA
HETATM   12  C16 UNL     1      24.228   2.628  50.603  1.00  0.00     0.202 C 
HETATM   13  C17 UNL     1      25.669   2.987  50.857  1.00  0.00     0.202 C 
HETATM   14  O3  UNL     1      26.400   1.859  51.302  1.00  0.00    -0.344 OA
ENDROOT
BRANCH   1  15
HETATM   15  N1  UNL     1      21.657   1.266  52.854  1.00  0.00    -0.302 N 
HETATM   16  C5  UNL     1      20.519   1.247  51.999  1.00  0.00     0.059 A 
HETATM   17  C6  UNL     1      21.157   2.455  52.248  1.00  0.00     0.129 A 
BRANCH  16  18
HETATM   18  C4  UNL     1      19.380   0.777  51.228  1.00  0.00     0.073 C 
HETATM   19  C3  UNL     1      18.495  -0.054  51.751  1.00  0.00     0.117 C 
HETATM   20  F1  UNL     1      18.662  -0.469  53.031  1.00  0.00    -0.206 F 
BRANCH  19  21
HETATM   21  C2  UNL     1      17.357  -0.518  50.965  1.00  0.00     0.032 C 
HETATM   22  C1  UNL     1      17.020   0.141  49.845  1.00  0.00     0.014 C 
ENDBRANCH  19  21
ENDBRANCH  16  18
ENDBRANCH   1  15
BRANCH   7  23
HETATM   23  O1  UNL     1      27.951   0.173  52.790  1.00  0.00    -0.353 OA
HETATM   24  C12 UNL     1      28.823   0.426  53.877  1.00  0.00     0.210 C 
ENDBRANCH   7  23
TORSDOF 4
ENDMDL
MODEL 7
REMARK VINA RESULT:      -7.5      3.150      7.061
REMARK  4 active torsions:
REMARK  status: ('A' for Active; 'I' for Inactive)
REMARK    1  A    between atoms: C2_2  and  C3_3 
REMARK    2  A    between atoms: C4_5  and  C5_6 
REMARK    3  A    between atoms: N1_8  and  C7_9 
REMARK    4  A    between atoms: C11_15  and  O1_16 
ROOT
HETATM    1  C7  UNL     1      22.863   2.659  51.490  1.00  0.00     0.151 A 
HETATM    2  N2  UNL     1      23.374   3.526  50.593  1.00  0.00    -0.223 NA
HETATM    3  C8  UNL     1      24.666   3.488  50.208  1.00  0.00     0.236 A 
HETATM    4  N3  UNL     1      25.479   2.545  50.741  1.00  0.00    -0.241 NA
HETATM    5  C9  UNL     1      24.999   1.656  51.647  1.00  0.00     0.077 A 
HETATM    6  C10 UNL     1      25.844   0.707  52.174  1.00  0.00     0.072 A 
HETATM    7  C11 UNL     1      25.423  -0.214  53.089  1.00  0.00     0.106 A 
HETATM    8  C13 UNL     1      24.090  -0.183  53.494  1.00  0.00     0.136 A 
HETATM    9  C14 UNL     1      23.240   0.776  52.959  1.00  0.00     0.121 A 
HETATM   10  C15 UNL     1      23.684   1.700  52.035  1.00  0.00     0.075 A 
HETATM   11  O2  UNL     1      21.900   0.857  53.324  1.00  0.00    -0.345 OA
HETATM   12  C16 UNL     1      21.449   0.059  54.423  1.00  0.00     0.202 C 
HETATM   13  C17 UNL     1      22.165  -1.266  54.471  1.00  0.00     0.202 C 
HETATM   14  O3  UNL     1      23.567  -1.083  54.423  1.00  0.00    -0.344 OA
ENDROOT
BRANCH   1  15
HETATM   15  N1  UNL     1      21.485   2.721  51.884  1.00  0.00    -0.302 N 
HETATM   16  C5  UNL     1      20.197   2.305  51.443  1.00  0.00     0.059 A 
HETATM   17  C6  UNL     1      20.309   3.013  52.632  1.00  0.00     0.129 A 
BRANCH  16  18
HETATM   18  C4  UNL     1      19.136   1.710  50.646  1.00  0.00     0.073 C 
HETATM   19  C3  UNL     1      18.672   0.502  50.916  1.00  0.00     0.117 C 
HETATM   20  F1  UNL     1      19.202  -0.186  51.957  1.00  0.00    -0.206 F 
BRANCH  19  21
HETATM   21  C2  UNL     1      17.608  -0.082  50.108  1.00  0.00     0.032 C 
HETATM   22  C1  UNL     1      16.375  -0.196  50.628  1.00  0.00     0.014 C 
ENDBRANCH  19  21
ENDBRANCH  16  18
ENDBRANCH   1  15
BRANCH   7  23
HETATM   23  O1  UNL     1      26.193  -1.207  53.678  1.00  0.00    -0.353 OA
HETATM   24  C12 UNL     1      27.111  -1.892  52.846  1.00  0.00     0.210 C 
ENDBRANCH   7  23
TORSDOF 4
ENDMDL
MODEL 8
REMARK VINA RESULT:      -7.4      3.902      5.706
REMARK  4 active torsions:
REMARK  status: ('A' for Active; 'I' for Inactive)
REMARK    1  A    between atoms: C2_2  and  C3_3 
REMARK    2  A    between atoms: C4_5  and  C5_6 
REMARK    3  A    between atoms: N1_8  and  C7_9 
REMARK    4  A    between atoms: C11_15  and  O1_16 
ROOT
HETATM    1  C7  UNL     1      23.705   2.904  50.466  1.00  0.00     0.151 A 
HETATM    2  N2  UNL     1      22.655   3.560  49.931  1.00  0.00    -0.223 NA
HETATM    3  C8  UNL     1      21.386   3.338  50.329  1.00  0.00     0.236 A 
HETATM    4  N3  UNL     1      21.157   2.425  51.302  1.00  0.00    -0.241 NA
HETATM    5  C9  UNL     1      22.189   1.746  51.865  1.00  0.00     0.077 A 
HETATM    6  C10 UNL     1      21.932   0.823  52.852  1.00  0.00     0.072 A 
HETATM    7  C11 UNL     1      22.925   0.108  53.456  1.00  0.00     0.106 A 
HETATM    8  C13 UNL     1      24.240   0.329  53.052  1.00  0.00     0.136 A 
HETATM    9  C14 UNL     1      24.496   1.262  52.055  1.00  0.00     0.121 A 
HETATM   10  C15 UNL     1      23.478   1.976  51.455  1.00  0.00     0.075 A 
HETATM   11  O2  UNL     1      25.786   1.527  51.609  1.00  0.00    -0.345 OA
HETATM   12  C16 UNL     1      26.844   0.670  52.052  1.00  0.00     0.202 C 
HETATM   13  C17 UNL     1      26.616   0.201  53.465  1.00  0.00     0.202 C 
HETATM   14  O3  UNL     1      25.322  -0.352  53.611  1.00  0.00    -0.344 OA
ENDROOT
BRANCH   1  15
HETATM   15  N1  UNL     1      25.046   3.158  50.025  1.00  0.00    -0.302 N 
HETATM   16  C5  UNL     1      25.852   4.213  49.512  1.00  0.00     0.059 A 
HETATM   17  C6  UNL     1      26.418   2.958  49.699  1.00  0.00     0.129 A 
BRANCH  16  18
HETATM   18  C4  UNL     1      26.276   5.519  49.034  1.00  0.00     0.073 C 
HETATM   19  C3  UNL     1      27.455   5.688  48.461  1.00  0.00     0.117 C 
HETATM   20  F1  UNL     1      28.276   4.618  48.320  1.00  0.00    -0.206 F 
BRANCH  19  21
HETATM   21  C2  UNL     1      27.868   7.004  47.988  1.00  0.00     0.032 C 
HETATM   22  C1  UNL     1      27.945   8.021  48.861  1.00  0.00     0.014 C 
ENDBRANCH  19  21
ENDBRANCH  16  18
ENDBRANCH   1  15
BRANCH   7  23
HETATM   23  O1  UNL     1      22.770  -0.841  54.457  1.00  0.00    -0.353 OA
HETATM   24  C12 UNL     1      21.490  -1.431  54.595  1.00  0.00     0.210 C 
ENDBRANCH   7  23
TORSDOF 4
ENDMDL
MODEL 9
REMARK VINA RESULT:      -7.4      2.835      5.207
REMARK  4 active torsions:
REMARK  status: ('A' for Active; 'I' for Inactive)
REMARK    1  A    between atoms: C2_2  and  C3_3 
REMARK    2  A    between atoms: C4_5  and  C5_6 
REMARK    3  A    between atoms: N1_8  and  C7_9 
REMARK    4  A    between atoms: C11_15  and  O1_16 
ROOT
HETATM    1  C7  UNL     1      25.087   2.019  51.667  1.00  0.00     0.151 A 
HETATM    2  N2  UNL     1      26.326   1.493  51.584  1.00  0.00    -0.223 NA
HETATM    3  C8  UNL     1      26.665   0.342  52.200  1.00  0.00     0.236 A 
HETATM    4  N3  UNL     1      25.727  -0.310  52.927  1.00  0.00    -0.241 NA
HETATM    5  C9  UNL     1      24.469   0.189  53.034  1.00  0.00     0.077 A 
HETATM    6  C10 UNL     1      23.534  -0.491  53.778  1.00  0.00     0.072 A 
HETATM    7  C11 UNL     1      22.253  -0.041  53.923  1.00  0.00     0.106 A 
HETATM    8  C13 UNL     1      21.893   1.147  53.292  1.00  0.00     0.136 A 
HETATM    9  C14 UNL     1      22.840   1.831  52.541  1.00  0.00     0.121 A 
HETATM   10  C15 UNL     1      24.131   1.361  52.405  1.00  0.00     0.075 A 
HETATM   11  O2  UNL     1      22.541   3.021  51.887  1.00  0.00    -0.345 OA
HETATM   12  C16 UNL     1      21.286   3.649  52.166  1.00  0.00     0.202 C 
HETATM   13  C17 UNL     1      20.203   2.630  52.409  1.00  0.00     0.202 C 
HETATM   14  O3  UNL     1      20.609   1.685  53.382  1.00  0.00    -0.344 OA
ENDROOT
BRANCH   1  15
HETATM   15  N1  UNL     1      24.752   3.245  51.003  1.00  0.00    -0.302 N 
HETATM   16  C5  UNL     1      24.117   3.715  49.819  1.00  0.00     0.059 A 
HETATM   17  C6  UNL     1      24.629   4.636  50.723  1.00  0.00     0.129 A 
BRANCH  16  18
HETATM   18  C4  UNL     1      23.424   3.740  48.541  1.00  0.00     0.073 C 
HETATM   19  C3  UNL     1      22.602   2.766  48.189  1.00  0.00     0.117 C 
HETATM   20  F1  UNL     1      22.409   1.730  49.043  1.00  0.00    -0.206 F 
BRANCH  19  21
HETATM   21  C2  UNL     1      21.913   2.804  46.904  1.00  0.00     0.032 C 
HETATM   22  C1  UNL     1      21.897   3.948  46.202  1.00  0.00     0.014 C 
ENDBRANCH  19  21
ENDBRANCH  16  18
ENDBRANCH   1  15
BRANCH   7  23
HETATM   23  O1  UNL     1      21.240  -0.651  54.649  1.00  0.00    -0.353 OA
HETATM   24  C12 UNL     1      20.599  -1.765  54.054  1.00  0.00     0.210 C 
ENDBRANCH   7  23
TORSDOF 4
ENDMDL
