MODEL 1
REMARK VINA RESULT:      -6.9      0.000      0.000
REMARK  5 active torsions:
REMARK  status: ('A' for Active; 'I' for Inactive)
REMARK    1  A    between atoms: C4_4  and  C5_5 
REMARK    2  A    between atoms: C6_6  and  N1_7 
REMARK       I    between atoms: N1_7  and  C7_8 
REMARK       I    between atoms: C7_8  and  N2_10 
REMARK    3  A    between atoms: N2_10  and  C8_11 
REMARK    4  A    between atoms: C8_11  and  C9_12 
REMARK    5  A    between atoms: C9_12  and  C10_13 
ROOT
HETATM    1  N1  UNL     1      24.151   4.302  52.967  1.00  0.00    -0.319 N 
HETATM    2  C7  UNL     1      24.180   2.863  52.901  1.00  0.00     0.320 C 
HETATM    3  O1  UNL     1      23.167   2.298  52.367  1.00  0.00    -0.247 OA
HETATM    4  N2  UNL     1      25.255   2.032  53.388  1.00  0.00    -0.343 N 
HETATM    5  H6  UNL     1      25.035   4.662  53.424  1.00  0.00     0.170 HD
HETATM    6  H7  UNL     1      26.060   2.547  53.815  1.00  0.00     0.164 HD
ENDROOT
BRANCH   1   7
HETATM    7  C6  UNL     1      22.974   4.858  52.414  1.00  0.00     0.095 C 
HETATM    8  C5  UNL     1      23.036   5.634  51.343  1.00  0.00     0.049 C 
BRANCH   8   9
HETATM    9  C4  UNL     1      24.309   5.938  50.706  1.00  0.00     0.061 A 
HETATM   10  C3  UNL     1      24.815   7.176  50.708  1.00  0.00     0.060 A 
HETATM   11  C2  UNL     1      26.083   7.545  50.088  1.00  0.00     0.025 A 
HETATM   12  C1  UNL     1      26.539   8.776  50.117  1.00  0.00     0.043 C 
HETATM   13  N5  UNL     1      26.808   6.500  49.449  1.00  0.00    -0.351 N 
HETATM   14  C13 UNL     1      26.219   5.194  49.479  1.00  0.00     0.208 A 
HETATM   15  H19 UNL     1      27.729   6.681  48.979  1.00  0.00     0.166 HD
HETATM   16  N4  UNL     1      25.091   4.955  50.050  1.00  0.00    -0.244 NA
ENDBRANCH   8   9
ENDBRANCH   1   7
BRANCH   4  17
HETATM   17  C8  UNL     1      25.195   0.611  53.278  1.00  0.00     0.127 C 
BRANCH  17  18
HETATM   18  C9  UNL     1      26.511  -0.062  53.036  1.00  0.00     0.055 C 
BRANCH  18  19
HETATM   19  C10 UNL     1      27.389  -0.170  54.220  1.00  0.00     0.162 C 
HETATM   20  C11 UNL     1      28.852   0.052  54.053  1.00  0.00     0.154 C 
HETATM   21  N3  UNL     1      28.689   1.355  54.660  1.00  0.00    -0.198 NA
HETATM   22  C12 UNL     1      28.795   2.426  53.718  1.00  0.00     0.143 C 
HETATM   23  O2  UNL     1      27.431   0.988  54.998  1.00  0.00    -0.297 OA
ENDBRANCH  18  19
ENDBRANCH  17  18
ENDBRANCH   4  17
TORSDOF 5
ENDMDL
MODEL 2
REMARK VINA RESULT:      -6.8      2.205      3.252
REMARK  5 active torsions:
REMARK  status: ('A' for Active; 'I' for Inactive)
REMARK    1  A    between atoms: C4_4  and  C5_5 
REMARK    2  A    between atoms: C6_6  and  N1_7 
REMARK       I    between atoms: N1_7  and  C7_8 
REMARK       I    between atoms: C7_8  and  N2_10 
REMARK    3  A    between atoms: N2_10  and  C8_11 
REMARK    4  A    between atoms: C8_11  and  C9_12 
REMARK    5  A    between atoms: C9_12  and  C10_13 
ROOT
HETATM    1  N1  UNL     1      25.887   5.277  50.182  1.00  0.00    -0.319 N 
HETATM    2  C7  UNL     1      26.088   3.855  50.313  1.00  0.00     0.320 C 
HETATM    3  O1  UNL     1      25.720   3.136  49.324  1.00  0.00    -0.247 OA
HETATM    4  N2  UNL     1      26.665   3.202  51.463  1.00  0.00    -0.343 N 
HETATM    5  H6  UNL     1      26.227   5.772  51.054  1.00  0.00     0.170 HD
HETATM    6  H7  UNL     1      26.949   3.839  52.244  1.00  0.00     0.164 HD
ENDROOT
BRANCH   1   7
HETATM    7  C6  UNL     1      25.302   5.642  48.947  1.00  0.00     0.095 C 
HETATM    8  C5  UNL     1      25.698   6.735  48.314  1.00  0.00     0.049 C 
BRANCH   8   9
HETATM    9  C4  UNL     1      26.739   7.589  48.864  1.00  0.00     0.061 A 
HETATM   10  C3  UNL     1      27.988   7.567  48.385  1.00  0.00     0.060 A 
HETATM   11  C2  UNL     1      29.076   8.396  48.893  1.00  0.00     0.025 A 
HETATM   12  C1  UNL     1      30.287   8.339  48.389  1.00  0.00     0.043 C 
HETATM   13  N5  UNL     1      28.760   9.276  49.965  1.00  0.00    -0.351 N 
HETATM   14  C13 UNL     1      27.406   9.258  50.437  1.00  0.00     0.208 A 
HETATM   15  H19 UNL     1      29.485   9.907  50.388  1.00  0.00     0.166 HD
HETATM   16  N4  UNL     1      26.506   8.492  49.931  1.00  0.00    -0.244 NA
ENDBRANCH   8   9
ENDBRANCH   1   7
BRANCH   4  17
HETATM   17  C8  UNL     1      26.825   1.785  51.501  1.00  0.00     0.127 C 
BRANCH  17  18
HETATM   18  C9  UNL     1      25.952   1.076  52.490  1.00  0.00     0.055 C 
BRANCH  18  19
HETATM   19  C10 UNL     1      26.166   1.454  53.902  1.00  0.00     0.162 C 
HETATM   20  C11 UNL     1      26.511   0.391  54.887  1.00  0.00     0.154 C 
HETATM   21  N3  UNL     1      27.880   0.861  54.861  1.00  0.00    -0.198 NA
HETATM   22  C12 UNL     1      28.759  -0.021  54.159  1.00  0.00     0.143 C 
HETATM   23  O2  UNL     1      27.447   1.939  54.168  1.00  0.00    -0.297 OA
ENDBRANCH  18  19
ENDBRANCH  17  18
ENDBRANCH   4  17
TORSDOF 5
ENDMDL
MODEL 3
REMARK VINA RESULT:      -6.7      3.323      6.358
REMARK  5 active torsions:
REMARK  status: ('A' for Active; 'I' for Inactive)
REMARK    1  A    between atoms: C4_4  and  C5_5 
REMARK    2  A    between atoms: C6_6  and  N1_7 
REMARK       I    between atoms: N1_7  and  C7_8 
REMARK       I    between atoms: C7_8  and  N2_10 
REMARK    3  A    between atoms: N2_10  and  C8_11 
REMARK    4  A    between atoms: C8_11  and  C9_12 
REMARK    5  A    between atoms: C9_12  and  C10_13 
ROOT
HETATM    1  N1  UNL     1      24.348   2.927  52.264  1.00  0.00    -0.319 N 
HETATM    2  C7  UNL     1      23.114   2.327  51.822  1.00  0.00     0.320 C 
HETATM    3  O1  UNL     1      23.052   1.998  50.589  1.00  0.00    -0.247 OA
HETATM    4  N2  UNL     1      21.967   2.077  52.661  1.00  0.00    -0.343 N 
HETATM    5  H6  UNL     1      24.290   3.157  53.296  1.00  0.00     0.170 HD
HETATM    6  H7  UNL     1      22.073   2.365  53.661  1.00  0.00     0.164 HD
ENDROOT
BRANCH   1   7
HETATM    7  C6  UNL     1      25.304   3.053  51.230  1.00  0.00     0.095 C 
HETATM    8  C5  UNL     1      26.367   2.263  51.198  1.00  0.00     0.049 C 
BRANCH   8   9
HETATM    9  C4  UNL     1      26.583   1.250  52.220  1.00  0.00     0.061 A 
HETATM   10  C3  UNL     1      26.728  -0.041  51.905  1.00  0.00     0.060 A 
HETATM   11  C2  UNL     1      26.947  -1.105  52.880  1.00  0.00     0.025 A 
HETATM   12  C1  UNL     1      27.084  -2.360  52.522  1.00  0.00     0.043 C 
HETATM   13  N5  UNL     1      27.005  -0.713  54.247  1.00  0.00    -0.351 N 
HETATM   14  C13 UNL     1      26.844   0.684  54.526  1.00  0.00     0.208 A 
HETATM   15  H19 UNL     1      27.159  -1.415  55.012  1.00  0.00     0.166 HD
HETATM   16  N4  UNL     1      26.654   1.558  53.601  1.00  0.00    -0.244 NA
ENDBRANCH   8   9
ENDBRANCH   1   7
BRANCH   4  17
HETATM   17  C8  UNL     1      20.786   1.475  52.132  1.00  0.00     0.127 C 
BRANCH  17  18
HETATM   18  C9  UNL     1      20.677  -0.003  52.350  1.00  0.00     0.055 C 
BRANCH  18  19
HETATM   19  C10 UNL     1      20.334  -0.412  53.728  1.00  0.00     0.162 C 
HETATM   20  C11 UNL     1      20.911  -1.674  54.268  1.00  0.00     0.154 C 
HETATM   21  N3  UNL     1      21.833  -0.878  55.048  1.00  0.00    -0.198 NA
HETATM   22  C12 UNL     1      23.171  -0.919  54.543  1.00  0.00     0.143 C 
HETATM   23  O2  UNL     1      21.107   0.212  54.709  1.00  0.00    -0.297 OA
ENDBRANCH  18  19
ENDBRANCH  17  18
ENDBRANCH   4  17
TORSDOF 5
ENDMDL
MODEL 4
REMARK VINA RESULT:      -6.6      2.207      3.075
REMARK  5 active torsions:
REMARK  status: ('A' for Active; 'I' for Inactive)
REMARK    1  A    between atoms: C4_4  and  C5_5 
REMARK    2  A    between atoms: C6_6  and  N1_7 
REMARK       I    between atoms: N1_7  and  C7_8 
REMARK       I    between atoms: C7_8  and  N2_10 
REMARK    3  A    between atoms: N2_10  and  C8_11 
REMARK    4  A    between atoms: C8_11  and  C9_12 
REMARK    5  A    between atoms: C9_12  and  C10_13 
ROOT
HETATM    1  N1  UNL     1      25.882   5.213  50.406  1.00  0.00    -0.319 N 
HETATM    2  C7  UNL     1      26.021   3.779  50.448  1.00  0.00     0.320 C 
HETATM    3  O1  UNL     1      25.530   3.132  49.463  1.00  0.00    -0.247 OA
HETATM    4  N2  UNL     1      26.666   3.040  51.506  1.00  0.00    -0.343 N 
HETATM    5  H6  UNL     1      26.322   5.645  51.267  1.00  0.00     0.170 HD
HETATM    6  H7  UNL     1      27.050   3.620  52.288  1.00  0.00     0.164 HD
ENDROOT
BRANCH   1   7
HETATM    7  C6  UNL     1      25.207   5.670  49.251  1.00  0.00     0.095 C 
HETATM    8  C5  UNL     1      25.859   6.342  48.314  1.00  0.00     0.049 C 
BRANCH   8   9
HETATM    9  C4  UNL     1      27.279   6.629  48.444  1.00  0.00     0.061 A 
HETATM   10  C3  UNL     1      27.721   7.858  48.732  1.00  0.00     0.060 A 
HETATM   11  C2  UNL     1      29.130   8.211  48.875  1.00  0.00     0.025 A 
HETATM   12  C1  UNL     1      29.515   9.433  49.159  1.00  0.00     0.043 C 
HETATM   13  N5  UNL     1      30.071   7.160  48.693  1.00  0.00    -0.351 N 
HETATM   14  C13 UNL     1      29.541   5.863  48.387  1.00  0.00     0.208 A 
HETATM   15  H19 UNL     1      31.104   7.329  48.778  1.00  0.00     0.166 HD
HETATM   16  N4  UNL     1      28.279   5.639  48.278  1.00  0.00    -0.244 NA
ENDBRANCH   8   9
ENDBRANCH   1   7
BRANCH   4  17
HETATM   17  C8  UNL     1      26.757   1.616  51.460  1.00  0.00     0.127 C 
BRANCH  17  18
HETATM   18  C9  UNL     1      25.933   0.896  52.482  1.00  0.00     0.055 C 
BRANCH  18  19
HETATM   19  C10 UNL     1      26.128   1.343  53.877  1.00  0.00     0.162 C 
HETATM   20  C11 UNL     1      26.521   0.340  54.905  1.00  0.00     0.154 C 
HETATM   21  N3  UNL     1      27.867   0.870  54.858  1.00  0.00    -0.198 NA
HETATM   22  C12 UNL     1      28.785  -0.001  54.193  1.00  0.00     0.143 C 
HETATM   23  O2  UNL     1      27.387   1.897  54.119  1.00  0.00    -0.297 OA
ENDBRANCH  18  19
ENDBRANCH  17  18
ENDBRANCH   4  17
TORSDOF 5
ENDMDL
MODEL 5
REMARK VINA RESULT:      -6.6      1.251      1.767
REMARK  5 active torsions:
REMARK  status: ('A' for Active; 'I' for Inactive)
REMARK    1  A    between atoms: C4_4  and  C5_5 
REMARK    2  A    between atoms: C6_6  and  N1_7 
REMARK       I    between atoms: N1_7  and  C7_8 
REMARK       I    between atoms: C7_8  and  N2_10 
REMARK    3  A    between atoms: N2_10  and  C8_11 
REMARK    4  A    between atoms: C8_11  and  C9_12 
REMARK    5  A    between atoms: C9_12  and  C10_13 
ROOT
HETATM    1  N1  UNL     1      23.508   3.677  51.492  1.00  0.00    -0.319 N 
HETATM    2  C7  UNL     1      23.676   2.293  51.859  1.00  0.00     0.320 C 
HETATM    3  O1  UNL     1      23.125   1.432  51.093  1.00  0.00    -0.247 OA
HETATM    4  N2  UNL     1      24.411   1.823  53.008  1.00  0.00    -0.343 N 
HETATM    5  H6  UNL     1      24.004   4.300  52.191  1.00  0.00     0.170 HD
HETATM    6  H7  UNL     1      24.843   2.571  53.600  1.00  0.00     0.164 HD
ENDROOT
BRANCH   1   7
HETATM    7  C6  UNL     1      22.740   3.849  50.317  1.00  0.00     0.095 C 
HETATM    8  C5  UNL     1      23.144   4.679  49.367  1.00  0.00     0.049 C 
BRANCH   8   9
HETATM    9  C4  UNL     1      24.381   5.433  49.502  1.00  0.00     0.061 A 
HETATM   10  C3  UNL     1      25.519   5.020  48.933  1.00  0.00     0.060 A 
HETATM   11  C2  UNL     1      26.790   5.730  49.031  1.00  0.00     0.025 A 
HETATM   12  C1  UNL     1      27.881   5.284  48.454  1.00  0.00     0.043 C 
HETATM   13  N5  UNL     1      26.790   6.936  49.785  1.00  0.00    -0.351 N 
HETATM   14  C13 UNL     1      25.542   7.332  50.371  1.00  0.00     0.208 A 
HETATM   15  H19 UNL     1      27.662   7.507  49.905  1.00  0.00     0.166 HD
HETATM   16  N4  UNL     1      24.464   6.643  50.235  1.00  0.00    -0.244 NA
ENDBRANCH   8   9
ENDBRANCH   1   7
BRANCH   4  17
HETATM   17  C8  UNL     1      24.525   0.429  53.289  1.00  0.00     0.127 C 
BRANCH  17  18
HETATM   18  C9  UNL     1      25.918  -0.117  53.231  1.00  0.00     0.055 C 
BRANCH  18  19
HETATM   19  C10 UNL     1      26.706   0.036  54.471  1.00  0.00     0.162 C 
HETATM   20  C11 UNL     1      28.192   0.089  54.377  1.00  0.00     0.154 C 
HETATM   21  N3  UNL     1      28.120   1.518  54.597  1.00  0.00    -0.198 NA
HETATM   22  C12 UNL     1      28.389   2.277  53.415  1.00  0.00     0.143 C 
HETATM   23  O2  UNL     1      26.814   1.357  54.911  1.00  0.00    -0.297 OA
ENDBRANCH  18  19
ENDBRANCH  17  18
ENDBRANCH   4  17
TORSDOF 5
ENDMDL
MODEL 6
REMARK VINA RESULT:      -6.5      3.235      7.360
REMARK  5 active torsions:
REMARK  status: ('A' for Active; 'I' for Inactive)
REMARK    1  A    between atoms: C4_4  and  C5_5 
REMARK    2  A    between atoms: C6_6  and  N1_7 
REMARK       I    between atoms: N1_7  and  C7_8 
REMARK       I    between atoms: C7_8  and  N2_10 
REMARK    3  A    between atoms: N2_10  and  C8_11 
REMARK    4  A    between atoms: C8_11  and  C9_12 
REMARK    5  A    between atoms: C9_12  and  C10_13 
ROOT
HETATM    1  N1  UNL     1      26.814   3.231  50.931  1.00  0.00    -0.319 N 
HETATM    2  C7  UNL     1      26.463   4.266  49.992  1.00  0.00     0.320 C 
HETATM    3  O1  UNL     1      25.220   4.393  49.726  1.00  0.00    -0.247 OA
HETATM    4  N2  UNL     1      27.400   5.151  49.345  1.00  0.00    -0.343 N 
HETATM    5  H6  UNL     1      27.863   3.215  51.078  1.00  0.00     0.170 HD
HETATM    6  H7  UNL     1      28.404   5.004  49.599  1.00  0.00     0.164 HD
ENDROOT
BRANCH   1   7
HETATM    7  C6  UNL     1      25.694   2.513  51.410  1.00  0.00     0.095 C 
HETATM    8  C5  UNL     1      25.832   1.619  52.378  1.00  0.00     0.049 C 
BRANCH   8   9
HETATM    9  C4  UNL     1      27.132   1.349  52.973  1.00  0.00     0.061 A 
HETATM   10  C3  UNL     1      27.679   0.129  52.934  1.00  0.00     0.060 A 
HETATM   11  C2  UNL     1      28.977  -0.207  53.511  1.00  0.00     0.025 A 
HETATM   12  C1  UNL     1      29.473  -1.420  53.447  1.00  0.00     0.043 C 
HETATM   13  N5  UNL     1      29.683   0.851  54.149  1.00  0.00    -0.351 N 
HETATM   14  C13 UNL     1      29.049   2.137  54.160  1.00  0.00     0.208 A 
HETATM   15  H19 UNL     1      30.623   0.694  54.590  1.00  0.00     0.166 HD
HETATM   16  N4  UNL     1      27.898   2.346  53.625  1.00  0.00    -0.244 NA
ENDBRANCH   8   9
ENDBRANCH   1   7
BRANCH   4  17
HETATM   17  C8  UNL     1      26.956   6.149  48.427  1.00  0.00     0.127 C 
BRANCH  17  18
HETATM   18  C9  UNL     1      28.030   7.058  47.912  1.00  0.00     0.055 C 
BRANCH  18  19
HETATM   19  C10 UNL     1      29.330   6.408  47.647  1.00  0.00     0.162 C 
HETATM   20  C11 UNL     1      30.464   7.241  47.157  1.00  0.00     0.154 C 
HETATM   21  N3  UNL     1      31.037   7.179  48.485  1.00  0.00    -0.198 NA
HETATM   22  C12 UNL     1      30.924   8.414  49.198  1.00  0.00     0.143 C 
HETATM   23  O2  UNL     1      30.116   6.236  48.788  1.00  0.00    -0.297 OA
ENDBRANCH  18  19
ENDBRANCH  17  18
ENDBRANCH   4  17
TORSDOF 5
ENDMDL
MODEL 7
REMARK VINA RESULT:      -6.5      1.975      7.157
REMARK  5 active torsions:
REMARK  status: ('A' for Active; 'I' for Inactive)
REMARK    1  A    between atoms: C4_4  and  C5_5 
REMARK    2  A    between atoms: C6_6  and  N1_7 
REMARK       I    between atoms: N1_7  and  C7_8 
REMARK       I    between atoms: C7_8  and  N2_10 
REMARK    3  A    between atoms: N2_10  and  C8_11 
REMARK    4  A    between atoms: C8_11  and  C9_12 
REMARK    5  A    between atoms: C9_12  and  C10_13 
ROOT
HETATM    1  N1  UNL     1      25.552   2.945  52.671  1.00  0.00    -0.319 N 
HETATM    2  C7  UNL     1      25.252   3.319  51.311  1.00  0.00     0.320 C 
HETATM    3  O1  UNL     1      24.398   2.594  50.698  1.00  0.00    -0.247 OA
HETATM    4  N2  UNL     1      25.839   4.435  50.610  1.00  0.00    -0.343 N 
HETATM    5  H6  UNL     1      26.267   3.610  53.080  1.00  0.00     0.170 HD
HETATM    6  H7  UNL     1      26.531   4.995  51.159  1.00  0.00     0.164 HD
ENDROOT
BRANCH   1   7
HETATM    7  C6  UNL     1      24.831   1.808  53.104  1.00  0.00     0.095 C 
HETATM    8  C5  UNL     1      25.468   0.753  53.589  1.00  0.00     0.049 C 
BRANCH   8   9
HETATM    9  C4  UNL     1      26.919   0.731  53.690  1.00  0.00     0.061 A 
HETATM   10  C3  UNL     1      27.619  -0.388  53.473  1.00  0.00     0.060 A 
HETATM   11  C2  UNL     1      29.073  -0.477  53.558  1.00  0.00     0.025 A 
HETATM   12  C1  UNL     1      29.715  -1.600  53.336  1.00  0.00     0.043 C 
HETATM   13  N5  UNL     1      29.765   0.720  53.894  1.00  0.00    -0.351 N 
HETATM   14  C13 UNL     1      28.965   1.889  54.114  1.00  0.00     0.208 A 
HETATM   15  H19 UNL     1      30.812   0.742  53.976  1.00  0.00     0.166 HD
HETATM   16  N4  UNL     1      27.682   1.879  54.019  1.00  0.00    -0.244 NA
ENDBRANCH   8   9
ENDBRANCH   1   7
BRANCH   4  17
HETATM   17  C8  UNL     1      25.477   4.728  49.261  1.00  0.00     0.127 C 
BRANCH  17  18
HETATM   18  C9  UNL     1      25.496   6.183  48.903  1.00  0.00     0.055 C 
BRANCH  18  19
HETATM   19  C10 UNL     1      25.642   7.110  50.044  1.00  0.00     0.162 C 
HETATM   20  C11 UNL     1      25.095   8.490  49.925  1.00  0.00     0.154 C 
HETATM   21  N3  UNL     1      23.993   8.088  50.773  1.00  0.00    -0.198 NA
HETATM   22  C12 UNL     1      22.765   7.937  50.056  1.00  0.00     0.143 C 
HETATM   23  O2  UNL     1      24.670   6.945  51.032  1.00  0.00    -0.297 OA
ENDBRANCH  18  19
ENDBRANCH  17  18
ENDBRANCH   4  17
TORSDOF 5
ENDMDL
MODEL 8
REMARK VINA RESULT:      -6.2      3.761      5.091
REMARK  5 active torsions:
REMARK  status: ('A' for Active; 'I' for Inactive)
REMARK    1  A    between atoms: C4_4  and  C5_5 
REMARK    2  A    between atoms: C6_6  and  N1_7 
REMARK       I    between atoms: N1_7  and  C7_8 
REMARK       I    between atoms: C7_8  and  N2_10 
REMARK    3  A    between atoms: N2_10  and  C8_11 
REMARK    4  A    between atoms: C8_11  and  C9_12 
REMARK    5  A    between atoms: C9_12  and  C10_13 
ROOT
HETATM    1  N1  UNL     1      27.911   4.800  49.443  1.00  0.00    -0.319 N 
HETATM    2  C7  UNL     1      26.681   4.199  49.896  1.00  0.00     0.320 C 
HETATM    3  O1  UNL     1      25.618   4.546  49.278  1.00  0.00    -0.247 OA
HETATM    4  N2  UNL     1      26.570   3.251  50.977  1.00  0.00    -0.343 N 
HETATM    5  H6  UNL     1      28.723   4.442  50.021  1.00  0.00     0.170 HD
HETATM    6  H7  UNL     1      27.471   3.001  51.448  1.00  0.00     0.164 HD
ENDROOT
BRANCH   1   7
HETATM    7  C6  UNL     1      27.726   5.695  48.364  1.00  0.00     0.095 C 
HETATM    8  C5  UNL     1      28.770   6.220  47.740  1.00  0.00     0.049 C 
BRANCH   8   9
HETATM    9  C4  UNL     1      30.129   5.895  48.144  1.00  0.00     0.061 A 
HETATM   10  C3  UNL     1      30.835   4.943  47.523  1.00  0.00     0.060 A 
HETATM   11  C2  UNL     1      32.200   4.570  47.879  1.00  0.00     0.025 A 
HETATM   12  C1  UNL     1      32.853   3.628  47.239  1.00  0.00     0.043 C 
HETATM   13  N5  UNL     1      32.794   5.281  48.959  1.00  0.00    -0.351 N 
HETATM   14  C13 UNL     1      31.992   6.290  49.587  1.00  0.00     0.208 A 
HETATM   15  H19 UNL     1      33.772   5.074  49.279  1.00  0.00     0.166 HD
HETATM   16  N4  UNL     1      30.791   6.556  49.208  1.00  0.00    -0.244 NA
ENDBRANCH   8   9
ENDBRANCH   1   7
BRANCH   4  17
HETATM   17  C8  UNL     1      25.305   2.708  51.354  1.00  0.00     0.127 C 
BRANCH  17  18
HETATM   18  C9  UNL     1      25.373   1.455  52.171  1.00  0.00     0.055 C 
BRANCH  18  19
HETATM   19  C10 UNL     1      25.608   1.657  53.615  1.00  0.00     0.162 C 
HETATM   20  C11 UNL     1      26.348   0.612  54.377  1.00  0.00     0.154 C 
HETATM   21  N3  UNL     1      27.509   1.477  54.367  1.00  0.00    -0.198 NA
HETATM   22  C12 UNL     1      28.532   1.025  53.476  1.00  0.00     0.143 C 
HETATM   23  O2  UNL     1      26.712   2.465  53.899  1.00  0.00    -0.297 OA
ENDBRANCH  18  19
ENDBRANCH  17  18
ENDBRANCH   4  17
TORSDOF 5
ENDMDL
MODEL 9
REMARK VINA RESULT:      -6.1      2.506      7.280
REMARK  5 active torsions:
REMARK  status: ('A' for Active; 'I' for Inactive)
REMARK    1  A    between atoms: C4_4  and  C5_5 
REMARK    2  A    between atoms: C6_6  and  N1_7 
REMARK       I    between atoms: N1_7  and  C7_8 
REMARK       I    between atoms: C7_8  and  N2_10 
REMARK    3  A    between atoms: N2_10  and  C8_11 
REMARK    4  A    between atoms: C8_11  and  C9_12 
REMARK    5  A    between atoms: C9_12  and  C10_13 
ROOT
HETATM    1  N1  UNL     1      25.663   3.112  51.629  1.00  0.00    -0.319 N 
HETATM    2  C7  UNL     1      25.937   3.644  50.318  1.00  0.00     0.320 C 
HETATM    3  O1  UNL     1      25.020   3.493  49.441  1.00  0.00    -0.247 OA
HETATM    4  N2  UNL     1      27.152   4.321  49.935  1.00  0.00    -0.343 N 
HETATM    5  H6  UNL     1      26.485   3.292  52.272  1.00  0.00     0.170 HD
HETATM    6  H7  UNL     1      27.868   4.418  50.692  1.00  0.00     0.164 HD
ENDROOT
BRANCH   1   7
HETATM    7  C6  UNL     1      24.393   2.498  51.724  1.00  0.00     0.095 C 
HETATM    8  C5  UNL     1      24.252   1.339  52.349  1.00  0.00     0.049 C 
BRANCH   8   9
HETATM    9  C4  UNL     1      25.392   0.666  52.953  1.00  0.00     0.061 A 
HETATM   10  C3  UNL     1      25.843  -0.503  52.485  1.00  0.00     0.060 A 
HETATM   11  C2  UNL     1      26.979  -1.228  53.045  1.00  0.00     0.025 A 
HETATM   12  C1  UNL     1      27.386  -2.373  52.550  1.00  0.00     0.043 C 
HETATM   13  N5  UNL     1      27.630  -0.628  54.159  1.00  0.00    -0.351 N 
HETATM   14  C13 UNL     1      27.105   0.624  54.618  1.00  0.00     0.208 A 
HETATM   15  H19 UNL     1      28.455  -1.084  54.622  1.00  0.00     0.166 HD
HETATM   16  N4  UNL     1      26.094   1.196  54.063  1.00  0.00    -0.244 NA
ENDBRANCH   8   9
ENDBRANCH   1   7
BRANCH   4  17
HETATM   17  C8  UNL     1      27.332   4.816  48.608  1.00  0.00     0.127 C 
BRANCH  17  18
HETATM   18  C9  UNL     1      27.721   6.260  48.519  1.00  0.00     0.055 C 
BRANCH  18  19
HETATM   19  C10 UNL     1      26.672   7.162  48.000  1.00  0.00     0.162 C 
HETATM   20  C11 UNL     1      25.243   6.810  48.227  1.00  0.00     0.154 C 
HETATM   21  N3  UNL     1      25.193   7.825  49.257  1.00  0.00    -0.198 NA
HETATM   22  C12 UNL     1      25.153   7.278  50.577  1.00  0.00     0.143 C 
HETATM   23  O2  UNL     1      26.404   8.251  48.831  1.00  0.00    -0.297 OA
ENDBRANCH  18  19
ENDBRANCH  17  18
ENDBRANCH   4  17
TORSDOF 5
ENDMDL
