MODEL 1
REMARK VINA RESULT:      -7.2      0.000      0.000
REMARK  5 active torsions:
REMARK  status: ('A' for Active; 'I' for Inactive)
REMARK    1  A    between atoms: C2_2  and  C3_3 
REMARK    2  A    between atoms: C3_3  and  N1_4 
REMARK    3  A    between atoms: N1_4  and  C5_6 
REMARK    4  A    between atoms: C11_12  and  C12_13 
REMARK    5  A    between atoms: C13_14  and  C14_15 
ROOT
HETATM    1  C5  UNL     1      26.775   1.163  53.510  1.00  0.00     0.125 A 
HETATM    2  C6  UNL     1      26.025   2.236  53.311  1.00  0.00     0.065 A 
HETATM    3  C7  UNL     1      24.741   1.714  52.796  1.00  0.00     0.010 A 
HETATM    4  C8  UNL     1      23.650   2.418  52.445  1.00  0.00     0.053 C 
HETATM    5  C9  UNL     1      22.424   1.736  51.938  1.00  0.00     0.117 C 
HETATM    6  C10 UNL     1      21.250   2.607  52.120  1.00  0.00     0.015 C 
HETATM    7  C11 UNL     1      20.007   2.110  52.141  1.00  0.00     0.025 C 
HETATM    8  N2  UNL     1      21.462   3.994  52.272  1.00  0.00    -0.354 N 
HETATM    9  C15 UNL     1      22.712   4.608  52.504  1.00  0.00     0.207 C 
HETATM   10  N3  UNL     1      23.731   3.835  52.581  1.00  0.00    -0.247 NA
HETATM   11  C16 UNL     1      24.896   0.259  52.744  1.00  0.00     0.132 A 
HETATM   12  N4  UNL     1      26.083  -0.032  53.163  1.00  0.00    -0.243 NA
HETATM   13  H17 UNL     1      20.633   4.648  52.213  1.00  0.00     0.166 HD
ENDROOT
BRANCH   1  14
HETATM   14  N1  UNL     1      28.106   1.219  54.008  1.00  0.00    -0.370 N 
HETATM   15  C4  UNL     1      28.948   2.375  53.832  1.00  0.00     0.151 C 
BRANCH  14  16
HETATM   16  C3  UNL     1      28.765   0.170  54.726  1.00  0.00     0.129 C 
BRANCH  16  17
HETATM   17  C2  UNL     1      29.630  -0.672  53.872  1.00  0.00     0.009 C 
HETATM   18  C1  UNL     1      29.305  -1.814  53.276  1.00  0.00     0.007 C 
ENDBRANCH  16  17
ENDBRANCH  14  16
ENDBRANCH   1  14
BRANCH   7  19
HETATM   19  C12 UNL     1      19.741   0.698  51.988  1.00  0.00    -0.001 C 
HETATM   20  C13 UNL     1      19.927  -0.155  52.981  1.00  0.00    -0.016 C 
BRANCH  20  21
HETATM   21  C14 UNL     1      20.396   0.012  54.379  1.00  0.00     0.112 C 
HETATM   22 BR1  UNL     1      21.953  -1.101  54.713  1.00  0.00    -0.092 Br
ENDBRANCH  20  21
ENDBRANCH   7  19
TORSDOF 5
ENDMDL
MODEL 2
REMARK VINA RESULT:      -7.1      1.736      1.869
REMARK  5 active torsions:
REMARK  status: ('A' for Active; 'I' for Inactive)
REMARK    1  A    between atoms: C2_2  and  C3_3 
REMARK    2  A    between atoms: C3_3  and  N1_4 
REMARK    3  A    between atoms: N1_4  and  C5_6 
REMARK    4  A    between atoms: C11_12  and  C12_13 
REMARK    5  A    between atoms: C13_14  and  C14_15 
ROOT
HETATM    1  C5  UNL     1      26.640   0.997  53.601  1.00  0.00     0.125 A 
HETATM    2  C6  UNL     1      25.832   1.987  53.251  1.00  0.00     0.065 A 
HETATM    3  C7  UNL     1      24.547   1.332  52.928  1.00  0.00     0.010 A 
HETATM    4  C8  UNL     1      23.407   1.919  52.521  1.00  0.00     0.053 C 
HETATM    5  C9  UNL     1      22.186   1.112  52.233  1.00  0.00     0.117 C 
HETATM    6  C10 UNL     1      20.986   1.961  52.322  1.00  0.00     0.015 C 
HETATM    7  C11 UNL     1      19.770   1.437  52.518  1.00  0.00     0.025 C 
HETATM    8  N2  UNL     1      21.143   3.358  52.194  1.00  0.00    -0.354 N 
HETATM    9  C15 UNL     1      22.375   4.047  52.224  1.00  0.00     0.207 C 
HETATM   10  N3  UNL     1      23.431   3.337  52.381  1.00  0.00    -0.247 NA
HETATM   11  C16 UNL     1      24.764  -0.099  53.144  1.00  0.00     0.132 A 
HETATM   12  N4  UNL     1      25.984  -0.265  53.533  1.00  0.00    -0.243 NA
HETATM   13  H17 UNL     1      20.283   3.961  52.066  1.00  0.00     0.166 HD
ENDROOT
BRANCH   1  14
HETATM   14  N1  UNL     1      27.994   1.192  53.992  1.00  0.00    -0.370 N 
HETATM   15  C4  UNL     1      28.711   2.410  53.710  1.00  0.00     0.151 C 
BRANCH  14  16
HETATM   16  C3  UNL     1      28.798   0.237  54.693  1.00  0.00     0.129 C 
BRANCH  16  17
HETATM   17  C2  UNL     1      29.634  -0.594  53.802  1.00  0.00     0.009 C 
HETATM   18  C1  UNL     1      29.342  -1.795  53.314  1.00  0.00     0.007 C 
ENDBRANCH  16  17
ENDBRANCH  14  16
ENDBRANCH   1  14
BRANCH   7  19
HETATM   19  C12 UNL     1      19.560   0.014  52.653  1.00  0.00    -0.001 C 
HETATM   20  C13 UNL     1      18.390  -0.544  52.388  1.00  0.00    -0.016 C 
BRANCH  20  21
HETATM   21  C14 UNL     1      17.090   0.008  51.931  1.00  0.00     0.112 C 
HETATM   22 BR1  UNL     1      16.963  -0.062  49.993  1.00  0.00    -0.092 Br
ENDBRANCH  20  21
ENDBRANCH   7  19
TORSDOF 5
ENDMDL
MODEL 3
REMARK VINA RESULT:      -7.0      2.848      3.553
REMARK  5 active torsions:
REMARK  status: ('A' for Active; 'I' for Inactive)
REMARK    1  A    between atoms: C2_2  and  C3_3 
REMARK    2  A    between atoms: C3_3  and  N1_4 
REMARK    3  A    between atoms: N1_4  and  C5_6 
REMARK    4  A    between atoms: C11_12  and  C12_13 
REMARK    5  A    between atoms: C13_14  and  C14_15 
ROOT
HETATM    1  C5  UNL     1      27.258   1.479  53.040  1.00  0.00     0.125 A 
HETATM    2  C6  UNL     1      26.044   1.005  53.271  1.00  0.00     0.065 A 
HETATM    3  C7  UNL     1      25.228   1.478  52.132  1.00  0.00     0.010 A 
HETATM    4  C8  UNL     1      23.920   1.253  51.911  1.00  0.00     0.053 C 
HETATM    5  C9  UNL     1      23.238   1.804  50.704  1.00  0.00     0.117 C 
HETATM    6  C10 UNL     1      22.022   1.027  50.412  1.00  0.00     0.015 C 
HETATM    7  C11 UNL     1      21.463   1.032  49.195  1.00  0.00     0.025 C 
HETATM    8  N2  UNL     1      21.447   0.267  51.453  1.00  0.00    -0.354 N 
HETATM    9  C15 UNL     1      22.058  -0.011  52.694  1.00  0.00     0.207 C 
HETATM   10  N3  UNL     1      23.231   0.470  52.882  1.00  0.00    -0.247 NA
HETATM   11  C16 UNL     1      26.138   2.246  51.283  1.00  0.00     0.132 A 
HETATM   12  N4  UNL     1      27.308   2.231  51.832  1.00  0.00    -0.243 NA
HETATM   13  H17 UNL     1      20.479  -0.139  51.316  1.00  0.00     0.166 HD
ENDROOT
BRANCH   1  14
HETATM   14  N1  UNL     1      28.365   1.254  53.905  1.00  0.00    -0.370 N 
HETATM   15  C4  UNL     1      29.344   2.273  54.189  1.00  0.00     0.151 C 
BRANCH  14  16
HETATM   16  C3  UNL     1      28.644   0.027  54.587  1.00  0.00     0.129 C 
BRANCH  16  17
HETATM   17  C2  UNL     1      29.501  -0.894  53.811  1.00  0.00     0.009 C 
HETATM   18  C1  UNL     1      29.134  -2.024  53.215  1.00  0.00     0.007 C 
ENDBRANCH  16  17
ENDBRANCH  14  16
ENDBRANCH   1  14
BRANCH   7  19
HETATM   19  C12 UNL     1      22.015   1.796  48.099  1.00  0.00    -0.001 C 
HETATM   20  C13 UNL     1      21.452   2.917  47.682  1.00  0.00    -0.016 C 
BRANCH  20  21
HETATM   21  C14 UNL     1      20.248   3.666  48.121  1.00  0.00     0.112 C 
HETATM   22 BR1  UNL     1      20.663   4.783  49.656  1.00  0.00    -0.092 Br
ENDBRANCH  20  21
ENDBRANCH   7  19
TORSDOF 5
ENDMDL
MODEL 4
REMARK VINA RESULT:      -6.9      2.876      3.697
REMARK  5 active torsions:
REMARK  status: ('A' for Active; 'I' for Inactive)
REMARK    1  A    between atoms: C2_2  and  C3_3 
REMARK    2  A    between atoms: C3_3  and  N1_4 
REMARK    3  A    between atoms: N1_4  and  C5_6 
REMARK    4  A    between atoms: C11_12  and  C12_13 
REMARK    5  A    between atoms: C13_14  and  C14_15 
ROOT
HETATM    1  C5  UNL     1      25.563   0.897  52.703  1.00  0.00     0.125 A 
HETATM    2  C6  UNL     1      24.687   0.172  53.382  1.00  0.00     0.065 A 
HETATM    3  C7  UNL     1      23.365   0.616  52.892  1.00  0.00     0.010 A 
HETATM    4  C8  UNL     1      22.155   0.173  53.279  1.00  0.00     0.053 C 
HETATM    5  C9  UNL     1      20.905   0.728  52.682  1.00  0.00     0.117 C 
HETATM    6  C10 UNL     1      19.797  -0.227  52.853  1.00  0.00     0.015 C 
HETATM    7  C11 UNL     1      18.706  -0.179  52.078  1.00  0.00     0.025 C 
HETATM    8  N2  UNL     1      19.907  -1.207  53.862  1.00  0.00    -0.354 N 
HETATM    9  C15 UNL     1      21.085  -1.515  54.577  1.00  0.00     0.207 C 
HETATM   10  N3  UNL     1      22.135  -0.844  54.278  1.00  0.00    -0.247 NA
HETATM   11  C16 UNL     1      23.638   1.646  51.889  1.00  0.00     0.132 A 
HETATM   12  N4  UNL     1      24.919   1.788  51.799  1.00  0.00    -0.243 NA
HETATM   13  H17 UNL     1      19.051  -1.773  54.123  1.00  0.00     0.166 HD
ENDROOT
BRANCH   1  14
HETATM   14  N1  UNL     1      26.971   0.784  52.872  1.00  0.00    -0.370 N 
HETATM   15  C4  UNL     1      27.831   1.936  52.985  1.00  0.00     0.151 C 
BRANCH  14  16
HETATM   16  C3  UNL     1      27.698  -0.447  52.949  1.00  0.00     0.129 C 
BRANCH  16  17
HETATM   17  C2  UNL     1      28.914  -0.360  53.786  1.00  0.00     0.009 C 
HETATM   18  C1  UNL     1      30.043  -1.045  53.637  1.00  0.00     0.007 C 
ENDBRANCH  16  17
ENDBRANCH  14  16
ENDBRANCH   1  14
BRANCH   7  19
HETATM   19  C12 UNL     1      18.549   0.807  51.034  1.00  0.00    -0.001 C 
HETATM   20  C13 UNL     1      17.680   0.643  50.050  1.00  0.00    -0.016 C 
BRANCH  20  21
HETATM   21  C14 UNL     1      16.716  -0.437  49.725  1.00  0.00     0.112 C 
HETATM   22 BR1  UNL     1      14.961  -0.025  50.450  1.00  0.00    -0.092 Br
ENDBRANCH  20  21
ENDBRANCH   7  19
TORSDOF 5
ENDMDL
MODEL 5
REMARK VINA RESULT:      -6.8      2.524      3.292
REMARK  5 active torsions:
REMARK  status: ('A' for Active; 'I' for Inactive)
REMARK    1  A    between atoms: C2_2  and  C3_3 
REMARK    2  A    between atoms: C3_3  and  N1_4 
REMARK    3  A    between atoms: N1_4  and  C5_6 
REMARK    4  A    between atoms: C11_12  and  C12_13 
REMARK    5  A    between atoms: C13_14  and  C14_15 
ROOT
HETATM    1  C5  UNL     1      26.329   1.399  53.616  1.00  0.00     0.125 A 
HETATM    2  C6  UNL     1      25.422   0.489  53.938  1.00  0.00     0.065 A 
HETATM    3  C7  UNL     1      24.147   1.019  53.411  1.00  0.00     0.010 A 
HETATM    4  C8  UNL     1      22.929   0.453  53.486  1.00  0.00     0.053 C 
HETATM    5  C9  UNL     1      21.732   1.123  52.899  1.00  0.00     0.117 C 
HETATM    6  C10 UNL     1      20.674   0.131  52.641  1.00  0.00     0.015 C 
HETATM    7  C11 UNL     1      19.689   0.369  51.766  1.00  0.00     0.025 C 
HETATM    8  N2  UNL     1      20.718  -1.093  53.343  1.00  0.00    -0.354 N 
HETATM    9  C15 UNL     1      21.812  -1.560  54.102  1.00  0.00     0.207 C 
HETATM   10  N3  UNL     1      22.847  -0.805  54.151  1.00  0.00    -0.247 NA
HETATM   11  C16 UNL     1      24.479   2.298  52.781  1.00  0.00     0.132 A 
HETATM   12  N4  UNL     1      25.749   2.493  52.915  1.00  0.00    -0.243 NA
HETATM   13  H17 UNL     1      19.874  -1.731  53.314  1.00  0.00     0.166 HD
ENDROOT
BRANCH   1  14
HETATM   14  N1  UNL     1      27.708   1.278  53.942  1.00  0.00    -0.370 N 
HETATM   15  C4  UNL     1      28.677   2.286  53.587  1.00  0.00     0.151 C 
BRANCH  14  16
HETATM   16  C3  UNL     1      28.299   0.178  54.641  1.00  0.00     0.129 C 
BRANCH  16  17
HETATM   17  C2  UNL     1      29.417  -0.452  53.907  1.00  0.00     0.009 C 
HETATM   18  C1  UNL     1      29.436  -1.660  53.353  1.00  0.00     0.007 C 
ENDBRANCH  16  17
ENDBRANCH  14  16
ENDBRANCH   1  14
BRANCH   7  19
HETATM   19  C12 UNL     1      19.603   1.606  51.025  1.00  0.00    -0.001 C 
HETATM   20  C13 UNL     1      20.288   1.797  49.910  1.00  0.00    -0.016 C 
BRANCH  20  21
HETATM   21  C14 UNL     1      21.233   0.943  49.149  1.00  0.00     0.112 C 
HETATM   22 BR1  UNL     1      22.311   2.023  47.945  1.00  0.00    -0.092 Br
ENDBRANCH  20  21
ENDBRANCH   7  19
TORSDOF 5
ENDMDL
MODEL 6
REMARK VINA RESULT:      -6.6      3.989      5.655
REMARK  5 active torsions:
REMARK  status: ('A' for Active; 'I' for Inactive)
REMARK    1  A    between atoms: C2_2  and  C3_3 
REMARK    2  A    between atoms: C3_3  and  N1_4 
REMARK    3  A    between atoms: N1_4  and  C5_6 
REMARK    4  A    between atoms: C11_12  and  C12_13 
REMARK    5  A    between atoms: C13_14  and  C14_15 
ROOT
HETATM    1  C5  UNL     1      25.686   1.105  52.541  1.00  0.00     0.125 A 
HETATM    2  C6  UNL     1      26.338   1.705  51.557  1.00  0.00     0.065 A 
HETATM    3  C7  UNL     1      25.587   2.954  51.308  1.00  0.00     0.010 A 
HETATM    4  C8  UNL     1      25.859   3.907  50.399  1.00  0.00     0.053 C 
HETATM    5  C9  UNL     1      24.997   5.118  50.272  1.00  0.00     0.117 C 
HETATM    6  C10 UNL     1      25.748   6.208  49.627  1.00  0.00     0.015 C 
HETATM    7  C11 UNL     1      25.377   7.488  49.759  1.00  0.00     0.025 C 
HETATM    8  N2  UNL     1      26.882   5.875  48.855  1.00  0.00    -0.354 N 
HETATM    9  C15 UNL     1      27.510   4.611  48.830  1.00  0.00     0.207 C 
HETATM   10  N3  UNL     1      27.002   3.698  49.573  1.00  0.00    -0.247 NA
HETATM   11  C16 UNL     1      24.477   2.947  52.261  1.00  0.00     0.132 A 
HETATM   12  N4  UNL     1      24.558   1.865  52.962  1.00  0.00    -0.243 NA
HETATM   13  H17 UNL     1      27.316   6.615  48.236  1.00  0.00     0.166 HD
ENDROOT
BRANCH   1  14
HETATM   14  N1  UNL     1      26.080  -0.145  53.094  1.00  0.00    -0.370 N 
HETATM   15  C4  UNL     1      25.324  -0.804  54.130  1.00  0.00     0.151 C 
BRANCH  14  16
HETATM   16  C3  UNL     1      27.240  -0.889  52.710  1.00  0.00     0.129 C 
BRANCH  16  17
HETATM   17  C2  UNL     1      28.430  -0.590  53.535  1.00  0.00     0.009 C 
HETATM   18  C1  UNL     1      29.603  -1.214  53.510  1.00  0.00     0.007 C 
ENDBRANCH  16  17
ENDBRANCH  14  16
ENDBRANCH   1  14
BRANCH   7  19
HETATM   19  C12 UNL     1      24.224   7.877  50.538  1.00  0.00    -0.001 C 
HETATM   20  C13 UNL     1      23.073   8.189  49.966  1.00  0.00    -0.016 C 
BRANCH  20  21
HETATM   21  C14 UNL     1      22.633   8.240  48.550  1.00  0.00     0.112 C 
HETATM   22 BR1  UNL     1      22.146   6.466  47.922  1.00  0.00    -0.092 Br
ENDBRANCH  20  21
ENDBRANCH   7  19
TORSDOF 5
ENDMDL
MODEL 7
REMARK VINA RESULT:      -6.6      3.366      5.612
REMARK  5 active torsions:
REMARK  status: ('A' for Active; 'I' for Inactive)
REMARK    1  A    between atoms: C2_2  and  C3_3 
REMARK    2  A    between atoms: C3_3  and  N1_4 
REMARK    3  A    between atoms: N1_4  and  C5_6 
REMARK    4  A    between atoms: C11_12  and  C12_13 
REMARK    5  A    between atoms: C13_14  and  C14_15 
ROOT
HETATM    1  C5  UNL     1      25.956   4.474  49.986  1.00  0.00     0.125 A 
HETATM    2  C6  UNL     1      26.404   3.304  50.416  1.00  0.00     0.065 A 
HETATM    3  C7  UNL     1      25.388   2.840  51.384  1.00  0.00     0.010 A 
HETATM    4  C8  UNL     1      25.392   1.696  52.093  1.00  0.00     0.053 C 
HETATM    5  C9  UNL     1      24.283   1.372  53.036  1.00  0.00     0.117 C 
HETATM    6  C10 UNL     1      24.231  -0.080  53.276  1.00  0.00     0.015 C 
HETATM    7  C11 UNL     1      23.122  -0.676  53.730  1.00  0.00     0.025 C 
HETATM    8  N2  UNL     1      25.390  -0.843  53.015  1.00  0.00    -0.354 N 
HETATM    9  C15 UNL     1      26.530  -0.385  52.321  1.00  0.00     0.207 C 
HETATM   10  N3  UNL     1      26.501   0.824  51.895  1.00  0.00    -0.247 NA
HETATM   11  C16 UNL     1      24.364   3.885  51.417  1.00  0.00     0.132 A 
HETATM   12  N4  UNL     1      24.718   4.819  50.598  1.00  0.00    -0.243 NA
HETATM   13  H17 UNL     1      25.432  -1.843  53.358  1.00  0.00     0.166 HD
ENDROOT
BRANCH   1  14
HETATM   14  N1  UNL     1      26.643   5.272  49.030  1.00  0.00    -0.370 N 
HETATM   15  C4  UNL     1      27.936   4.909  48.507  1.00  0.00     0.151 C 
BRANCH  14  16
HETATM   16  C3  UNL     1      26.159   6.502  48.479  1.00  0.00     0.129 C 
BRANCH  16  17
HETATM   17  C2  UNL     1      26.642   7.699  49.201  1.00  0.00     0.009 C 
HETATM   18  C1  UNL     1      25.954   8.461  50.044  1.00  0.00     0.007 C 
ENDBRANCH  16  17
ENDBRANCH  14  16
ENDBRANCH   1  14
BRANCH   7  19
HETATM   19  C12 UNL     1      21.913   0.064  54.011  1.00  0.00    -0.001 C 
HETATM   20  C13 UNL     1      20.996   0.274  53.082  1.00  0.00    -0.016 C 
BRANCH  20  21
HETATM   21  C14 UNL     1      20.900  -0.115  51.653  1.00  0.00     0.112 C 
HETATM   22 BR1  UNL     1      21.616   1.288  50.515  1.00  0.00    -0.092 Br
ENDBRANCH  20  21
ENDBRANCH   7  19
TORSDOF 5
ENDMDL
MODEL 8
REMARK VINA RESULT:      -6.3      3.919      5.701
REMARK  5 active torsions:
REMARK  status: ('A' for Active; 'I' for Inactive)
REMARK    1  A    between atoms: C2_2  and  C3_3 
REMARK    2  A    between atoms: C3_3  and  N1_4 
REMARK    3  A    between atoms: N1_4  and  C5_6 
REMARK    4  A    between atoms: C11_12  and  C12_13 
REMARK    5  A    between atoms: C13_14  and  C14_15 
ROOT
HETATM    1  C5  UNL     1      24.073   1.132  52.974  1.00  0.00     0.125 A 
HETATM    2  C6  UNL     1      23.491   1.232  51.788  1.00  0.00     0.065 A 
HETATM    3  C7  UNL     1      23.612   2.660  51.425  1.00  0.00     0.010 A 
HETATM    4  C8  UNL     1      23.173   3.262  50.305  1.00  0.00     0.053 C 
HETATM    5  C9  UNL     1      23.375   4.724  50.087  1.00  0.00     0.117 C 
HETATM    6  C10 UNL     1      23.300   5.035  48.649  1.00  0.00     0.015 C 
HETATM    7  C11 UNL     1      23.839   6.153  48.146  1.00  0.00     0.025 C 
HETATM    8  N2  UNL     1      22.640   4.122  47.800  1.00  0.00    -0.354 N 
HETATM    9  C15 UNL     1      22.244   2.815  48.156  1.00  0.00     0.207 C 
HETATM   10  N3  UNL     1      22.511   2.435  49.351  1.00  0.00    -0.247 NA
HETATM   11  C16 UNL     1      24.316   3.296  52.540  1.00  0.00     0.132 A 
HETATM   12  N4  UNL     1      24.571   2.388  53.422  1.00  0.00    -0.243 NA
HETATM   13  H17 UNL     1      22.412   4.417  46.809  1.00  0.00     0.166 HD
ENDROOT
BRANCH   1  14
HETATM   14  N1  UNL     1      24.177  -0.091  53.694  1.00  0.00    -0.370 N 
HETATM   15  C4  UNL     1      23.020  -0.851  54.096  1.00  0.00     0.151 C 
BRANCH  14  16
HETATM   16  C3  UNL     1      25.403  -0.708  54.101  1.00  0.00     0.129 C 
BRANCH  16  17
HETATM   17  C2  UNL     1      26.405  -0.796  53.017  1.00  0.00     0.009 C 
HETATM   18  C1  UNL     1      26.917  -1.900  52.484  1.00  0.00     0.007 C 
ENDBRANCH  16  17
ENDBRANCH  14  16
ENDBRANCH   1  14
BRANCH   7  19
HETATM   19  C12 UNL     1      24.523   7.117  48.977  1.00  0.00    -0.001 C 
HETATM   20  C13 UNL     1      25.834   7.280  48.916  1.00  0.00    -0.016 C 
BRANCH  20  21
HETATM   21  C14 UNL     1      26.893   6.633  48.102  1.00  0.00     0.112 C 
HETATM   22 BR1  UNL     1      27.347   4.891  48.833  1.00  0.00    -0.092 Br
ENDBRANCH  20  21
ENDBRANCH   7  19
TORSDOF 5
ENDMDL
MODEL 9
REMARK VINA RESULT:      -6.2      3.572      5.083
REMARK  5 active torsions:
REMARK  status: ('A' for Active; 'I' for Inactive)
REMARK    1  A    between atoms: C2_2  and  C3_3 
REMARK    2  A    between atoms: C3_3  and  N1_4 
REMARK    3  A    between atoms: N1_4  and  C5_6 
REMARK    4  A    between atoms: C11_12  and  C12_13 
REMARK    5  A    between atoms: C13_14  and  C14_15 
ROOT
HETATM    1  C5  UNL     1      23.888   2.531  50.785  1.00  0.00     0.125 A 
HETATM    2  C6  UNL     1      23.565   1.853  51.876  1.00  0.00     0.065 A 
HETATM    3  C7  UNL     1      22.114   1.596  51.749  1.00  0.00     0.010 A 
HETATM    4  C8  UNL     1      21.319   0.937  52.611  1.00  0.00     0.053 C 
HETATM    5  C9  UNL     1      19.863   0.762  52.335  1.00  0.00     0.117 C 
HETATM    6  C10 UNL     1      19.339  -0.383  53.098  1.00  0.00     0.015 C 
HETATM    7  C11 UNL     1      18.209  -1.005  52.739  1.00  0.00     0.025 C 
HETATM    8  N2  UNL     1      20.057  -0.817  54.232  1.00  0.00    -0.354 N 
HETATM    9  C15 UNL     1      21.364  -0.410  54.576  1.00  0.00     0.207 C 
HETATM   10  N3  UNL     1      21.937   0.423  53.788  1.00  0.00    -0.247 NA
HETATM   11  C16 UNL     1      21.712   2.209  50.482  1.00  0.00     0.132 A 
HETATM   12  N4  UNL     1      22.758   2.743  49.945  1.00  0.00    -0.243 NA
HETATM   13  H17 UNL     1      19.602  -1.506  54.895  1.00  0.00     0.166 HD
ENDROOT
BRANCH   1  14
HETATM   14  N1  UNL     1      25.207   2.984  50.507  1.00  0.00    -0.370 N 
HETATM   15  C4  UNL     1      26.364   2.458  51.187  1.00  0.00     0.151 C 
BRANCH  14  16
HETATM   16  C3  UNL     1      25.550   3.990  49.548  1.00  0.00     0.129 C 
BRANCH  16  17
HETATM   17  C2  UNL     1      27.004   4.092  49.299  1.00  0.00     0.009 C 
HETATM   18  C1  UNL     1      27.632   5.006  48.566  1.00  0.00     0.007 C 
ENDBRANCH  16  17
ENDBRANCH  14  16
ENDBRANCH   1  14
BRANCH   7  19
HETATM   19  C12 UNL     1      17.439  -0.595  51.587  1.00  0.00    -0.001 C 
HETATM   20  C13 UNL     1      16.184  -0.195  51.697  1.00  0.00    -0.016 C 
BRANCH  20  21
HETATM   21  C14 UNL     1      15.271  -0.049  52.858  1.00  0.00     0.112 C 
HETATM   22 BR1  UNL     1      13.583   0.739  52.304  1.00  0.00    -0.092 Br
ENDBRANCH  20  21
ENDBRANCH   7  19
TORSDOF 5
ENDMDL
