MODEL 1
REMARK VINA RESULT:      -7.3      0.000      0.000
REMARK  6 active torsions:
REMARK  status: ('A' for Active; 'I' for Inactive)
REMARK    1  A    between atoms: C3_3  and  C4_5 
REMARK    2  A    between atoms: C5_6  and  C6_7 
REMARK    3  A    between atoms: C6_7  and  C7_8 
REMARK    4  A    between atoms: C7_8  and  C8_9 
REMARK       I    between atoms: C8_9  and  N1_11 
REMARK    5  A    between atoms: N1_11  and  S1_12 
REMARK    6  A    between atoms: S1_12  and  C9_15 
ROOT
HETATM    1  C8  UNL     1      26.081   2.226  51.648  1.00  0.00     0.231 C 
HETATM    2  O1  UNL     1      25.475   2.792  52.593  1.00  0.00    -0.273 OA
HETATM    3  N1  UNL     1      26.515   0.909  52.038  1.00  0.00    -0.250 N 
HETATM    4  H11 UNL     1      27.042   0.293  51.364  1.00  0.00     0.181 HD
ENDROOT
BRANCH   3   5
HETATM    5  S1  UNL     1      26.155   0.346  53.651  1.00  0.00     0.265 S 
HETATM    6  O2  UNL     1      26.486   1.366  54.678  1.00  0.00    -0.200 OA
HETATM    7  O3  UNL     1      27.050  -0.843  53.885  1.00  0.00    -0.200 OA
BRANCH   5   8
HETATM    8  C9  UNL     1      24.495  -0.204  53.750  1.00  0.00     0.080 A 
HETATM    9  C10 UNL     1      24.132  -0.911  54.891  1.00  0.00     0.027 A 
HETATM   10  C11 UNL     1      22.823  -1.351  54.982  1.00  0.00     0.025 A 
HETATM   11  C12 UNL     1      21.920  -1.093  53.971  1.00  0.00     0.034 A 
HETATM   12 CL2  UNL     1      20.307  -1.717  54.242  1.00  0.00    -0.084 Cl
HETATM   13  C13 UNL     1      22.267  -0.389  52.827  1.00  0.00     0.025 A 
HETATM   14  C14 UNL     1      23.579   0.046  52.749  1.00  0.00     0.027 A 
ENDBRANCH   5   8
ENDBRANCH   3   5
BRANCH   1  15
HETATM   15  C7  UNL     1      26.431   2.626  50.251  1.00  0.00     0.107 C 
BRANCH  15  16
HETATM   16  C6  UNL     1      25.539   3.730  49.770  1.00  0.00     0.036 C 
BRANCH  16  17
HETATM   17  C5  UNL     1      26.304   4.845  49.147  1.00  0.00    -0.024 C 
HETATM   18  C4  UNL     1      27.569   4.711  48.802  1.00  0.00     0.019 C 
BRANCH  18  19
HETATM   19  C3  UNL     1      28.400   5.741  48.188  1.00  0.00     0.029 C 
HETATM   20  C2  UNL     1      27.962   6.934  47.833  1.00  0.00    -0.007 C 
HETATM   21  C1  UNL     1      28.935   7.866  47.220  1.00  0.00     0.038 C 
HETATM   22 CL1  UNL     1      30.110   5.415  47.878  1.00  0.00    -0.085 Cl
ENDBRANCH  18  19
ENDBRANCH  16  17
ENDBRANCH  15  16
ENDBRANCH   1  15
TORSDOF 6
ENDMDL
MODEL 2
REMARK VINA RESULT:      -7.3      3.264      4.753
REMARK  6 active torsions:
REMARK  status: ('A' for Active; 'I' for Inactive)
REMARK    1  A    between atoms: C3_3  and  C4_5 
REMARK    2  A    between atoms: C5_6  and  C6_7 
REMARK    3  A    between atoms: C6_7  and  C7_8 
REMARK    4  A    between atoms: C7_8  and  C8_9 
REMARK       I    between atoms: C8_9  and  N1_11 
REMARK    5  A    between atoms: N1_11  and  S1_12 
REMARK    6  A    between atoms: S1_12  and  C9_15 
ROOT
HETATM    1  C8  UNL     1      26.386   2.151  52.178  1.00  0.00     0.231 C 
HETATM    2  O1  UNL     1      25.915   2.580  53.261  1.00  0.00    -0.273 OA
HETATM    3  N1  UNL     1      26.819   0.784  52.316  1.00  0.00    -0.250 N 
HETATM    4  H11 UNL     1      27.242   0.267  51.502  1.00  0.00     0.181 HD
ENDROOT
BRANCH   3   5
HETATM    5  S1  UNL     1      26.634  -0.006  53.862  1.00  0.00     0.265 S 
HETATM    6  O2  UNL     1      27.147   0.833  54.976  1.00  0.00    -0.200 OA
HETATM    7  O3  UNL     1      27.483  -1.248  53.799  1.00  0.00    -0.200 OA
BRANCH   5   8
HETATM    8  C9  UNL     1      24.971  -0.504  54.099  1.00  0.00     0.080 A 
HETATM    9  C10 UNL     1      24.104  -0.335  53.025  1.00  0.00     0.027 A 
HETATM   10  C11 UNL     1      22.786  -0.724  53.199  1.00  0.00     0.025 A 
HETATM   11  C12 UNL     1      22.361  -1.259  54.398  1.00  0.00     0.034 A 
HETATM   12 CL2  UNL     1      20.668  -1.701  54.453  1.00  0.00    -0.084 Cl
HETATM   13  C13 UNL     1      23.215  -1.434  55.478  1.00  0.00     0.025 A 
HETATM   14  C14 UNL     1      24.529  -1.041  55.290  1.00  0.00     0.027 A 
ENDBRANCH   5   8
ENDBRANCH   3   5
BRANCH   1  15
HETATM   15  C7  UNL     1      26.582   2.748  50.821  1.00  0.00     0.107 C 
BRANCH  15  16
HETATM   16  C6  UNL     1      25.360   3.496  50.383  1.00  0.00     0.036 C 
BRANCH  16  17
HETATM   17  C5  UNL     1      24.133   2.656  50.436  1.00  0.00    -0.024 C 
HETATM   18  C4  UNL     1      23.080   3.008  51.147  1.00  0.00     0.019 C 
BRANCH  18  19
HETATM   19  C3  UNL     1      21.836   2.254  51.261  1.00  0.00     0.029 C 
HETATM   20  C2  UNL     1      21.490   1.266  50.457  1.00  0.00    -0.007 C 
HETATM   21  C1  UNL     1      20.191   0.603  50.708  1.00  0.00     0.038 C 
HETATM   22 CL1  UNL     1      20.685   2.656  52.542  1.00  0.00    -0.085 Cl
ENDBRANCH  18  19
ENDBRANCH  16  17
ENDBRANCH  15  16
ENDBRANCH   1  15
TORSDOF 6
ENDMDL
MODEL 3
REMARK VINA RESULT:      -7.2      3.465      4.322
REMARK  6 active torsions:
REMARK  status: ('A' for Active; 'I' for Inactive)
REMARK    1  A    between atoms: C3_3  and  C4_5 
REMARK    2  A    between atoms: C5_6  and  C6_7 
REMARK    3  A    between atoms: C6_7  and  C7_8 
REMARK    4  A    between atoms: C7_8  and  C8_9 
REMARK       I    between atoms: C8_9  and  N1_11 
REMARK    5  A    between atoms: N1_11  and  S1_12 
REMARK    6  A    between atoms: S1_12  and  C9_15 
ROOT
HETATM    1  C8  UNL     1      26.199   3.686  50.020  1.00  0.00     0.231 C 
HETATM    2  O1  UNL     1      26.442   2.475  49.792  1.00  0.00    -0.273 OA
HETATM    3  N1  UNL     1      25.440   3.835  51.236  1.00  0.00    -0.250 N 
HETATM    4  H11 UNL     1      25.148   4.788  51.577  1.00  0.00     0.181 HD
ENDROOT
BRANCH   3   5
HETATM    5  S1  UNL     1      25.010   2.404  52.139  1.00  0.00     0.265 S 
HETATM    6  O2  UNL     1      24.044   1.553  51.398  1.00  0.00    -0.200 OA
HETATM    7  O3  UNL     1      24.321   2.893  53.387  1.00  0.00    -0.200 OA
BRANCH   5   8
HETATM    8  C9  UNL     1      26.449   1.533  52.627  1.00  0.00     0.080 A 
HETATM    9  C10 UNL     1      26.445   0.155  52.439  1.00  0.00     0.027 A 
HETATM   10  C11 UNL     1      27.577  -0.546  52.821  1.00  0.00     0.025 A 
HETATM   11  C12 UNL     1      28.662   0.109  53.366  1.00  0.00     0.034 A 
HETATM   12 CL2  UNL     1      30.011  -0.922  53.793  1.00  0.00    -0.084 Cl
HETATM   13  C13 UNL     1      28.680   1.483  53.559  1.00  0.00     0.025 A 
HETATM   14  C14 UNL     1      27.543   2.171  53.173  1.00  0.00     0.027 A 
ENDBRANCH   5   8
ENDBRANCH   3   5
BRANCH   1  15
HETATM   15  C7  UNL     1      26.523   4.962  49.311  1.00  0.00     0.107 C 
BRANCH  15  16
HETATM   16  C6  UNL     1      27.793   4.831  48.526  1.00  0.00     0.036 C 
BRANCH  16  17
HETATM   17  C5  UNL     1      28.448   6.146  48.285  1.00  0.00    -0.024 C 
HETATM   18  C4  UNL     1      29.759   6.268  48.230  1.00  0.00     0.019 C 
BRANCH  18  19
HETATM   19  C3  UNL     1      30.492   7.508  47.999  1.00  0.00     0.029 C 
HETATM   20  C2  UNL     1      30.500   8.531  48.832  1.00  0.00    -0.007 C 
HETATM   21  C1  UNL     1      31.295   9.719  48.448  1.00  0.00     0.038 C 
HETATM   22 CL1  UNL     1      31.444   7.698  46.521  1.00  0.00    -0.085 Cl
ENDBRANCH  18  19
ENDBRANCH  16  17
ENDBRANCH  15  16
ENDBRANCH   1  15
TORSDOF 6
ENDMDL
MODEL 4
REMARK VINA RESULT:      -7.1      3.963      5.465
REMARK  6 active torsions:
REMARK  status: ('A' for Active; 'I' for Inactive)
REMARK    1  A    between atoms: C3_3  and  C4_5 
REMARK    2  A    between atoms: C5_6  and  C6_7 
REMARK    3  A    between atoms: C6_7  and  C7_8 
REMARK    4  A    between atoms: C7_8  and  C8_9 
REMARK       I    between atoms: C8_9  and  N1_11 
REMARK    5  A    between atoms: N1_11  and  S1_12 
REMARK    6  A    between atoms: S1_12  and  C9_15 
ROOT
HETATM    1  C8  UNL     1      23.978   3.518  49.808  1.00  0.00     0.231 C 
HETATM    2  O1  UNL     1      23.378   2.568  49.245  1.00  0.00    -0.273 OA
HETATM    3  N1  UNL     1      23.168   4.084  50.857  1.00  0.00    -0.250 N 
HETATM    4  H11 UNL     1      23.519   4.893  51.433  1.00  0.00     0.181 HD
ENDROOT
BRANCH   3   5
HETATM    5  S1  UNL     1      21.588   3.405  51.159  1.00  0.00     0.265 S 
HETATM    6  O2  UNL     1      20.848   3.145  49.898  1.00  0.00    -0.200 OA
HETATM    7  O3  UNL     1      20.826   4.453  51.926  1.00  0.00    -0.200 OA
BRANCH   5   8
HETATM    8  C9  UNL     1      21.717   1.984  52.175  1.00  0.00     0.080 A 
HETATM    9  C10 UNL     1      20.530   1.441  52.654  1.00  0.00     0.027 A 
HETATM   10  C11 UNL     1      20.618   0.318  53.459  1.00  0.00     0.025 A 
HETATM   11  C12 UNL     1      21.844  -0.234  53.768  1.00  0.00     0.034 A 
HETATM   12 CL2  UNL     1      21.781  -1.651  54.794  1.00  0.00    -0.084 Cl
HETATM   13  C13 UNL     1      23.038   0.296  53.298  1.00  0.00     0.025 A 
HETATM   14  C14 UNL     1      22.934   1.419  52.495  1.00  0.00     0.027 A 
ENDBRANCH   5   8
ENDBRANCH   3   5
BRANCH   1  15
HETATM   15  C7  UNL     1      25.315   4.160  49.618  1.00  0.00     0.107 C 
BRANCH  15  16
HETATM   16  C6  UNL     1      26.420   3.173  49.842  1.00  0.00     0.036 C 
BRANCH  16  17
HETATM   17  C5  UNL     1      26.344   2.532  51.183  1.00  0.00    -0.024 C 
HETATM   18  C4  UNL     1      26.639   1.259  51.362  1.00  0.00     0.019 C 
BRANCH  18  19
HETATM   19  C3  UNL     1      26.596   0.544  52.633  1.00  0.00     0.029 C 
HETATM   20  C2  UNL     1      26.660   1.126  53.815  1.00  0.00    -0.007 C 
HETATM   21  C1  UNL     1      26.603   0.255  55.010  1.00  0.00     0.038 C 
HETATM   22 CL1  UNL     1      26.449  -1.218  52.638  1.00  0.00    -0.085 Cl
ENDBRANCH  18  19
ENDBRANCH  16  17
ENDBRANCH  15  16
ENDBRANCH   1  15
TORSDOF 6
ENDMDL
MODEL 5
REMARK VINA RESULT:      -7.0      3.601      7.427
REMARK  6 active torsions:
REMARK  status: ('A' for Active; 'I' for Inactive)
REMARK    1  A    between atoms: C3_3  and  C4_5 
REMARK    2  A    between atoms: C5_6  and  C6_7 
REMARK    3  A    between atoms: C6_7  and  C7_8 
REMARK    4  A    between atoms: C7_8  and  C8_9 
REMARK       I    between atoms: C8_9  and  N1_11 
REMARK    5  A    between atoms: N1_11  and  S1_12 
REMARK    6  A    between atoms: S1_12  and  C9_15 
ROOT
HETATM    1  C8  UNL     1      22.673   2.950  52.116  1.00  0.00     0.231 C 
HETATM    2  O1  UNL     1      23.125   4.054  52.511  1.00  0.00    -0.273 OA
HETATM    3  N1  UNL     1      22.398   2.988  50.702  1.00  0.00    -0.250 N 
HETATM    4  H11 UNL     1      22.011   2.144  50.205  1.00  0.00     0.181 HD
ENDROOT
BRANCH   3   5
HETATM    5  S1  UNL     1      22.716   4.462  49.822  1.00  0.00     0.265 S 
HETATM    6  O2  UNL     1      22.179   5.654  50.528  1.00  0.00    -0.200 OA
HETATM    7  O3  UNL     1      21.976   4.334  48.517  1.00  0.00    -0.200 OA
BRANCH   5   8
HETATM    8  C9  UNL     1      24.424   4.600  49.459  1.00  0.00     0.080 A 
HETATM    9  C10 UNL     1      24.850   5.787  48.873  1.00  0.00     0.027 A 
HETATM   10  C11 UNL     1      26.198   5.909  48.580  1.00  0.00     0.025 A 
HETATM   11  C12 UNL     1      27.077   4.885  48.864  1.00  0.00     0.034 A 
HETATM   12 CL2  UNL     1      28.744   5.199  48.433  1.00  0.00    -0.084 Cl
HETATM   13  C13 UNL     1      26.667   3.695  49.449  1.00  0.00     0.025 A 
HETATM   14  C14 UNL     1      25.317   3.586  49.736  1.00  0.00     0.027 A 
ENDBRANCH   5   8
ENDBRANCH   3   5
BRANCH   1  15
HETATM   15  C7  UNL     1      22.371   1.650  52.790  1.00  0.00     0.107 C 
BRANCH  15  16
HETATM   16  C6  UNL     1      23.379   0.606  52.415  1.00  0.00     0.036 C 
BRANCH  16  17
HETATM   17  C5  UNL     1      24.774   1.040  52.696  1.00  0.00    -0.024 C 
HETATM   18  C4  UNL     1      25.765   0.174  52.792  1.00  0.00     0.019 C 
BRANCH  18  19
HETATM   19  C3  UNL     1      27.160   0.501  53.063  1.00  0.00     0.029 C 
HETATM   20  C2  UNL     1      28.058  -0.368  53.486  1.00  0.00    -0.007 C 
HETATM   21  C1  UNL     1      29.434   0.126  53.714  1.00  0.00     0.038 C 
HETATM   22 CL1  UNL     1      27.732   2.158  52.824  1.00  0.00    -0.085 Cl
ENDBRANCH  18  19
ENDBRANCH  16  17
ENDBRANCH  15  16
ENDBRANCH   1  15
TORSDOF 6
ENDMDL
MODEL 6
REMARK VINA RESULT:      -7.0      3.215      8.230
REMARK  6 active torsions:
REMARK  status: ('A' for Active; 'I' for Inactive)
REMARK    1  A    between atoms: C3_3  and  C4_5 
REMARK    2  A    between atoms: C5_6  and  C6_7 
REMARK    3  A    between atoms: C6_7  and  C7_8 
REMARK    4  A    between atoms: C7_8  and  C8_9 
REMARK       I    between atoms: C8_9  and  N1_11 
REMARK    5  A    between atoms: N1_11  and  S1_12 
REMARK    6  A    between atoms: S1_12  and  C9_15 
ROOT
HETATM    1  C8  UNL     1      24.096   2.864  51.822  1.00  0.00     0.231 C 
HETATM    2  O1  UNL     1      23.109   2.724  51.057  1.00  0.00    -0.273 OA
HETATM    3  N1  UNL     1      25.027   3.824  51.283  1.00  0.00    -0.250 N 
HETATM    4  H11 UNL     1      25.914   4.063  51.798  1.00  0.00     0.181 HD
ENDROOT
BRANCH   3   5
HETATM    5  S1  UNL     1      24.659   4.588  49.757  1.00  0.00     0.265 S 
HETATM    6  O2  UNL     1      23.537   5.555  49.879  1.00  0.00    -0.200 OA
HETATM    7  O3  UNL     1      24.209   3.483  48.838  1.00  0.00    -0.200 OA
BRANCH   5   8
HETATM    8  C9  UNL     1      26.101   5.305  49.069  1.00  0.00     0.080 A 
HETATM    9  C10 UNL     1      27.222   4.489  48.965  1.00  0.00     0.027 A 
HETATM   10  C11 UNL     1      28.370   5.044  48.423  1.00  0.00     0.025 A 
HETATM   11  C12 UNL     1      28.388   6.359  48.005  1.00  0.00     0.034 A 
HETATM   12 CL2  UNL     1      29.914   6.905  47.343  1.00  0.00    -0.084 Cl
HETATM   13  C13 UNL     1      27.277   7.185  48.102  1.00  0.00     0.025 A 
HETATM   14  C14 UNL     1      26.137   6.617  48.646  1.00  0.00     0.027 A 
ENDBRANCH   5   8
ENDBRANCH   3   5
BRANCH   1  15
HETATM   15  C7  UNL     1      24.491   2.260  53.131  1.00  0.00     0.107 C 
BRANCH  15  16
HETATM   16  C6  UNL     1      23.947   0.870  53.265  1.00  0.00     0.036 C 
BRANCH  16  17
HETATM   17  C5  UNL     1      25.004  -0.168  53.126  1.00  0.00    -0.024 C 
HETATM   18  C4  UNL     1      26.282   0.118  53.281  1.00  0.00     0.019 C 
BRANCH  18  19
HETATM   19  C3  UNL     1      27.388  -0.827  53.165  1.00  0.00     0.029 C 
HETATM   20  C2  UNL     1      28.602  -0.610  53.634  1.00  0.00    -0.007 C 
HETATM   21  C1  UNL     1      29.612  -1.672  53.434  1.00  0.00     0.038 C 
HETATM   22 CL1  UNL     1      27.132  -2.375  52.350  1.00  0.00    -0.085 Cl
ENDBRANCH  18  19
ENDBRANCH  16  17
ENDBRANCH  15  16
ENDBRANCH   1  15
TORSDOF 6
ENDMDL
MODEL 7
REMARK VINA RESULT:      -6.9      5.195      6.459
REMARK  6 active torsions:
REMARK  status: ('A' for Active; 'I' for Inactive)
REMARK    1  A    between atoms: C3_3  and  C4_5 
REMARK    2  A    between atoms: C5_6  and  C6_7 
REMARK    3  A    between atoms: C6_7  and  C7_8 
REMARK    4  A    between atoms: C7_8  and  C8_9 
REMARK       I    between atoms: C8_9  and  N1_11 
REMARK    5  A    between atoms: N1_11  and  S1_12 
REMARK    6  A    between atoms: S1_12  and  C9_15 
ROOT
HETATM    1  C8  UNL     1      22.822   1.439  51.508  1.00  0.00     0.231 C 
HETATM    2  O1  UNL     1      22.234   0.829  50.581  1.00  0.00    -0.273 OA
HETATM    3  N1  UNL     1      21.895   2.256  52.250  1.00  0.00    -0.250 N 
HETATM    4  H11 UNL     1      22.221   2.838  53.065  1.00  0.00     0.181 HD
ENDROOT
BRANCH   3   5
HETATM    5  S1  UNL     1      20.215   2.266  51.775  1.00  0.00     0.265 S 
HETATM    6  O2  UNL     1      20.054   2.533  50.322  1.00  0.00    -0.200 OA
HETATM    7  O3  UNL     1      19.580   3.410  52.521  1.00  0.00    -0.200 OA
BRANCH   5   8
HETATM    8  C9  UNL     1      19.426   0.788  52.285  1.00  0.00     0.080 A 
HETATM    9  C10 UNL     1      18.218   0.475  51.672  1.00  0.00     0.027 A 
HETATM   10  C11 UNL     1      17.583  -0.691  52.067  1.00  0.00     0.025 A 
HETATM   11  C12 UNL     1      18.139  -1.504  53.033  1.00  0.00     0.034 A 
HETATM   12 CL2  UNL     1      17.212  -2.939  53.417  1.00  0.00    -0.084 Cl
HETATM   13  C13 UNL     1      19.343  -1.204  53.654  1.00  0.00     0.025 A 
HETATM   14  C14 UNL     1      19.967  -0.036  53.250  1.00  0.00     0.027 A 
ENDBRANCH   5   8
ENDBRANCH   3   5
BRANCH   1  15
HETATM   15  C7  UNL     1      24.239   1.490  51.983  1.00  0.00     0.107 C 
BRANCH  15  16
HETATM   16  C6  UNL     1      24.338   1.070  53.419  1.00  0.00     0.036 C 
BRANCH  16  17
HETATM   17  C5  UNL     1      25.654   0.453  53.738  1.00  0.00    -0.024 C 
HETATM   18  C4  UNL     1      26.339  -0.227  52.840  1.00  0.00     0.019 C 
BRANCH  18  19
HETATM   19  C3  UNL     1      27.632  -0.865  53.056  1.00  0.00     0.029 C 
HETATM   20  C2  UNL     1      28.698  -0.244  53.524  1.00  0.00    -0.007 C 
HETATM   21  C1  UNL     1      29.937  -1.037  53.685  1.00  0.00     0.038 C 
HETATM   22 CL1  UNL     1      27.833  -2.582  52.680  1.00  0.00    -0.085 Cl
ENDBRANCH  18  19
ENDBRANCH  16  17
ENDBRANCH  15  16
ENDBRANCH   1  15
TORSDOF 6
ENDMDL
MODEL 8
REMARK VINA RESULT:      -6.9      3.470      4.115
REMARK  6 active torsions:
REMARK  status: ('A' for Active; 'I' for Inactive)
REMARK    1  A    between atoms: C3_3  and  C4_5 
REMARK    2  A    between atoms: C5_6  and  C6_7 
REMARK    3  A    between atoms: C6_7  and  C7_8 
REMARK    4  A    between atoms: C7_8  and  C8_9 
REMARK       I    between atoms: C8_9  and  N1_11 
REMARK    5  A    between atoms: N1_11  and  S1_12 
REMARK    6  A    between atoms: S1_12  and  C9_15 
ROOT
HETATM    1  C8  UNL     1      23.436   3.307  50.332  1.00  0.00     0.231 C 
HETATM    2  O1  UNL     1      22.499   3.225  51.164  1.00  0.00    -0.273 OA
HETATM    3  N1  UNL     1      24.599   2.597  50.800  1.00  0.00    -0.250 N 
HETATM    4  H11 UNL     1      25.480   2.565  50.224  1.00  0.00     0.181 HD
ENDROOT
BRANCH   3   5
HETATM    5  S1  UNL     1      24.526   1.790  52.346  1.00  0.00     0.265 S 
HETATM    6  O2  UNL     1      23.367   0.864  52.432  1.00  0.00    -0.200 OA
HETATM    7  O3  UNL     1      24.319   2.873  53.371  1.00  0.00    -0.200 OA
BRANCH   5   8
HETATM    8  C9  UNL     1      26.051   1.002  52.698  1.00  0.00     0.080 A 
HETATM    9  C10 UNL     1      27.088   1.810  53.150  1.00  0.00     0.027 A 
HETATM   10  C11 UNL     1      28.299   1.201  53.431  1.00  0.00     0.025 A 
HETATM   11  C12 UNL     1      28.459  -0.159  53.265  1.00  0.00     0.034 A 
HETATM   12 CL2  UNL     1      30.049  -0.772  53.665  1.00  0.00    -0.084 Cl
HETATM   13  C13 UNL     1      27.434  -0.979  52.815  1.00  0.00     0.025 A 
HETATM   14  C14 UNL     1      26.229  -0.356  52.538  1.00  0.00     0.027 A 
ENDBRANCH   5   8
ENDBRANCH   3   5
BRANCH   1  15
HETATM   15  C7  UNL     1      23.588   3.969  49.000  1.00  0.00     0.107 C 
BRANCH  15  16
HETATM   16  C6  UNL     1      23.661   5.459  49.147  1.00  0.00     0.036 C 
BRANCH  16  17
HETATM   17  C5  UNL     1      24.946   6.015  48.640  1.00  0.00    -0.024 C 
HETATM   18  C4  UNL     1      26.107   5.471  48.947  1.00  0.00     0.019 C 
BRANCH  18  19
HETATM   19  C3  UNL     1      27.414   5.941  48.501  1.00  0.00     0.029 C 
HETATM   20  C2  UNL     1      28.486   5.177  48.410  1.00  0.00    -0.007 C 
HETATM   21  C1  UNL     1      29.738   5.809  47.939  1.00  0.00     0.038 C 
HETATM   22 CL1  UNL     1      27.624   7.636  48.045  1.00  0.00    -0.085 Cl
ENDBRANCH  18  19
ENDBRANCH  16  17
ENDBRANCH  15  16
ENDBRANCH   1  15
TORSDOF 6
ENDMDL
MODEL 9
REMARK VINA RESULT:      -6.9      2.860      3.706
REMARK  6 active torsions:
REMARK  status: ('A' for Active; 'I' for Inactive)
REMARK    1  A    between atoms: C3_3  and  C4_5 
REMARK    2  A    between atoms: C5_6  and  C6_7 
REMARK    3  A    between atoms: C6_7  and  C7_8 
REMARK    4  A    between atoms: C7_8  and  C8_9 
REMARK       I    between atoms: C8_9  and  N1_11 
REMARK    5  A    between atoms: N1_11  and  S1_12 
REMARK    6  A    between atoms: S1_12  and  C9_15 
ROOT
HETATM    1  C8  UNL     1      25.053   4.232  49.761  1.00  0.00     0.231 C 
HETATM    2  O1  UNL     1      24.245   3.337  49.408  1.00  0.00    -0.273 OA
HETATM    3  N1  UNL     1      25.126   4.315  51.198  1.00  0.00    -0.250 N 
HETATM    4  H11 UNL     1      25.756   5.016  51.666  1.00  0.00     0.181 HD
ENDROOT
BRANCH   3   5
HETATM    5  S1  UNL     1      24.146   3.232  52.154  1.00  0.00     0.265 S 
HETATM    6  O2  UNL     1      22.770   3.105  51.609  1.00  0.00    -0.200 OA
HETATM    7  O3  UNL     1      24.039   3.864  53.517  1.00  0.00    -0.200 OA
BRANCH   5   8
HETATM    8  C9  UNL     1      24.949   1.686  52.341  1.00  0.00     0.080 A 
HETATM    9  C10 UNL     1      26.198   1.548  51.746  1.00  0.00     0.027 A 
HETATM   10  C11 UNL     1      26.843   0.331  51.885  1.00  0.00     0.025 A 
HETATM   11  C12 UNL     1      26.258  -0.700  52.590  1.00  0.00     0.034 A 
HETATM   12 CL2  UNL     1      27.204  -2.171  52.673  1.00  0.00    -0.084 Cl
HETATM   13  C13 UNL     1      25.012  -0.578  53.189  1.00  0.00     0.025 A 
HETATM   14  C14 UNL     1      24.378   0.644  53.042  1.00  0.00     0.027 A 
ENDBRANCH   5   8
ENDBRANCH   3   5
BRANCH   1  15
HETATM   15  C7  UNL     1      25.924   5.196  49.021  1.00  0.00     0.107 C 
BRANCH  15  16
HETATM   16  C6  UNL     1      27.309   4.647  48.854  1.00  0.00     0.036 C 
BRANCH  16  17
HETATM   17  C5  UNL     1      28.252   5.653  48.295  1.00  0.00    -0.024 C 
HETATM   18  C4  UNL     1      29.541   5.402  48.169  1.00  0.00     0.019 C 
BRANCH  18  19
HETATM   19  C3  UNL     1      30.541   6.319  47.634  1.00  0.00     0.029 C 
HETATM   20  C2  UNL     1      30.463   7.634  47.718  1.00  0.00    -0.007 C 
HETATM   21  C1  UNL     1      31.564   8.423  47.122  1.00  0.00     0.038 C 
HETATM   22 CL1  UNL     1      31.967   5.674  46.811  1.00  0.00    -0.085 Cl
ENDBRANCH  18  19
ENDBRANCH  16  17
ENDBRANCH  15  16
ENDBRANCH   1  15
TORSDOF 6
ENDMDL
