MODEL 1
REMARK VINA RESULT:      -8.7      0.000      0.000
REMARK  5 active torsions:
REMARK  status: ('A' for Active; 'I' for Inactive)
REMARK    1  A    between atoms: O1_2  and  C2_3 
REMARK    2  A    between atoms: C6_9  and  O2_10 
REMARK    3  A    between atoms: O2_10  and  C7_11 
REMARK    4  A    between atoms: C10_14  and  N3_15 
REMARK       I    between atoms: N3_15  and  C11_16 
REMARK       I    between atoms: C11_16  and  N4_18 
REMARK    5  A    between atoms: C22_29  and  O4_30 
ROOT
HETATM    1  C7  UNL     1      28.418   7.004  48.001  1.00  0.00     0.073 A 
HETATM    2  C8  UNL     1      28.690   5.635  48.108  1.00  0.00     0.039 A 
HETATM    3  C9  UNL     1      27.740   4.745  48.588  1.00  0.00     0.032 A 
HETATM    4  C10 UNL     1      26.509   5.267  48.959  1.00  0.00     0.036 A 
HETATM    5  C19 UNL     1      26.227   6.593  48.863  1.00  0.00     0.032 A 
HETATM    6  C20 UNL     1      27.178   7.468  48.385  1.00  0.00     0.039 A 
ENDROOT
BRANCH   1   7
HETATM    7  O2  UNL     1      29.525   7.663  47.499  1.00  0.00    -0.308 OA
BRANCH   7   8
HETATM    8  C6  UNL     1      30.403   8.269  48.631  1.00  0.00     0.228 A 
HETATM    9  C4  UNL     1      31.194   9.239  47.900  1.00  0.00     0.100 A 
HETATM   10  C3  UNL     1      32.298   8.975  47.010  1.00  0.00     0.072 C 
HETATM   11  N1  UNL     1      30.704  10.408  48.218  1.00  0.00    -0.241 NA
HETATM   12  C2  UNL     1      32.826   7.777  47.345  1.00  0.00     0.103 C 
HETATM   13  C22 UNL     1      32.245   6.865  48.359  1.00  0.00     0.102 C 
HETATM   14  C21 UNL     1      31.086   7.073  49.030  1.00  0.00     0.082 C 
HETATM   15  C5  UNL     1      29.632  10.279  49.144  1.00  0.00     0.231 A 
HETATM   16  N2  UNL     1      29.471   8.986  49.389  1.00  0.00    -0.234 NA
BRANCH  12  17
HETATM   17  O1  UNL     1      33.953   7.282  46.687  1.00  0.00    -0.353 OA
HETATM   18  C1  UNL     1      33.839   6.895  45.329  1.00  0.00     0.210 C 
ENDBRANCH  12  17
BRANCH  13  19
HETATM   19  O4  UNL     1      32.930   5.676  48.674  1.00  0.00    -0.353 OA
HETATM   20  C23 UNL     1      32.510   4.444  48.110  1.00  0.00     0.210 C 
ENDBRANCH  13  19
ENDBRANCH   7   8
ENDBRANCH   1   7
BRANCH   4  21
HETATM   21  N3  UNL     1      25.489   4.411  49.459  1.00  0.00    -0.309 N 
HETATM   22  C11 UNL     1      25.968   3.391  50.318  1.00  0.00     0.323 C 
HETATM   23  O3  UNL     1      27.240   3.431  50.485  1.00  0.00    -0.247 OA
HETATM   24  N4  UNL     1      25.465   2.283  51.092  1.00  0.00    -0.326 N 
HETATM   25  C12 UNL     1      26.516   1.571  51.794  1.00  0.00     0.155 C 
HETATM   26  C17 UNL     1      24.221   1.595  51.441  1.00  0.00     0.092 C 
HETATM   27  C13 UNL     1      26.444   2.048  53.222  1.00  0.00    -0.011 C 
HETATM   28  C14 UNL     1      25.215   2.037  53.700  1.00  0.00    -0.023 C 
HETATM   29  C15 UNL     1      24.053   1.608  52.920  1.00  0.00     0.026 C 
HETATM   30  C16 UNL     1      23.639   0.242  53.467  1.00  0.00     0.016 C 
HETATM   31  C18 UNL     1      23.093   2.271  50.707  1.00  0.00     0.033 C 
HETATM   32  H8  UNL     1      24.459   4.292  49.390  1.00  0.00     0.170 HD
ENDBRANCH   4  21
TORSDOF 5
ENDMDL
MODEL 2
REMARK VINA RESULT:      -8.5      3.825      9.891
REMARK  5 active torsions:
REMARK  status: ('A' for Active; 'I' for Inactive)
REMARK    1  A    between atoms: O1_2  and  C2_3 
REMARK    2  A    between atoms: C6_9  and  O2_10 
REMARK    3  A    between atoms: O2_10  and  C7_11 
REMARK    4  A    between atoms: C10_14  and  N3_15 
REMARK       I    between atoms: N3_15  and  C11_16 
REMARK       I    between atoms: C11_16  and  N4_18 
REMARK    5  A    between atoms: C22_29  and  O4_30 
ROOT
HETATM    1  C7  UNL     1      25.103   2.474  50.690  1.00  0.00     0.073 A 
HETATM    2  C8  UNL     1      26.420   2.858  50.413  1.00  0.00     0.039 A 
HETATM    3  C9  UNL     1      26.698   3.969  49.630  1.00  0.00     0.032 A 
HETATM    4  C10 UNL     1      25.619   4.684  49.131  1.00  0.00     0.036 A 
HETATM    5  C19 UNL     1      24.333   4.326  49.389  1.00  0.00     0.032 A 
HETATM    6  C20 UNL     1      24.068   3.221  50.169  1.00  0.00     0.039 A 
ENDROOT
BRANCH   1   7
HETATM    7  O2  UNL     1      25.102   1.344  51.487  1.00  0.00    -0.308 OA
BRANCH   7   8
HETATM    8  C6  UNL     1      24.829   1.686  52.979  1.00  0.00     0.228 A 
HETATM    9  C4  UNL     1      25.025   0.399  53.615  1.00  0.00     0.100 A 
HETATM   10  C3  UNL     1      24.138  -0.738  53.581  1.00  0.00     0.072 C 
HETATM   11  N1  UNL     1      26.173   0.480  54.235  1.00  0.00    -0.241 NA
HETATM   12  C2  UNL     1      22.890  -0.285  53.327  1.00  0.00     0.103 C 
HETATM   13  C22 UNL     1      22.566   1.125  53.002  1.00  0.00     0.102 C 
HETATM   14  C21 UNL     1      23.470   2.123  52.850  1.00  0.00     0.082 C 
HETATM   15  C5  UNL     1      26.756   1.766  54.065  1.00  0.00     0.231 A 
HETATM   16  N2  UNL     1      25.929   2.483  53.316  1.00  0.00    -0.234 NA
BRANCH  12  17
HETATM   17  O1  UNL     1      21.803  -1.161  53.292  1.00  0.00    -0.353 OA
HETATM   18  C1  UNL     1      21.240  -1.603  54.514  1.00  0.00     0.210 C 
ENDBRANCH  12  17
BRANCH  13  19
HETATM   19  O4  UNL     1      21.216   1.489  52.830  1.00  0.00    -0.353 OA
HETATM   20  C23 UNL     1      20.782   2.046  51.600  1.00  0.00     0.210 C 
ENDBRANCH  13  19
ENDBRANCH   7   8
ENDBRANCH   1   7
BRANCH   4  21
HETATM   21  N3  UNL     1      25.833   5.832  48.320  1.00  0.00    -0.309 N 
HETATM   22  C11 UNL     1      25.938   7.039  49.054  1.00  0.00     0.323 C 
HETATM   23  O3  UNL     1      25.819   6.870  50.320  1.00  0.00    -0.247 OA
HETATM   24  N4  UNL     1      26.144   8.449  48.823  1.00  0.00    -0.326 N 
HETATM   25  C12 UNL     1      26.144   9.220  50.052  1.00  0.00     0.155 C 
HETATM   26  C17 UNL     1      26.364   9.418  47.749  1.00  0.00     0.092 C 
HETATM   27  C13 UNL     1      27.596   9.494  50.355  1.00  0.00    -0.011 C 
HETATM   28  C14 UNL     1      28.260   9.935  49.305  1.00  0.00    -0.023 C 
HETATM   29  C15 UNL     1      27.647  10.133  47.991  1.00  0.00     0.026 C 
HETATM   30  C16 UNL     1      27.513  11.643  47.794  1.00  0.00     0.016 C 
HETATM   31  C18 UNL     1      26.334   8.676  46.439  1.00  0.00     0.033 C 
HETATM   32  H8  UNL     1      25.942   6.075  47.315  1.00  0.00     0.170 HD
ENDBRANCH   4  21
TORSDOF 5
ENDMDL
MODEL 3
REMARK VINA RESULT:      -8.4      3.877     10.970
REMARK  5 active torsions:
REMARK  status: ('A' for Active; 'I' for Inactive)
REMARK    1  A    between atoms: O1_2  and  C2_3 
REMARK    2  A    between atoms: C6_9  and  O2_10 
REMARK    3  A    between atoms: O2_10  and  C7_11 
REMARK    4  A    between atoms: C10_14  and  N3_15 
REMARK       I    between atoms: N3_15  and  C11_16 
REMARK       I    between atoms: C11_16  and  N4_18 
REMARK    5  A    between atoms: C22_29  and  O4_30 
ROOT
HETATM    1  C7  UNL     1      22.997   1.564  50.953  1.00  0.00     0.073 A 
HETATM    2  C8  UNL     1      22.808   2.161  49.701  1.00  0.00     0.039 A 
HETATM    3  C9  UNL     1      23.764   3.003  49.151  1.00  0.00     0.032 A 
HETATM    4  C10 UNL     1      24.916   3.229  49.892  1.00  0.00     0.036 A 
HETATM    5  C19 UNL     1      25.116   2.658  51.109  1.00  0.00     0.032 A 
HETATM    6  C20 UNL     1      24.160   1.823  51.645  1.00  0.00     0.039 A 
ENDROOT
BRANCH   1   7
HETATM    7  O2  UNL     1      21.903   0.778  51.266  1.00  0.00    -0.308 OA
BRANCH   7   8
HETATM    8  C6  UNL     1      21.370   1.071  52.698  1.00  0.00     0.228 A 
HETATM    9  C4  UNL     1      20.340   0.060  52.839  1.00  0.00     0.100 A 
HETATM   10  C3  UNL     1      19.038   0.048  52.219  1.00  0.00     0.072 C 
HETATM   11  N1  UNL     1      20.832  -0.838  53.651  1.00  0.00    -0.241 NA
HETATM   12  C2  UNL     1      18.708   1.323  51.918  1.00  0.00     0.103 C 
HETATM   13  C22 UNL     1      19.619   2.480  52.081  1.00  0.00     0.102 C 
HETATM   14  C21 UNL     1      20.911   2.412  52.483  1.00  0.00     0.082 C 
HETATM   15  C5  UNL     1      22.138  -0.476  54.082  1.00  0.00     0.231 A 
HETATM   16  N2  UNL     1      22.442   0.679  53.508  1.00  0.00    -0.234 NA
BRANCH  12  17
HETATM   17  O1  UNL     1      17.466   1.628  51.355  1.00  0.00    -0.353 OA
HETATM   18  C1  UNL     1      17.121   1.058  50.105  1.00  0.00     0.210 C 
ENDBRANCH  12  17
BRANCH  13  19
HETATM   19  O4  UNL     1      19.132   3.773  51.802  1.00  0.00    -0.353 OA
HETATM   20  C23 UNL     1      19.522   4.436  50.610  1.00  0.00     0.210 C 
ENDBRANCH  13  19
ENDBRANCH   7   8
ENDBRANCH   1   7
BRANCH   4  21
HETATM   21  N3  UNL     1      25.936   4.081  49.387  1.00  0.00    -0.309 N 
HETATM   22  C11 UNL     1      25.529   5.428  49.225  1.00  0.00     0.323 C 
HETATM   23  O3  UNL     1      24.308   5.629  49.567  1.00  0.00    -0.247 OA
HETATM   24  N4  UNL     1      26.069   6.691  48.784  1.00  0.00    -0.326 N 
HETATM   25  C12 UNL     1      25.096   7.766  48.851  1.00  0.00     0.155 C 
HETATM   26  C17 UNL     1      27.297   7.303  48.275  1.00  0.00     0.092 C 
HETATM   27  C13 UNL     1      25.437   8.542  50.098  1.00  0.00    -0.011 C 
HETATM   28  C14 UNL     1      26.723   8.817  50.189  1.00  0.00    -0.023 C 
HETATM   29  C15 UNL     1      27.706   8.408  49.184  1.00  0.00     0.026 C 
HETATM   30  C16 UNL     1      28.100   9.671  48.418  1.00  0.00     0.016 C 
HETATM   31  C18 UNL     1      28.337   6.221  48.148  1.00  0.00     0.033 C 
HETATM   32  H8  UNL     1      26.929   4.024  49.085  1.00  0.00     0.170 HD
ENDBRANCH   4  21
TORSDOF 5
ENDMDL
MODEL 4
REMARK VINA RESULT:      -8.4      6.592     10.216
REMARK  5 active torsions:
REMARK  status: ('A' for Active; 'I' for Inactive)
REMARK    1  A    between atoms: O1_2  and  C2_3 
REMARK    2  A    between atoms: C6_9  and  O2_10 
REMARK    3  A    between atoms: O2_10  and  C7_11 
REMARK    4  A    between atoms: C10_14  and  N3_15 
REMARK       I    between atoms: N3_15  and  C11_16 
REMARK       I    between atoms: C11_16  and  N4_18 
REMARK    5  A    between atoms: C22_29  and  O4_30 
ROOT
HETATM    1  C7  UNL     1      22.004   4.126  49.978  1.00  0.00     0.073 A 
HETATM    2  C8  UNL     1      22.211   4.517  51.305  1.00  0.00     0.039 A 
HETATM    3  C9  UNL     1      23.403   4.244  51.961  1.00  0.00     0.032 A 
HETATM    4  C10 UNL     1      24.382   3.566  51.248  1.00  0.00     0.036 A 
HETATM    5  C19 UNL     1      24.199   3.178  49.958  1.00  0.00     0.032 A 
HETATM    6  C20 UNL     1      23.011   3.456  49.316  1.00  0.00     0.039 A 
ENDROOT
BRANCH   1   7
HETATM    7  O2  UNL     1      20.744   4.517  49.565  1.00  0.00    -0.308 OA
BRANCH   7   8
HETATM    8  C6  UNL     1      19.909   3.317  49.034  1.00  0.00     0.228 A 
HETATM    9  C4  UNL     1      18.604   3.923  48.861  1.00  0.00     0.100 A 
HETATM   10  C3  UNL     1      17.664   4.285  49.894  1.00  0.00     0.072 C 
HETATM   11  N1  UNL     1      18.447   4.070  47.573  1.00  0.00    -0.241 NA
HETATM   12  C2  UNL     1      17.926   3.525  50.980  1.00  0.00     0.103 C 
HETATM   13  C22 UNL     1      19.080   2.601  51.092  1.00  0.00     0.102 C 
HETATM   14  C21 UNL     1      20.053   2.445  50.163  1.00  0.00     0.082 C 
HETATM   15  C5  UNL     1      19.576   3.576  46.861  1.00  0.00     0.231 A 
HETATM   16  N2  UNL     1      20.441   3.117  47.756  1.00  0.00    -0.234 NA
BRANCH  12  17
HETATM   17  O1  UNL     1      17.133   3.615  52.127  1.00  0.00    -0.353 OA
HETATM   18  C1  UNL     1      15.783   4.023  51.996  1.00  0.00     0.210 C 
ENDBRANCH  12  17
BRANCH  13  19
HETATM   19  O4  UNL     1      19.203   1.805  52.248  1.00  0.00    -0.353 OA
HETATM   20  C23 UNL     1      19.129   0.392  52.149  1.00  0.00     0.210 C 
ENDBRANCH  13  19
ENDBRANCH   7   8
ENDBRANCH   1   7
BRANCH   4  21
HETATM   21  N3  UNL     1      25.627   3.254  51.861  1.00  0.00    -0.309 N 
HETATM   22  C11 UNL     1      25.635   2.012  52.540  1.00  0.00     0.323 C 
HETATM   23  O3  UNL     1      24.510   1.396  52.477  1.00  0.00    -0.247 OA
HETATM   24  N4  UNL     1      26.536   1.188  53.309  1.00  0.00    -0.326 N 
HETATM   25  C12 UNL     1      25.913  -0.040  53.767  1.00  0.00     0.155 C 
HETATM   26  C17 UNL     1      27.910   1.143  53.810  1.00  0.00     0.092 C 
HETATM   27  C13 UNL     1      26.408  -1.116  52.834  1.00  0.00    -0.011 C 
HETATM   28  C14 UNL     1      27.713  -1.071  52.653  1.00  0.00    -0.023 C 
HETATM   29  C15 UNL     1      28.580  -0.081  53.293  1.00  0.00     0.026 C 
HETATM   30  C16 UNL     1      29.357  -0.819  54.384  1.00  0.00     0.016 C 
HETATM   31  C18 UNL     1      28.597   2.418  53.395  1.00  0.00     0.033 C 
HETATM   32  H8  UNL     1      26.573   3.668  51.971  1.00  0.00     0.170 HD
ENDBRANCH   4  21
TORSDOF 5
ENDMDL
MODEL 5
REMARK VINA RESULT:      -8.4      1.864      2.834
REMARK  5 active torsions:
REMARK  status: ('A' for Active; 'I' for Inactive)
REMARK    1  A    between atoms: O1_2  and  C2_3 
REMARK    2  A    between atoms: C6_9  and  O2_10 
REMARK    3  A    between atoms: O2_10  and  C7_11 
REMARK    4  A    between atoms: C10_14  and  N3_15 
REMARK       I    between atoms: N3_15  and  C11_16 
REMARK       I    between atoms: C11_16  and  N4_18 
REMARK    5  A    between atoms: C22_29  and  O4_30 
ROOT
HETATM    1  C7  UNL     1      27.698   6.242  48.146  1.00  0.00     0.073 A 
HETATM    2  C8  UNL     1      26.535   6.886  48.582  1.00  0.00     0.039 A 
HETATM    3  C9  UNL     1      25.591   6.226  49.356  1.00  0.00     0.032 A 
HETATM    4  C10 UNL     1      25.848   4.901  49.681  1.00  0.00     0.036 A 
HETATM    5  C19 UNL     1      26.972   4.259  49.267  1.00  0.00     0.032 A 
HETATM    6  C20 UNL     1      27.902   4.925  48.498  1.00  0.00     0.039 A 
ENDROOT
BRANCH   1   7
HETATM    7  O2  UNL     1      28.464   7.116  47.397  1.00  0.00    -0.308 OA
BRANCH   7   8
HETATM    8  C6  UNL     1      29.588   7.777  48.246  1.00  0.00     0.228 A 
HETATM    9  C4  UNL     1      30.113   8.761  47.320  1.00  0.00     0.100 A 
HETATM   10  C3  UNL     1      30.949   8.520  46.170  1.00  0.00     0.072 C 
HETATM   11  N1  UNL     1      29.679   9.917  47.746  1.00  0.00    -0.241 NA
HETATM   12  C2  UNL     1      31.596   7.349  46.363  1.00  0.00     0.103 C 
HETATM   13  C22 UNL     1      31.346   6.437  47.505  1.00  0.00     0.102 C 
HETATM   14  C21 UNL     1      30.401   6.616  48.459  1.00  0.00     0.082 C 
HETATM   15  C5  UNL     1      28.900   9.768  48.927  1.00  0.00     0.231 A 
HETATM   16  N2  UNL     1      28.864   8.475  49.219  1.00  0.00    -0.234 NA
BRANCH  12  17
HETATM   17  O1  UNL     1      32.526   6.882  45.431  1.00  0.00    -0.353 OA
HETATM   18  C1  UNL     1      33.801   7.497  45.368  1.00  0.00     0.210 C 
ENDBRANCH  12  17
BRANCH  13  19
HETATM   19  O4  UNL     1      32.139   5.280  47.636  1.00  0.00    -0.353 OA
HETATM   20  C23 UNL     1      31.670   4.038  47.138  1.00  0.00     0.210 C 
ENDBRANCH  13  19
ENDBRANCH   7   8
ENDBRANCH   1   7
BRANCH   4  21
HETATM   21  N3  UNL     1      24.922   4.166  50.472  1.00  0.00    -0.309 N 
HETATM   22  C11 UNL     1      23.710   3.865  49.804  1.00  0.00     0.323 C 
HETATM   23  O3  UNL     1      23.673   4.315  48.603  1.00  0.00    -0.247 OA
HETATM   24  N4  UNL     1      22.460   3.190  50.052  1.00  0.00    -0.326 N 
HETATM   25  C12 UNL     1      21.568   3.232  48.908  1.00  0.00     0.155 C 
HETATM   26  C17 UNL     1      21.740   2.445  51.085  1.00  0.00     0.092 C 
HETATM   27  C13 UNL     1      21.680   1.876  48.259  1.00  0.00    -0.011 C 
HETATM   28  C14 UNL     1      21.586   0.888  49.127  1.00  0.00    -0.023 C 
HETATM   29  C15 UNL     1      21.393   1.095  50.563  1.00  0.00     0.026 C 
HETATM   30  C16 UNL     1      19.946   0.711  50.870  1.00  0.00     0.016 C 
HETATM   31  C18 UNL     1      22.606   2.402  52.317  1.00  0.00     0.033 C 
HETATM   32  H8  UNL     1      24.852   3.763  51.428  1.00  0.00     0.170 HD
ENDBRANCH   4  21
TORSDOF 5
ENDMDL
MODEL 6
REMARK VINA RESULT:      -8.3      6.629      9.884
REMARK  5 active torsions:
REMARK  status: ('A' for Active; 'I' for Inactive)
REMARK    1  A    between atoms: O1_2  and  C2_3 
REMARK    2  A    between atoms: C6_9  and  O2_10 
REMARK    3  A    between atoms: O2_10  and  C7_11 
REMARK    4  A    between atoms: C10_14  and  N3_15 
REMARK       I    between atoms: N3_15  and  C11_16 
REMARK       I    between atoms: C11_16  and  N4_18 
REMARK    5  A    between atoms: C22_29  and  O4_30 
ROOT
HETATM    1  C7  UNL     1      22.866   0.988  51.975  1.00  0.00     0.073 A 
HETATM    2  C8  UNL     1      22.342   1.361  50.732  1.00  0.00     0.039 A 
HETATM    3  C9  UNL     1      21.044   1.835  50.608  1.00  0.00     0.032 A 
HETATM    4  C10 UNL     1      20.285   1.925  51.766  1.00  0.00     0.036 A 
HETATM    5  C19 UNL     1      20.777   1.568  52.982  1.00  0.00     0.032 A 
HETATM    6  C20 UNL     1      22.068   1.098  53.094  1.00  0.00     0.039 A 
ENDROOT
BRANCH   1   7
HETATM    7  O2  UNL     1      24.169   0.554  51.822  1.00  0.00    -0.308 OA
BRANCH   7   8
HETATM    8  C6  UNL     1      25.182   1.498  52.532  1.00  0.00     0.228 A 
HETATM    9  C4  UNL     1      26.411   1.193  51.827  1.00  0.00     0.100 A 
HETATM   10  C3  UNL     1      27.225   0.009  51.961  1.00  0.00     0.072 C 
HETATM   11  N1  UNL     1      26.636   2.215  51.045  1.00  0.00    -0.241 NA
HETATM   12  C2  UNL     1      26.985  -0.525  53.179  1.00  0.00     0.103 C 
HETATM   13  C22 UNL     1      25.949  -0.029  54.117  1.00  0.00     0.102 C 
HETATM   14  C21 UNL     1      25.069   0.968  53.859  1.00  0.00     0.082 C 
HETATM   15  C5  UNL     1      25.629   3.208  51.199  1.00  0.00     0.231 A 
HETATM   16  N2  UNL     1      24.768   2.765  52.105  1.00  0.00    -0.234 NA
BRANCH  12  17
HETATM   17  O1  UNL     1      27.679  -1.656  53.615  1.00  0.00    -0.353 OA
HETATM   18  C1  UNL     1      28.969  -1.912  53.090  1.00  0.00     0.210 C 
ENDBRANCH  12  17
BRANCH  13  19
HETATM   19  O4  UNL     1      25.846  -0.623  55.390  1.00  0.00    -0.353 OA
HETATM   20  C23 UNL     1      24.642  -1.265  55.778  1.00  0.00     0.210 C 
ENDBRANCH  13  19
ENDBRANCH   7   8
ENDBRANCH   1   7
BRANCH   4  21
HETATM   21  N3  UNL     1      18.947   2.403  51.711  1.00  0.00    -0.309 N 
HETATM   22  C11 UNL     1      17.983   1.383  51.519  1.00  0.00     0.323 C 
HETATM   23  O3  UNL     1      18.499   0.212  51.431  1.00  0.00    -0.247 OA
HETATM   24  N4  UNL     1      16.553   1.236  51.387  1.00  0.00    -0.326 N 
HETATM   25  C12 UNL     1      16.151  -0.144  51.193  1.00  0.00     0.155 C 
HETATM   26  C17 UNL     1      15.313   2.013  51.382  1.00  0.00     0.092 C 
HETATM   27  C13 UNL     1      15.645  -0.609  52.536  1.00  0.00    -0.011 C 
HETATM   28  C14 UNL     1      14.807   0.246  53.086  1.00  0.00    -0.023 C 
HETATM   29  C15 UNL     1      14.415   1.508  52.457  1.00  0.00     0.026 C 
HETATM   30  C16 UNL     1      12.977   1.327  51.971  1.00  0.00     0.016 C 
HETATM   31  C18 UNL     1      15.673   3.466  51.542  1.00  0.00     0.033 C 
HETATM   32  H8  UNL     1      18.432   3.304  51.768  1.00  0.00     0.170 HD
ENDBRANCH   4  21
TORSDOF 5
ENDMDL
MODEL 7
REMARK VINA RESULT:      -8.2      2.045      3.085
REMARK  5 active torsions:
REMARK  status: ('A' for Active; 'I' for Inactive)
REMARK    1  A    between atoms: O1_2  and  C2_3 
REMARK    2  A    between atoms: C6_9  and  O2_10 
REMARK    3  A    between atoms: O2_10  and  C7_11 
REMARK    4  A    between atoms: C10_14  and  N3_15 
REMARK       I    between atoms: N3_15  and  C11_16 
REMARK       I    between atoms: C11_16  and  N4_18 
REMARK    5  A    between atoms: C22_29  and  O4_30 
ROOT
HETATM    1  C7  UNL     1      27.596   8.327  48.496  1.00  0.00     0.073 A 
HETATM    2  C8  UNL     1      27.845   7.032  48.028  1.00  0.00     0.039 A 
HETATM    3  C9  UNL     1      27.193   5.931  48.565  1.00  0.00     0.032 A 
HETATM    4  C10 UNL     1      26.282   6.166  49.585  1.00  0.00     0.036 A 
HETATM    5  C19 UNL     1      26.027   7.417  50.053  1.00  0.00     0.032 A 
HETATM    6  C20 UNL     1      26.681   8.503  49.512  1.00  0.00     0.039 A 
ENDROOT
BRANCH   1   7
HETATM    7  O2  UNL     1      28.370   9.234  47.797  1.00  0.00    -0.308 OA
BRANCH   7   8
HETATM    8  C6  UNL     1      29.041  10.273  48.741  1.00  0.00     0.228 A 
HETATM    9  C4  UNL     1      29.788  11.083  47.801  1.00  0.00     0.100 A 
HETATM   10  C3  UNL     1      31.008  10.728  47.116  1.00  0.00     0.072 C 
HETATM   11  N1  UNL     1      29.134  12.210  47.703  1.00  0.00    -0.241 NA
HETATM   12  C2  UNL     1      31.631   9.776  47.844  1.00  0.00     0.103 C 
HETATM   13  C22 UNL     1      31.053   9.136  49.049  1.00  0.00     0.102 C 
HETATM   14  C21 UNL     1      29.811   9.364  49.540  1.00  0.00     0.082 C 
HETATM   15  C5  UNL     1      27.988  12.210  48.547  1.00  0.00     0.231 A 
HETATM   16  N2  UNL     1      27.953  11.041  49.172  1.00  0.00    -0.234 NA
BRANCH  12  17
HETATM   17  O1  UNL     1      32.875   9.275  47.453  1.00  0.00    -0.353 OA
HETATM   18  C1  UNL     1      32.957   8.481  46.283  1.00  0.00     0.210 C 
ENDBRANCH  12  17
BRANCH  13  19
HETATM   19  O4  UNL     1      31.834   8.208  49.767  1.00  0.00    -0.353 OA
HETATM   20  C23 UNL     1      31.704   6.820  49.507  1.00  0.00     0.210 C 
ENDBRANCH  13  19
ENDBRANCH   7   8
ENDBRANCH   1   7
BRANCH   4  21
HETATM   21  N3  UNL     1      25.578   5.083  50.181  1.00  0.00    -0.309 N 
HETATM   22  C11 UNL     1      24.301   4.850  49.615  1.00  0.00     0.323 C 
HETATM   23  O3  UNL     1      24.016   5.664  48.664  1.00  0.00    -0.247 OA
HETATM   24  N4  UNL     1      23.179   3.957  49.771  1.00  0.00    -0.326 N 
HETATM   25  C12 UNL     1      22.103   4.248  48.842  1.00  0.00     0.155 C 
HETATM   26  C17 UNL     1      22.720   2.813  50.560  1.00  0.00     0.092 C 
HETATM   27  C13 UNL     1      22.224   3.217  47.748  1.00  0.00    -0.011 C 
HETATM   28  C14 UNL     1      22.371   1.993  48.218  1.00  0.00    -0.023 C 
HETATM   29  C15 UNL     1      22.412   1.679  49.647  1.00  0.00     0.026 C 
HETATM   30  C16 UNL     1      21.082   1.009  49.986  1.00  0.00     0.016 C 
HETATM   31  C18 UNL     1      23.787   2.489  51.573  1.00  0.00     0.033 C 
HETATM   32  H8  UNL     1      25.712   4.379  50.934  1.00  0.00     0.170 HD
ENDBRANCH   4  21
TORSDOF 5
ENDMDL
MODEL 8
REMARK VINA RESULT:      -8.1      1.893      2.541
REMARK  5 active torsions:
REMARK  status: ('A' for Active; 'I' for Inactive)
REMARK    1  A    between atoms: O1_2  and  C2_3 
REMARK    2  A    between atoms: C6_9  and  O2_10 
REMARK    3  A    between atoms: O2_10  and  C7_11 
REMARK    4  A    between atoms: C10_14  and  N3_15 
REMARK       I    between atoms: N3_15  and  C11_16 
REMARK       I    between atoms: C11_16  and  N4_18 
REMARK    5  A    between atoms: C22_29  and  O4_30 
ROOT
HETATM    1  C7  UNL     1      28.193   6.827  47.945  1.00  0.00     0.073 A 
HETATM    2  C8  UNL     1      26.834   7.163  47.960  1.00  0.00     0.039 A 
HETATM    3  C9  UNL     1      25.873   6.269  48.409  1.00  0.00     0.032 A 
HETATM    4  C10 UNL     1      26.313   5.026  48.843  1.00  0.00     0.036 A 
HETATM    5  C19 UNL     1      27.628   4.681  48.835  1.00  0.00     0.032 A 
HETATM    6  C20 UNL     1      28.574   5.578  48.387  1.00  0.00     0.039 A 
ENDROOT
BRANCH   1   7
HETATM    7  O2  UNL     1      28.932   7.887  47.456  1.00  0.00    -0.308 OA
BRANCH   7   8
HETATM    8  C6  UNL     1      29.633   8.681  48.596  1.00  0.00     0.228 A 
HETATM    9  C4  UNL     1      30.084   9.866  47.894  1.00  0.00     0.100 A 
HETATM   10  C3  UNL     1      31.188   9.968  46.971  1.00  0.00     0.072 C 
HETATM   11  N1  UNL     1      29.287  10.829  48.273  1.00  0.00    -0.241 NA
HETATM   12  C2  UNL     1      32.051   8.964  47.242  1.00  0.00     0.103 C 
HETATM   13  C22 UNL     1      31.793   7.886  48.226  1.00  0.00     0.102 C 
HETATM   14  C21 UNL     1      30.646   7.722  48.929  1.00  0.00     0.082 C 
HETATM   15  C5  UNL     1      28.328  10.359  49.213  1.00  0.00     0.231 A 
HETATM   16  N2  UNL     1      28.557   9.067  49.404  1.00  0.00    -0.234 NA
BRANCH  12  17
HETATM   17  O1  UNL     1      33.253   8.843  46.540  1.00  0.00    -0.353 OA
HETATM   18  C1  UNL     1      34.322   9.717  46.856  1.00  0.00     0.210 C 
ENDBRANCH  12  17
BRANCH  13  19
HETATM   19  O4  UNL     1      32.804   6.937  48.474  1.00  0.00    -0.353 OA
HETATM   20  C23 UNL     1      32.460   5.585  48.732  1.00  0.00     0.210 C 
ENDBRANCH  13  19
ENDBRANCH   7   8
ENDBRANCH   1   7
BRANCH   4  21
HETATM   21  N3  UNL     1      25.381   4.061  49.315  1.00  0.00    -0.309 N 
HETATM   22  C11 UNL     1      24.583   4.516  50.393  1.00  0.00     0.323 C 
HETATM   23  O3  UNL     1      24.852   5.721  50.745  1.00  0.00    -0.247 OA
HETATM   24  N4  UNL     1      23.527   4.040  51.253  1.00  0.00    -0.326 N 
HETATM   25  C12 UNL     1      23.111   5.033  52.225  1.00  0.00     0.155 C 
HETATM   26  C17 UNL     1      22.688   2.868  51.503  1.00  0.00     0.092 C 
HETATM   27  C13 UNL     1      21.828   5.614  51.685  1.00  0.00    -0.011 C 
HETATM   28  C14 UNL     1      20.977   4.687  51.291  1.00  0.00    -0.023 C 
HETATM   29  C15 UNL     1      21.256   3.252  51.371  1.00  0.00     0.026 C 
HETATM   30  C16 UNL     1      20.402   2.704  52.514  1.00  0.00     0.016 C 
HETATM   31  C18 UNL     1      23.104   1.784  50.543  1.00  0.00     0.033 C 
HETATM   32  H8  UNL     1      25.089   3.085  49.110  1.00  0.00     0.170 HD
ENDBRANCH   4  21
TORSDOF 5
ENDMDL
MODEL 9
REMARK VINA RESULT:      -8.1      3.437     10.549
REMARK  5 active torsions:
REMARK  status: ('A' for Active; 'I' for Inactive)
REMARK    1  A    between atoms: O1_2  and  C2_3 
REMARK    2  A    between atoms: C6_9  and  O2_10 
REMARK    3  A    between atoms: O2_10  and  C7_11 
REMARK    4  A    between atoms: C10_14  and  N3_15 
REMARK       I    between atoms: N3_15  and  C11_16 
REMARK       I    between atoms: C11_16  and  N4_18 
REMARK    5  A    between atoms: C22_29  and  O4_30 
ROOT
HETATM    1  C7  UNL     1      23.882   3.778  50.449  1.00  0.00     0.073 A 
HETATM    2  C8  UNL     1      25.048   3.367  49.793  1.00  0.00     0.039 A 
HETATM    3  C9  UNL     1      26.052   4.268  49.473  1.00  0.00     0.032 A 
HETATM    4  C10 UNL     1      25.855   5.595  49.828  1.00  0.00     0.036 A 
HETATM    5  C19 UNL     1      24.729   6.013  50.465  1.00  0.00     0.032 A 
HETATM    6  C20 UNL     1      23.738   5.109  50.779  1.00  0.00     0.039 A 
ENDROOT
BRANCH   1   7
HETATM    7  O2  UNL     1      23.050   2.692  50.649  1.00  0.00    -0.308 OA
BRANCH   7   8
HETATM    8  C6  UNL     1      22.800   2.424  52.161  1.00  0.00     0.228 A 
HETATM    9  C4  UNL     1      22.678   0.980  52.186  1.00  0.00     0.100 A 
HETATM   10  C3  UNL     1      21.560   0.189  51.730  1.00  0.00     0.072 C 
HETATM   11  N1  UNL     1      23.788   0.538  52.713  1.00  0.00    -0.241 NA
HETATM   12  C2  UNL     1      20.457   0.969  51.763  1.00  0.00     0.103 C 
HETATM   13  C22 UNL     1      20.470   2.417  52.079  1.00  0.00     0.102 C 
HETATM   14  C21 UNL     1      21.579   3.161  52.307  1.00  0.00     0.082 C 
HETATM   15  C5  UNL     1      24.651   1.613  53.065  1.00  0.00     0.231 A 
HETATM   16  N2  UNL     1      24.036   2.741  52.736  1.00  0.00    -0.234 NA
BRANCH  12  17
HETATM   17  O1  UNL     1      19.204   0.451  51.428  1.00  0.00    -0.353 OA
HETATM   18  C1  UNL     1      18.546  -0.401  52.348  1.00  0.00     0.210 C 
ENDBRANCH  12  17
BRANCH  13  19
HETATM   19  O4  UNL     1      19.244   3.106  52.156  1.00  0.00    -0.353 OA
HETATM   20  C23 UNL     1      18.843   3.962  51.099  1.00  0.00     0.210 C 
ENDBRANCH  13  19
ENDBRANCH   7   8
ENDBRANCH   1   7
BRANCH   4  21
HETATM   21  N3  UNL     1      26.844   6.572  49.529  1.00  0.00    -0.309 N 
HETATM   22  C11 UNL     1      26.588   7.302  48.343  1.00  0.00     0.323 C 
HETATM   23  O3  UNL     1      25.505   6.944  47.756  1.00  0.00    -0.247 OA
HETATM   24  N4  UNL     1      27.178   8.357  47.556  1.00  0.00    -0.326 N 
HETATM   25  C12 UNL     1      26.396   8.675  46.376  1.00  0.00     0.155 C 
HETATM   26  C17 UNL     1      28.328   9.262  47.522  1.00  0.00     0.092 C 
HETATM   27  C13 UNL     1      25.641   9.935  46.719  1.00  0.00    -0.011 C 
HETATM   28  C14 UNL     1      26.411  10.856  47.262  1.00  0.00    -0.023 C 
HETATM   29  C15 UNL     1      27.843  10.669  47.502  1.00  0.00     0.026 C 
HETATM   30  C16 UNL     1      28.576  11.518  46.463  1.00  0.00     0.016 C 
HETATM   31  C18 UNL     1      29.200   8.950  48.709  1.00  0.00     0.033 C 
HETATM   32  H8  UNL     1      27.735   6.933  49.924  1.00  0.00     0.170 HD
ENDBRANCH   4  21
TORSDOF 5
ENDMDL
