MODEL 1
REMARK VINA RESULT:      -8.6      0.000      0.000
REMARK  3 active torsions:
REMARK  status: ('A' for Active; 'I' for Inactive)
REMARK    1  A    between atoms: C3_3  and  O1_4 
REMARK    2  A    between atoms: O1_4  and  C4_5 
REMARK    3  A    between atoms: C17_22  and  O2_23 
ROOT
HETATM    1  C1  UNL     1      28.503   5.566  48.183  1.00  0.00     0.014 C 
HETATM    2  C2  UNL     1      27.589   4.979  48.719  1.00  0.00    -0.091 C 
HETATM    3  C3  UNL     1      26.490   4.258  49.395  1.00  0.00     0.268 C 
ENDROOT
BRANCH   3   4
HETATM    4  O1  UNL     1      27.047   3.241  50.181  1.00  0.00    -0.337 OA
BRANCH   4   5
HETATM    5  C4  UNL     1      26.371   2.567  51.188  1.00  0.00     0.103 A 
HETATM    6  C5  UNL     1      25.092   2.289  50.886  1.00  0.00     0.051 A 
HETATM    7  C6  UNL     1      24.268   1.581  51.860  1.00  0.00    -0.006 A 
HETATM    8  C7  UNL     1      23.004   1.318  51.538  1.00  0.00     0.134 A 
HETATM    9  C15 UNL     1      24.767   1.142  53.189  1.00  0.00     0.072 A 
HETATM   10  N1  UNL     1      22.474   1.716  50.279  1.00  0.00    -0.242 NA
HETATM   11  N2  UNL     1      22.142   0.631  52.439  1.00  0.00    -0.340 N 
HETATM   12  C8  UNL     1      21.255   1.484  49.918  1.00  0.00     0.132 A 
HETATM   13  C9  UNL     1      20.325   0.784  50.797  1.00  0.00     0.011 A 
HETATM   14  C10 UNL     1      19.022   0.544  50.396  1.00  0.00     0.059 A 
HETATM   15  C14 UNL     1      20.783   0.367  52.050  1.00  0.00     0.047 A 
HETATM   16  C11 UNL     1      18.149  -0.117  51.231  1.00  0.00     0.139 A 
HETATM   17  F1  UNL     1      16.920  -0.285  50.724  1.00  0.00    -0.204 F 
HETATM   18  C12 UNL     1      18.602  -0.529  52.468  1.00  0.00     0.074 A 
HETATM   19 CL1  UNL     1      17.447  -1.363  53.486  1.00  0.00    -0.081 Cl
HETATM   20  C13 UNL     1      19.892  -0.294  52.872  1.00  0.00     0.057 A 
HETATM   21  H8  UNL     1      22.476   0.314  53.377  1.00  0.00     0.167 HD
HETATM   22  C16 UNL     1      26.193   1.538  53.333  1.00  0.00     0.017 A 
HETATM   23  C17 UNL     1      26.953   2.177  52.467  1.00  0.00     0.098 A 
BRANCH  23  24
HETATM   24  O2  UNL     1      28.262   2.490  52.712  1.00  0.00    -0.353 OA
HETATM   25  C18 UNL     1      28.985   2.245  53.886  1.00  0.00     0.210 C 
ENDBRANCH  23  24
ENDBRANCH   4   5
ENDBRANCH   3   4
TORSDOF 3
ENDMDL
MODEL 2
REMARK VINA RESULT:      -8.2      1.453      3.575
REMARK  3 active torsions:
REMARK  status: ('A' for Active; 'I' for Inactive)
REMARK    1  A    between atoms: C3_3  and  O1_4 
REMARK    2  A    between atoms: O1_4  and  C4_5 
REMARK    3  A    between atoms: C17_22  and  O2_23 
ROOT
HETATM    1  C1  UNL     1      27.250   0.242  54.858  1.00  0.00     0.014 C 
HETATM    2  C2  UNL     1      27.543   1.180  54.148  1.00  0.00    -0.091 C 
HETATM    3  C3  UNL     1      27.880   2.318  53.267  1.00  0.00     0.268 C 
ENDROOT
BRANCH   3   4
HETATM    4  O1  UNL     1      27.574   1.959  51.947  1.00  0.00    -0.337 OA
BRANCH   4   5
HETATM    5  C4  UNL     1      26.367   2.230  51.319  1.00  0.00     0.103 A 
HETATM    6  C5  UNL     1      25.323   1.570  51.849  1.00  0.00     0.051 A 
HETATM    7  C6  UNL     1      23.994   1.767  51.281  1.00  0.00    -0.006 A 
HETATM    8  C7  UNL     1      22.977   1.103  51.823  1.00  0.00     0.134 A 
HETATM    9  C15 UNL     1      23.721   2.667  50.130  1.00  0.00     0.072 A 
HETATM   10  N1  UNL     1      23.182   0.227  52.926  1.00  0.00    -0.242 NA
HETATM   11  N2  UNL     1      21.653   1.246  51.320  1.00  0.00    -0.340 N 
HETATM   12  C8  UNL     1      22.229  -0.440  53.488  1.00  0.00     0.132 A 
HETATM   13  C9  UNL     1      20.851  -0.335  53.018  1.00  0.00     0.011 A 
HETATM   14  C10 UNL     1      19.841  -1.056  53.631  1.00  0.00     0.059 A 
HETATM   15  C14 UNL     1      20.583   0.509  51.937  1.00  0.00     0.047 A 
HETATM   16  C11 UNL     1      18.544  -0.953  53.182  1.00  0.00     0.139 A 
HETATM   17  F1  UNL     1      17.663  -1.702  53.860  1.00  0.00    -0.204 F 
HETATM   18  C12 UNL     1      18.278  -0.119  52.114  1.00  0.00     0.074 A 
HETATM   19 CL1  UNL     1      16.611  -0.029  51.588  1.00  0.00    -0.081 Cl
HETATM   20  C13 UNL     1      19.275   0.598  51.502  1.00  0.00     0.057 A 
HETATM   21  H8  UNL     1      21.442   1.874  50.513  1.00  0.00     0.167 HD
HETATM   22  C16 UNL     1      24.992   3.300  49.690  1.00  0.00     0.017 A 
HETATM   23  C17 UNL     1      26.200   3.136  50.189  1.00  0.00     0.098 A 
BRANCH  23  24
HETATM   24  O2  UNL     1      27.304   3.777  49.696  1.00  0.00    -0.353 OA
HETATM   25  C18 UNL     1      27.331   4.815  48.757  1.00  0.00     0.210 C 
ENDBRANCH  23  24
ENDBRANCH   4   5
ENDBRANCH   3   4
TORSDOF 3
ENDMDL
MODEL 3
REMARK VINA RESULT:      -7.9      4.679      7.220
REMARK  3 active torsions:
REMARK  status: ('A' for Active; 'I' for Inactive)
REMARK    1  A    between atoms: C3_3  and  O1_4 
REMARK    2  A    between atoms: O1_4  and  C4_5 
REMARK    3  A    between atoms: C17_22  and  O2_23 
ROOT
HETATM    1  C1  UNL     1      28.979   0.273  54.477  1.00  0.00     0.014 C 
HETATM    2  C2  UNL     1      28.200  -0.299  53.746  1.00  0.00    -0.091 C 
HETATM    3  C3  UNL     1      27.231  -0.978  52.861  1.00  0.00     0.268 C 
ENDROOT
BRANCH   3   4
HETATM    4  O1  UNL     1      25.959  -0.878  53.441  1.00  0.00    -0.337 OA
BRANCH   4   5
HETATM    5  C4  UNL     1      24.979   0.018  53.036  1.00  0.00     0.103 A 
HETATM    6  C5  UNL     1      25.441   1.001  52.245  1.00  0.00     0.051 A 
HETATM    7  C6  UNL     1      24.513   2.010  51.748  1.00  0.00    -0.006 A 
HETATM    8  C7  UNL     1      24.994   2.974  50.968  1.00  0.00     0.134 A 
HETATM    9  C15 UNL     1      23.062   2.017  52.071  1.00  0.00     0.072 A 
HETATM   10  N1  UNL     1      26.375   3.016  50.627  1.00  0.00    -0.242 NA
HETATM   11  N2  UNL     1      24.146   3.992  50.447  1.00  0.00    -0.340 N 
HETATM   12  C8  UNL     1      26.892   3.928  49.872  1.00  0.00     0.132 A 
HETATM   13  C9  UNL     1      26.075   4.997  49.309  1.00  0.00     0.011 A 
HETATM   14  C10 UNL     1      26.643   5.968  48.503  1.00  0.00     0.059 A 
HETATM   15  C14 UNL     1      24.709   5.014  49.606  1.00  0.00     0.047 A 
HETATM   16  C11 UNL     1      25.866   6.975  47.974  1.00  0.00     0.139 A 
HETATM   17  F1  UNL     1      26.538   7.849  47.212  1.00  0.00    -0.204 F 
HETATM   18  C12 UNL     1      24.517   6.991  48.267  1.00  0.00     0.074 A 
HETATM   19 CL1  UNL     1      23.581   8.295  47.567  1.00  0.00    -0.081 Cl
HETATM   20  C13 UNL     1      23.948   6.032  49.065  1.00  0.00     0.057 A 
HETATM   21  H8  UNL     1      23.124   4.013  50.662  1.00  0.00     0.167 HD
HETATM   22  C16 UNL     1      22.749   0.860  52.950  1.00  0.00     0.017 A 
HETATM   23  C17 UNL     1      23.572  -0.061  53.409  1.00  0.00     0.098 A 
BRANCH  23  24
HETATM   24  O2  UNL     1      23.166  -1.088  54.217  1.00  0.00    -0.353 OA
HETATM   25  C18 UNL     1      21.883  -1.299  54.738  1.00  0.00     0.210 C 
ENDBRANCH  23  24
ENDBRANCH   4   5
ENDBRANCH   3   4
TORSDOF 3
ENDMDL
MODEL 4
REMARK VINA RESULT:      -7.8      3.547      5.695
REMARK  3 active torsions:
REMARK  status: ('A' for Active; 'I' for Inactive)
REMARK    1  A    between atoms: C3_3  and  O1_4 
REMARK    2  A    between atoms: O1_4  and  C4_5 
REMARK    3  A    between atoms: C17_22  and  O2_23 
ROOT
HETATM    1  C1  UNL     1      31.556   7.587  49.286  1.00  0.00     0.014 C 
HETATM    2  C2  UNL     1      30.793   6.755  48.845  1.00  0.00    -0.091 C 
HETATM    3  C3  UNL     1      29.857   5.756  48.288  1.00  0.00     0.268 C 
ENDROOT
BRANCH   3   4
HETATM    4  O1  UNL     1      28.762   6.437  47.738  1.00  0.00    -0.337 OA
BRANCH   4   5
HETATM    5  C4  UNL     1      27.451   6.293  48.169  1.00  0.00     0.103 A 
HETATM    6  C5  UNL     1      27.258   5.223  48.959  1.00  0.00     0.051 A 
HETATM    7  C6  UNL     1      25.922   4.957  49.482  1.00  0.00    -0.006 A 
HETATM    8  C7  UNL     1      25.756   3.892  50.261  1.00  0.00     0.134 A 
HETATM    9  C15 UNL     1      24.743   5.811  49.187  1.00  0.00     0.072 A 
HETATM   10  N1  UNL     1      26.851   3.039  50.575  1.00  0.00    -0.242 NA
HETATM   11  N2  UNL     1      24.481   3.570  50.806  1.00  0.00    -0.340 N 
HETATM   12  C8  UNL     1      26.743   1.993  51.327  1.00  0.00     0.132 A 
HETATM   13  C9  UNL     1      25.463   1.613  51.915  1.00  0.00     0.011 A 
HETATM   14  C10 UNL     1      25.363   0.490  52.718  1.00  0.00     0.059 A 
HETATM   15  C14 UNL     1      24.347   2.409  51.644  1.00  0.00     0.047 A 
HETATM   16  C11 UNL     1      24.152   0.136  53.269  1.00  0.00     0.139 A 
HETATM   17  F1  UNL     1      24.191  -0.970  54.025  1.00  0.00    -0.204 F 
HETATM   18  C12 UNL     1      23.049   0.923  53.002  1.00  0.00     0.074 A 
HETATM   19 CL1  UNL     1      21.537   0.422  53.731  1.00  0.00    -0.081 Cl
HETATM   20  C13 UNL     1      23.142   2.037  52.208  1.00  0.00     0.057 A 
HETATM   21  H8  UNL     1      23.640   4.159  50.611  1.00  0.00     0.167 HD
HETATM   22  C16 UNL     1      25.158   6.934  48.305  1.00  0.00     0.017 A 
HETATM   23  C17 UNL     1      26.356   7.191  47.823  1.00  0.00     0.098 A 
BRANCH  23  24
HETATM   24  O2  UNL     1      26.620   8.263  47.014  1.00  0.00    -0.353 OA
HETATM   25  C18 UNL     1      26.176   9.580  47.183  1.00  0.00     0.210 C 
ENDBRANCH  23  24
ENDBRANCH   4   5
ENDBRANCH   3   4
TORSDOF 3
ENDMDL
MODEL 5
REMARK VINA RESULT:      -7.7      4.521      6.663
REMARK  3 active torsions:
REMARK  status: ('A' for Active; 'I' for Inactive)
REMARK    1  A    between atoms: C3_3  and  O1_4 
REMARK    2  A    between atoms: O1_4  and  C4_5 
REMARK    3  A    between atoms: C17_22  and  O2_23 
ROOT
HETATM    1  C1  UNL     1      26.222   8.484  43.744  1.00  0.00     0.014 C 
HETATM    2  C2  UNL     1      25.621   8.537  44.795  1.00  0.00    -0.091 C 
HETATM    3  C3  UNL     1      24.907   8.618  46.086  1.00  0.00     0.268 C 
ENDROOT
BRANCH   3   4
HETATM    4  O1  UNL     1      25.858   8.731  47.109  1.00  0.00    -0.337 OA
BRANCH   4   5
HETATM    5  C4  UNL     1      26.681   7.698  47.534  1.00  0.00     0.103 A 
HETATM    6  C5  UNL     1      26.050   6.781  48.288  1.00  0.00     0.051 A 
HETATM    7  C6  UNL     1      26.803   5.640  48.799  1.00  0.00    -0.006 A 
HETATM    8  C7  UNL     1      26.156   4.747  49.543  1.00  0.00     0.134 A 
HETATM    9  C15 UNL     1      28.249   5.429  48.533  1.00  0.00     0.072 A 
HETATM   10  N1  UNL     1      24.771   4.901  49.829  1.00  0.00    -0.242 NA
HETATM   11  N2  UNL     1      26.826   3.609  50.076  1.00  0.00    -0.340 N 
HETATM   12  C8  UNL     1      24.097   4.062  50.545  1.00  0.00     0.132 A 
HETATM   13  C9  UNL     1      24.728   2.878  51.118  1.00  0.00     0.011 A 
HETATM   14  C10 UNL     1      23.993   1.989  51.883  1.00  0.00     0.059 A 
HETATM   15  C14 UNL     1      26.088   2.669  50.874  1.00  0.00     0.047 A 
HETATM   16  C11 UNL     1      24.595   0.873  52.421  1.00  0.00     0.139 A 
HETATM   17  F1  UNL     1      23.774   0.095  53.140  1.00  0.00    -0.204 F 
HETATM   18  C12 UNL     1      25.939   0.666  52.180  1.00  0.00     0.074 A 
HETATM   19 CL1  UNL     1      26.648  -0.769  52.890  1.00  0.00    -0.081 Cl
HETATM   20  C13 UNL     1      26.672   1.543  51.423  1.00  0.00     0.057 A 
HETATM   21  H8  UNL     1      27.843   3.443  49.899  1.00  0.00     0.167 HD
HETATM   22  C16 UNL     1      28.761   6.540  47.689  1.00  0.00     0.017 A 
HETATM   23  C17 UNL     1      28.099   7.577  47.218  1.00  0.00     0.098 A 
BRANCH  23  24
HETATM   24  O2  UNL     1      28.681   8.545  46.446  1.00  0.00    -0.353 OA
HETATM   25  C18 UNL     1      29.774   8.396  45.582  1.00  0.00     0.210 C 
ENDBRANCH  23  24
ENDBRANCH   4   5
ENDBRANCH   3   4
TORSDOF 3
ENDMDL
MODEL 6
REMARK VINA RESULT:      -7.6      2.003      3.937
REMARK  3 active torsions:
REMARK  status: ('A' for Active; 'I' for Inactive)
REMARK    1  A    between atoms: C3_3  and  O1_4 
REMARK    2  A    between atoms: O1_4  and  C4_5 
REMARK    3  A    between atoms: C17_22  and  O2_23 
ROOT
HETATM    1  C1  UNL     1      29.026   0.071  53.696  1.00  0.00     0.014 C 
HETATM    2  C2  UNL     1      27.846  -0.195  53.767  1.00  0.00    -0.091 C 
HETATM    3  C3  UNL     1      26.401  -0.499  53.838  1.00  0.00     0.268 C 
ENDROOT
BRANCH   3   4
HETATM    4  O1  UNL     1      25.695   0.711  53.820  1.00  0.00    -0.337 OA
BRANCH   4   5
HETATM    5  C4  UNL     1      24.752   1.056  52.862  1.00  0.00     0.103 A 
HETATM    6  C5  UNL     1      23.543   0.512  53.075  1.00  0.00     0.051 A 
HETATM    7  C6  UNL     1      22.460   0.797  52.140  1.00  0.00    -0.006 A 
HETATM    8  C7  UNL     1      21.271   0.246  52.372  1.00  0.00     0.134 A 
HETATM    9  C15 UNL     1      22.618   1.666  50.945  1.00  0.00     0.072 A 
HETATM   10  N1  UNL     1      21.064  -0.595  53.501  1.00  0.00    -0.242 NA
HETATM   11  N2  UNL     1      20.169   0.480  51.502  1.00  0.00    -0.340 N 
HETATM   12  C8  UNL     1      19.931  -1.153  53.772  1.00  0.00     0.132 A 
HETATM   13  C9  UNL     1      18.765  -0.951  52.918  1.00  0.00     0.011 A 
HETATM   14  C10 UNL     1      17.557  -1.556  53.220  1.00  0.00     0.059 A 
HETATM   15  C14 UNL     1      18.902  -0.136  51.791  1.00  0.00     0.047 A 
HETATM   16  C11 UNL     1      16.461  -1.362  52.410  1.00  0.00     0.139 A 
HETATM   17  F1  UNL     1      15.355  -2.003  52.814  1.00  0.00    -0.204 F 
HETATM   18  C12 UNL     1      16.596  -0.556  51.297  1.00  0.00     0.074 A 
HETATM   19 CL1  UNL     1      15.168  -0.347  50.306  1.00  0.00    -0.081 Cl
HETATM   20  C13 UNL     1      17.790   0.046  50.992  1.00  0.00     0.057 A 
HETATM   21  H8  UNL     1      20.261   1.088  50.657  1.00  0.00     0.167 HD
HETATM   22  C16 UNL     1      24.015   2.168  50.885  1.00  0.00     0.017 A 
HETATM   23  C17 UNL     1      25.006   1.923  51.717  1.00  0.00     0.098 A 
BRANCH  23  24
HETATM   24  O2  UNL     1      26.261   2.446  51.558  1.00  0.00    -0.353 OA
HETATM   25  C18 UNL     1      26.729   3.212  50.483  1.00  0.00     0.210 C 
ENDBRANCH  23  24
ENDBRANCH   4   5
ENDBRANCH   3   4
TORSDOF 3
ENDMDL
MODEL 7
REMARK VINA RESULT:      -7.6      2.957      4.149
REMARK  3 active torsions:
REMARK  status: ('A' for Active; 'I' for Inactive)
REMARK    1  A    between atoms: C3_3  and  O1_4 
REMARK    2  A    between atoms: O1_4  and  C4_5 
REMARK    3  A    between atoms: C17_22  and  O2_23 
ROOT
HETATM    1  C1  UNL     1      27.306   9.230  50.359  1.00  0.00     0.014 C 
HETATM    2  C2  UNL     1      26.270   8.924  49.810  1.00  0.00    -0.091 C 
HETATM    3  C3  UNL     1      25.014   8.525  49.141  1.00  0.00     0.268 C 
ENDROOT
BRANCH   3   4
HETATM    4  O1  UNL     1      25.279   7.409  48.335  1.00  0.00    -0.337 OA
BRANCH   4   5
HETATM    5  C4  UNL     1      25.643   6.160  48.818  1.00  0.00     0.103 A 
HETATM    6  C5  UNL     1      24.665   5.540  49.499  1.00  0.00     0.051 A 
HETATM    7  C6  UNL     1      24.918   4.217  50.061  1.00  0.00    -0.006 A 
HETATM    8  C7  UNL     1      23.934   3.623  50.731  1.00  0.00     0.134 A 
HETATM    9  C15 UNL     1      26.214   3.503  49.922  1.00  0.00     0.072 A 
HETATM   10  N1  UNL     1      22.673   4.261  50.894  1.00  0.00    -0.242 NA
HETATM   11  N2  UNL     1      24.110   2.332  51.306  1.00  0.00    -0.340 N 
HETATM   12  C8  UNL     1      21.686   3.727  51.535  1.00  0.00     0.132 A 
HETATM   13  C9  UNL     1      21.805   2.408  52.146  1.00  0.00     0.011 A 
HETATM   14  C10 UNL     1      20.738   1.850  52.830  1.00  0.00     0.059 A 
HETATM   15  C14 UNL     1      23.019   1.728  52.022  1.00  0.00     0.047 A 
HETATM   16  C11 UNL     1      20.857   0.604  53.404  1.00  0.00     0.139 A 
HETATM   17  F1  UNL     1      19.754   0.179  54.035  1.00  0.00    -0.204 F 
HETATM   18  C12 UNL     1      22.057  -0.068  53.282  1.00  0.00     0.074 A 
HETATM   19 CL1  UNL     1      22.148  -1.647  54.033  1.00  0.00    -0.081 Cl
HETATM   20  C13 UNL     1      23.117   0.479  52.605  1.00  0.00     0.057 A 
HETATM   21  H8  UNL     1      25.013   1.815  51.219  1.00  0.00     0.167 HD
HETATM   22  C16 UNL     1      27.158   4.347  49.143  1.00  0.00     0.017 A 
HETATM   23  C17 UNL     1      26.950   5.541  48.629  1.00  0.00     0.098 A 
BRANCH  23  24
HETATM   24  O2  UNL     1      27.902   6.227  47.925  1.00  0.00    -0.353 OA
HETATM   25  C18 UNL     1      29.265   6.337  48.230  1.00  0.00     0.210 C 
ENDBRANCH  23  24
ENDBRANCH   4   5
ENDBRANCH   3   4
TORSDOF 3
ENDMDL
MODEL 8
REMARK VINA RESULT:      -7.5      4.538      6.647
REMARK  3 active torsions:
REMARK  status: ('A' for Active; 'I' for Inactive)
REMARK    1  A    between atoms: C3_3  and  O1_4 
REMARK    2  A    between atoms: O1_4  and  C4_5 
REMARK    3  A    between atoms: C17_22  and  O2_23 
ROOT
HETATM    1  C1  UNL     1      21.356   8.546  49.425  1.00  0.00     0.014 C 
HETATM    2  C2  UNL     1      22.458   8.827  49.008  1.00  0.00    -0.091 C 
HETATM    3  C3  UNL     1      23.798   9.156  48.477  1.00  0.00     0.268 C 
ENDROOT
BRANCH   3   4
HETATM    4  O1  UNL     1      24.236   8.083  47.689  1.00  0.00    -0.337 OA
BRANCH   4   5
HETATM    5  C4  UNL     1      25.291   7.245  48.020  1.00  0.00     0.103 A 
HETATM    6  C5  UNL     1      24.932   6.206  48.792  1.00  0.00     0.051 A 
HETATM    7  C6  UNL     1      25.948   5.246  49.211  1.00  0.00    -0.006 A 
HETATM    8  C7  UNL     1      25.568   4.226  49.976  1.00  0.00     0.134 A 
HETATM    9  C15 UNL     1      27.380   5.352  48.829  1.00  0.00     0.072 A 
HETATM   10  N1  UNL     1      24.210   4.076  50.372  1.00  0.00    -0.242 NA
HETATM   11  N2  UNL     1      26.505   3.252  50.422  1.00  0.00    -0.340 N 
HETATM   12  C8  UNL     1      23.789   3.105  51.112  1.00  0.00     0.132 A 
HETATM   13  C9  UNL     1      24.701   2.076  51.600  1.00  0.00     0.011 A 
HETATM   14  C10 UNL     1      24.236   1.041  52.393  1.00  0.00     0.059 A 
HETATM   15  C14 UNL     1      26.050   2.165  51.247  1.00  0.00     0.047 A 
HETATM   16  C11 UNL     1      25.102   0.073  52.850  1.00  0.00     0.139 A 
HETATM   17  F1  UNL     1      24.526  -0.871  53.607  1.00  0.00    -0.204 F 
HETATM   18  C12 UNL     1      26.435   0.161  52.502  1.00  0.00     0.074 A 
HETATM   19 CL1  UNL     1      27.488  -1.098  53.113  1.00  0.00    -0.081 Cl
HETATM   20  C13 UNL     1      26.902   1.184  51.716  1.00  0.00     0.057 A 
HETATM   21  H8  UNL     1      27.516   3.309  50.163  1.00  0.00     0.167 HD
HETATM   22  C16 UNL     1      27.574   6.557  47.981  1.00  0.00     0.017 A 
HETATM   23  C17 UNL     1      26.672   7.434  47.593  1.00  0.00     0.098 A 
BRANCH  23  24
HETATM   24  O2  UNL     1      26.971   8.514  46.806  1.00  0.00    -0.353 OA
HETATM   25  C18 UNL     1      27.318   9.802  47.233  1.00  0.00     0.210 C 
ENDBRANCH  23  24
ENDBRANCH   4   5
ENDBRANCH   3   4
TORSDOF 3
ENDMDL
MODEL 9
REMARK VINA RESULT:      -7.4      5.018      8.028
REMARK  3 active torsions:
REMARK  status: ('A' for Active; 'I' for Inactive)
REMARK    1  A    between atoms: C3_3  and  O1_4 
REMARK    2  A    between atoms: O1_4  and  C4_5 
REMARK    3  A    between atoms: C17_22  and  O2_23 
ROOT
HETATM    1  C1  UNL     1      19.682   1.743  52.553  1.00  0.00     0.014 C 
HETATM    2  C2  UNL     1      20.640   1.226  52.021  1.00  0.00    -0.091 C 
HETATM    3  C3  UNL     1      21.816   0.586  51.394  1.00  0.00     0.268 C 
ENDROOT
BRANCH   3   4
HETATM    4  O1  UNL     1      22.873   0.610  52.314  1.00  0.00    -0.337 OA
BRANCH   4   5
HETATM    5  C4  UNL     1      24.156   1.054  52.025  1.00  0.00     0.103 A 
HETATM    6  C5  UNL     1      24.185   2.158  51.261  1.00  0.00     0.051 A 
HETATM    7  C6  UNL     1      25.473   2.729  50.884  1.00  0.00    -0.006 A 
HETATM    8  C7  UNL     1      25.476   3.823  50.126  1.00  0.00     0.134 A 
HETATM    9  C15 UNL     1      26.778   2.152  51.302  1.00  0.00     0.072 A 
HETATM   10  N1  UNL     1      24.256   4.417  49.698  1.00  0.00    -0.242 NA
HETATM   11  N2  UNL     1      26.696   4.434  49.720  1.00  0.00    -0.340 N 
HETATM   12  C8  UNL     1      24.204   5.478  48.962  1.00  0.00     0.132 A 
HETATM   13  C9  UNL     1      25.420   6.149  48.515  1.00  0.00     0.011 A 
HETATM   14  C10 UNL     1      25.348   7.285  47.727  1.00  0.00     0.059 A 
HETATM   15  C14 UNL     1      26.652   5.616  48.901  1.00  0.00     0.047 A 
HETATM   16  C11 UNL     1      26.499   7.914  47.308  1.00  0.00     0.139 A 
HETATM   17  F1  UNL     1      26.291   9.001  46.553  1.00  0.00    -0.204 F 
HETATM   18  C12 UNL     1      27.716   7.387  47.690  1.00  0.00     0.074 A 
HETATM   19 CL1  UNL     1      29.144   8.229  47.127  1.00  0.00    -0.081 Cl
HETATM   20  C13 UNL     1      27.794   6.262  48.471  1.00  0.00     0.057 A 
HETATM   21  H8  UNL     1      27.622   4.043  50.004  1.00  0.00     0.167 HD
HETATM   22  C16 UNL     1      26.536   0.945  52.135  1.00  0.00     0.017 A 
HETATM   23  C17 UNL     1      25.383   0.414  52.485  1.00  0.00     0.098 A 
BRANCH  23  24
HETATM   24  O2  UNL     1      25.283  -0.708  53.261  1.00  0.00    -0.353 OA
HETATM   25  C18 UNL     1      25.195  -0.767  54.658  1.00  0.00     0.210 C 
ENDBRANCH  23  24
ENDBRANCH   4   5
ENDBRANCH   3   4
TORSDOF 3
ENDMDL
