MODEL 1
REMARK VINA RESULT:      -7.3      0.000      0.000
REMARK  1 active torsions:
REMARK  status: ('A' for Active; 'I' for Inactive)
REMARK    1  A    between atoms: O1_2  and  C2_3 
ROOT
HETATM    1  C2  UNL     1      25.078  -0.224  53.854  1.00  0.00     0.066 C 
HETATM    2  C3  UNL     1      23.872  -0.780  53.587  1.00  0.00     0.014 C 
HETATM    3  C4  UNL     1      22.510  -1.275  53.127  1.00  0.00     0.088 C 
HETATM    4  C5  UNL     1      21.477  -0.558  53.889  1.00  0.00     0.031 C 
HETATM    5  N1  UNL     1      20.944  -0.818  55.027  1.00  0.00    -0.304 NA
HETATM    6  C6  UNL     1      20.965   0.754  53.608  1.00  0.00     0.051 C 
HETATM    7  C7  UNL     1      20.814   1.801  52.756  1.00  0.00     0.008 C 
HETATM    8  C8  UNL     1      20.425   3.137  52.186  1.00  0.00     0.087 C 
HETATM    9  C9  UNL     1      21.276   3.498  51.022  1.00  0.00     0.278 C 
HETATM   10  N2  UNL     1      22.519   2.749  51.051  1.00  0.00     0.090 N 
HETATM   11  C10 UNL     1      23.560   3.731  50.734  1.00  0.00     0.274 C 
HETATM   12  C11 UNL     1      24.879   3.125  50.378  1.00  0.00     0.056 C 
HETATM   13  C12 UNL     1      25.522   2.374  51.478  1.00  0.00     0.169 C 
HETATM   14  O2  UNL     1      24.837   1.306  52.008  1.00  0.00    -0.385 OA
HETATM   15  C13 UNL     1      25.675   0.870  53.077  1.00  0.00     0.231 C 
HETATM   16  C14 UNL     1      22.427   1.807  49.928  1.00  0.00     0.292 C 
HETATM   17  C15 UNL     1      21.425   0.776  50.238  1.00  0.00     0.150 C 
HETATM   18  N3  UNL     1      20.970   0.840  51.649  1.00  0.00    -0.391 N 
HETATM   19  H7  UNL     1      21.263  -1.665  55.531  1.00  0.00     0.186 HD
HETATM   20  H25 UNL     1      20.584  -0.122  51.981  1.00  0.00     0.159 HD
ENDROOT
BRANCH   1  21
HETATM   21  O1  UNL     1      26.066  -0.420  54.831  1.00  0.00    -0.358 OA
HETATM   22  C1  UNL     1      27.316   0.232  54.766  1.00  0.00     0.209 C 
ENDBRANCH   1  21
TORSDOF 1
ENDMDL
MODEL 2
REMARK VINA RESULT:      -6.7      1.630      4.077
REMARK  1 active torsions:
REMARK  status: ('A' for Active; 'I' for Inactive)
REMARK    1  A    between atoms: O1_2  and  C2_3 
ROOT
HETATM    1  C2  UNL     1      25.315  -0.050  53.506  1.00  0.00     0.066 C 
HETATM    2  C3  UNL     1      25.518   1.273  53.303  1.00  0.00     0.014 C 
HETATM    3  C4  UNL     1      25.543   2.771  53.046  1.00  0.00     0.088 C 
HETATM    4  C5  UNL     1      25.861   2.991  51.628  1.00  0.00     0.031 C 
HETATM    5  N1  UNL     1      26.992   3.090  51.030  1.00  0.00    -0.304 NA
HETATM    6  C6  UNL     1      24.941   2.935  50.527  1.00  0.00     0.051 C 
HETATM    7  C7  UNL     1      23.666   2.928  50.057  1.00  0.00     0.008 C 
HETATM    8  C8  UNL     1      22.483   2.876  49.131  1.00  0.00     0.087 C 
HETATM    9  C9  UNL     1      21.245   2.485  49.855  1.00  0.00     0.278 C 
HETATM   10  N2  UNL     1      21.575   1.801  51.092  1.00  0.00     0.090 N 
HETATM   11  C10 UNL     1      20.667   0.651  51.142  1.00  0.00     0.274 C 
HETATM   12  C11 UNL     1      20.594  -0.008  52.481  1.00  0.00     0.056 C 
HETATM   13  C12 UNL     1      21.861  -0.626  52.928  1.00  0.00     0.169 C 
HETATM   14  O2  UNL     1      22.960   0.191  53.057  1.00  0.00    -0.385 OA
HETATM   15  C13 UNL     1      24.007  -0.711  53.410  1.00  0.00     0.231 C 
HETATM   16  C14 UNL     1      21.189   2.730  52.161  1.00  0.00     0.292 C 
HETATM   17  C15 UNL     1      22.114   3.873  52.171  1.00  0.00     0.150 C 
HETATM   18  N3  UNL     1      23.281   3.660  51.279  1.00  0.00    -0.391 N 
HETATM   19  H7  UNL     1      27.852   3.010  51.601  1.00  0.00     0.186 HD
HETATM   20  H25 UNL     1      24.129   4.266  51.590  1.00  0.00     0.159 HD
ENDROOT
BRANCH   1  21
HETATM   21  O1  UNL     1      26.138  -1.144  53.817  1.00  0.00    -0.358 OA
HETATM   22  C1  UNL     1      26.951  -1.764  52.844  1.00  0.00     0.209 C 
ENDBRANCH   1  21
TORSDOF 1
ENDMDL
MODEL 3
REMARK VINA RESULT:      -6.6      2.541      4.498
REMARK  1 active torsions:
REMARK  status: ('A' for Active; 'I' for Inactive)
REMARK    1  A    between atoms: O1_2  and  C2_3 
ROOT
HETATM    1  C2  UNL     1      22.912   0.251  53.235  1.00  0.00     0.066 C 
HETATM    2  C3  UNL     1      23.995   1.063  53.260  1.00  0.00     0.014 C 
HETATM    3  C4  UNL     1      25.082   2.126  53.238  1.00  0.00     0.088 C 
HETATM    4  C5  UNL     1      25.728   2.098  51.917  1.00  0.00     0.031 C 
HETATM    5  N1  UNL     1      26.709   1.397  51.480  1.00  0.00    -0.304 NA
HETATM    6  C6  UNL     1      25.249   2.729  50.719  1.00  0.00     0.051 C 
HETATM    7  C7  UNL     1      24.433   3.625  50.106  1.00  0.00     0.008 C 
HETATM    8  C8  UNL     1      23.738   4.436  49.049  1.00  0.00     0.087 C 
HETATM    9  C9  UNL     1      22.458   5.001  49.553  1.00  0.00     0.278 C 
HETATM   10  N2  UNL     1      21.990   4.248  50.701  1.00  0.00     0.090 N 
HETATM   11  C10 UNL     1      20.555   4.056  50.469  1.00  0.00     0.274 C 
HETATM   12  C11 UNL     1      19.799   3.600  51.675  1.00  0.00     0.056 C 
HETATM   13  C12 UNL     1      20.189   2.263  52.170  1.00  0.00     0.169 C 
HETATM   14  O2  UNL     1      21.497   2.078  52.551  1.00  0.00    -0.385 OA
HETATM   15  C13 UNL     1      21.555   0.693  52.885  1.00  0.00     0.231 C 
HETATM   16  C14 UNL     1      22.146   5.155  51.845  1.00  0.00     0.292 C 
HETATM   17  C15 UNL     1      23.576   5.329  52.138  1.00  0.00     0.150 C 
HETATM   18  N3  UNL     1      24.426   4.385  51.369  1.00  0.00    -0.391 N 
HETATM   19  H7  UNL     1      27.153   0.724  52.130  1.00  0.00     0.186 HD
HETATM   20  H25 UNL     1      25.379   4.220  51.868  1.00  0.00     0.159 HD
ENDROOT
BRANCH   1  21
HETATM   21  O1  UNL     1      22.689  -1.114  53.472  1.00  0.00    -0.358 OA
HETATM   22  C1  UNL     1      21.641  -1.564  54.303  1.00  0.00     0.209 C 
ENDBRANCH   1  21
TORSDOF 1
ENDMDL
MODEL 4
REMARK VINA RESULT:      -6.4      3.211      5.638
REMARK  1 active torsions:
REMARK  status: ('A' for Active; 'I' for Inactive)
REMARK    1  A    between atoms: O1_2  and  C2_3 
ROOT
HETATM    1  C2  UNL     1      25.158   6.407  50.209  1.00  0.00     0.066 C 
HETATM    2  C3  UNL     1      25.580   5.151  49.932  1.00  0.00     0.014 C 
HETATM    3  C4  UNL     1      25.855   3.688  49.620  1.00  0.00     0.088 C 
HETATM    4  C5  UNL     1      26.143   2.994  50.883  1.00  0.00     0.031 C 
HETATM    5  N1  UNL     1      27.246   2.839  51.521  1.00  0.00    -0.304 NA
HETATM    6  C6  UNL     1      25.179   2.492  51.822  1.00  0.00     0.051 C 
HETATM    7  C7  UNL     1      23.903   2.134  52.121  1.00  0.00     0.008 C 
HETATM    8  C8  UNL     1      22.689   1.658  52.869  1.00  0.00     0.087 C 
HETATM    9  C9  UNL     1      21.435   2.111  52.211  1.00  0.00     0.278 C 
HETATM   10  N2  UNL     1      21.696   3.254  51.357  1.00  0.00     0.090 N 
HETATM   11  C10 UNL     1      20.604   4.192  51.636  1.00  0.00     0.274 C 
HETATM   12  C11 UNL     1      20.476   5.293  50.633  1.00  0.00     0.056 C 
HETATM   13  C12 UNL     1      21.634   6.211  50.584  1.00  0.00     0.169 C 
HETATM   14  O2  UNL     1      22.864   5.674  50.282  1.00  0.00    -0.385 OA
HETATM   15  C13 UNL     1      23.751   6.784  50.401  1.00  0.00     0.231 C 
HETATM   16  C14 UNL     1      21.526   2.757  49.986  1.00  0.00     0.292 C 
HETATM   17  C15 UNL     1      22.636   1.851  49.655  1.00  0.00     0.150 C 
HETATM   18  N3  UNL     1      23.707   1.876  50.683  1.00  0.00    -0.391 N 
HETATM   19  H7  UNL     1      28.104   3.255  51.115  1.00  0.00     0.186 HD
HETATM   20  H25 UNL     1      24.661   1.563  50.263  1.00  0.00     0.159 HD
ENDROOT
BRANCH   1  21
HETATM   21  O1  UNL     1      25.790   7.644  50.413  1.00  0.00    -0.358 OA
HETATM   22  C1  UNL     1      26.844   8.087  49.585  1.00  0.00     0.209 C 
ENDBRANCH   1  21
TORSDOF 1
ENDMDL
MODEL 5
REMARK VINA RESULT:      -6.3      4.023      5.900
REMARK  1 active torsions:
REMARK  status: ('A' for Active; 'I' for Inactive)
REMARK    1  A    between atoms: O1_2  and  C2_3 
ROOT
HETATM    1  C2  UNL     1      26.872   5.829  48.742  1.00  0.00     0.066 C 
HETATM    2  C3  UNL     1      26.813   4.518  49.075  1.00  0.00     0.014 C 
HETATM    3  C4  UNL     1      26.545   3.061  49.416  1.00  0.00     0.088 C 
HETATM    4  C5  UNL     1      26.398   2.948  50.874  1.00  0.00     0.031 C 
HETATM    5  N1  UNL     1      27.276   2.774  51.793  1.00  0.00    -0.304 NA
HETATM    6  C6  UNL     1      25.213   3.223  51.637  1.00  0.00     0.051 C 
HETATM    7  C7  UNL     1      23.871   3.429  51.695  1.00  0.00     0.008 C 
HETATM    8  C8  UNL     1      22.489   3.715  52.212  1.00  0.00     0.087 C 
HETATM    9  C9  UNL     1      21.588   4.176  51.123  1.00  0.00     0.278 C 
HETATM   10  N2  UNL     1      22.362   4.689  50.008  1.00  0.00     0.090 N 
HETATM   11  C10 UNL     1      21.685   5.929  49.616  1.00  0.00     0.274 C 
HETATM   12  C11 UNL     1      22.104   6.454  48.280  1.00  0.00     0.056 C 
HETATM   13  C12 UNL     1      23.521   6.868  48.205  1.00  0.00     0.169 C 
HETATM   14  O2  UNL     1      24.480   5.917  48.466  1.00  0.00    -0.385 OA
HETATM   15  C13 UNL     1      25.703   6.648  48.396  1.00  0.00     0.231 C 
HETATM   16  C14 UNL     1      22.177   3.711  48.929  1.00  0.00     0.292 C 
HETATM   17  C15 UNL     1      22.889   2.470  49.269  1.00  0.00     0.150 C 
HETATM   18  N3  UNL     1      23.761   2.630  50.460  1.00  0.00    -0.391 N 
HETATM   19  H7  UNL     1      28.269   2.694  51.508  1.00  0.00     0.186 HD
HETATM   20  H25 UNL     1      24.566   1.899  50.458  1.00  0.00     0.159 HD
ENDROOT
BRANCH   1  21
HETATM   21  O1  UNL     1      27.898   6.780  48.632  1.00  0.00    -0.358 OA
HETATM   22  C1  UNL     1      29.061   6.536  47.871  1.00  0.00     0.209 C 
ENDBRANCH   1  21
TORSDOF 1
ENDMDL
MODEL 6
REMARK VINA RESULT:      -6.3      1.931      2.949
REMARK  1 active torsions:
REMARK  status: ('A' for Active; 'I' for Inactive)
REMARK    1  A    between atoms: O1_2  and  C2_3 
ROOT
HETATM    1  C2  UNL     1      24.077   0.734  52.585  1.00  0.00     0.066 C 
HETATM    2  C3  UNL     1      22.858   0.990  52.053  1.00  0.00     0.014 C 
HETATM    3  C4  UNL     1      21.590   1.396  51.319  1.00  0.00     0.088 C 
HETATM    4  C5  UNL     1      20.987   2.531  52.034  1.00  0.00     0.031 C 
HETATM    5  N1  UNL     1      20.166   2.558  53.019  1.00  0.00    -0.304 NA
HETATM    6  C6  UNL     1      21.360   3.912  51.914  1.00  0.00     0.051 C 
HETATM    7  C7  UNL     1      22.003   4.904  51.243  1.00  0.00     0.008 C 
HETATM    8  C8  UNL     1      22.551   6.251  50.863  1.00  0.00     0.087 C 
HETATM    9  C9  UNL     1      23.690   6.124  49.916  1.00  0.00     0.278 C 
HETATM   10  N2  UNL     1      24.271   4.797  49.996  1.00  0.00     0.090 N 
HETATM   11  C10 UNL     1      25.720   5.018  50.010  1.00  0.00     0.274 C 
HETATM   12  C11 UNL     1      26.526   3.785  49.751  1.00  0.00     0.056 C 
HETATM   13  C12 UNL     1      26.388   2.738  50.786  1.00  0.00     0.169 C 
HETATM   14  O2  UNL     1      25.131   2.230  51.018  1.00  0.00    -0.385 OA
HETATM   15  C13 UNL     1      25.331   1.329  52.105  1.00  0.00     0.231 C 
HETATM   16  C14 UNL     1      23.924   4.147  48.726  1.00  0.00     0.292 C 
HETATM   17  C15 UNL     1      22.481   3.864  48.702  1.00  0.00     0.150 C 
HETATM   18  N3  UNL     1      21.841   4.094  50.021  1.00  0.00    -0.391 N 
HETATM   19  H7  UNL     1      19.845   1.654  53.410  1.00  0.00     0.186 HD
HETATM   20  H25 UNL     1      20.927   3.512  50.121  1.00  0.00     0.159 HD
ENDROOT
BRANCH   1  21
HETATM   21  O1  UNL     1      24.550  -0.052  53.647  1.00  0.00    -0.358 OA
HETATM   22  C1  UNL     1      25.884  -0.510  53.697  1.00  0.00     0.209 C 
ENDBRANCH   1  21
TORSDOF 1
ENDMDL
MODEL 7
REMARK VINA RESULT:      -6.2      2.372      3.746
REMARK  1 active torsions:
REMARK  status: ('A' for Active; 'I' for Inactive)
REMARK    1  A    between atoms: O1_2  and  C2_3 
ROOT
HETATM    1  C2  UNL     1      20.888  -0.079  52.823  1.00  0.00     0.066 C 
HETATM    2  C3  UNL     1      20.219   0.635  51.887  1.00  0.00     0.014 C 
HETATM    3  C4  UNL     1      19.653   1.502  50.773  1.00  0.00     0.088 C 
HETATM    4  C5  UNL     1      19.278   2.803  51.346  1.00  0.00     0.031 C 
HETATM    5  N1  UNL     1      18.189   3.189  51.903  1.00  0.00    -0.304 NA
HETATM    6  C6  UNL     1      20.157   3.909  51.602  1.00  0.00     0.051 C 
HETATM    7  C7  UNL     1      21.348   4.535  51.412  1.00  0.00     0.008 C 
HETATM    8  C8  UNL     1      22.470   5.531  51.499  1.00  0.00     0.087 C 
HETATM    9  C9  UNL     1      23.765   4.925  51.091  1.00  0.00     0.278 C 
HETATM   10  N2  UNL     1      23.704   3.479  51.196  1.00  0.00     0.090 N 
HETATM   11  C10 UNL     1      24.967   3.092  51.832  1.00  0.00     0.274 C 
HETATM   12  C11 UNL     1      25.273   1.632  51.737  1.00  0.00     0.056 C 
HETATM   13  C12 UNL     1      24.316   0.761  52.452  1.00  0.00     0.169 C 
HETATM   14  O2  UNL     1      22.995   0.814  52.071  1.00  0.00    -0.385 OA
HETATM   15  C13 UNL     1      22.346  -0.059  52.993  1.00  0.00     0.231 C 
HETATM   16  C14 UNL     1      23.726   2.992  49.811  1.00  0.00     0.292 C 
HETATM   17  C15 UNL     1      22.450   3.320  49.158  1.00  0.00     0.150 C 
HETATM   18  N3  UNL     1      21.440   3.827  50.121  1.00  0.00    -0.391 N 
HETATM   19  H7  UNL     1      17.415   2.505  51.985  1.00  0.00     0.186 HD
HETATM   20  H25 UNL     1      20.430   3.670  49.749  1.00  0.00     0.159 HD
ENDROOT
BRANCH   1  21
HETATM   21  O1  UNL     1      20.517  -0.960  53.851  1.00  0.00    -0.358 OA
HETATM   22  C1  UNL     1      21.475  -1.683  54.593  1.00  0.00     0.209 C 
ENDBRANCH   1  21
TORSDOF 1
ENDMDL
MODEL 8
REMARK VINA RESULT:      -6.2      5.475      8.137
REMARK  1 active torsions:
REMARK  status: ('A' for Active; 'I' for Inactive)
REMARK    1  A    between atoms: O1_2  and  C2_3 
ROOT
HETATM    1  C2  UNL     1      23.024   4.467  48.201  1.00  0.00     0.066 C 
HETATM    2  C3  UNL     1      23.928   4.466  49.209  1.00  0.00     0.014 C 
HETATM    3  C4  UNL     1      24.985   4.659  50.285  1.00  0.00     0.088 C 
HETATM    4  C5  UNL     1      26.261   4.136  49.778  1.00  0.00     0.031 C 
HETATM    5  N1  UNL     1      26.755   2.952  49.813  1.00  0.00    -0.304 NA
HETATM    6  C6  UNL     1      27.182   4.821  48.914  1.00  0.00     0.051 C 
HETATM    7  C7  UNL     1      27.629   5.971  48.344  1.00  0.00     0.008 C 
HETATM    8  C8  UNL     1      28.420   6.942  47.514  1.00  0.00     0.087 C 
HETATM    9  C9  UNL     1      27.664   8.201  47.285  1.00  0.00     0.278 C 
HETATM   10  N2  UNL     1      26.243   7.982  47.479  1.00  0.00     0.090 N 
HETATM   11  C10 UNL     1      25.597   8.668  46.356  1.00  0.00     0.274 C 
HETATM   12  C11 UNL     1      24.125   8.862  46.527  1.00  0.00     0.056 C 
HETATM   13  C12 UNL     1      23.346   7.607  46.580  1.00  0.00     0.169 C 
HETATM   14  O2  UNL     1      23.646   6.709  47.577  1.00  0.00    -0.385 OA
HETATM   15  C13 UNL     1      22.795   5.600  47.296  1.00  0.00     0.231 C 
HETATM   16  C14 UNL     1      25.906   8.709  48.709  1.00  0.00     0.292 C 
HETATM   17  C15 UNL     1      26.498   8.016  49.863  1.00  0.00     0.150 C 
HETATM   18  N3  UNL     1      27.054   6.689  49.497  1.00  0.00    -0.391 N 
HETATM   19  H7  UNL     1      26.196   2.206  50.266  1.00  0.00     0.186 HD
HETATM   20  H25 UNL     1      27.098   6.030  50.361  1.00  0.00     0.159 HD
ENDROOT
BRANCH   1  21
HETATM   21  O1  UNL     1      22.110   3.534  47.688  1.00  0.00    -0.358 OA
HETATM   22  C1  UNL     1      22.320   2.143  47.805  1.00  0.00     0.209 C 
ENDBRANCH   1  21
TORSDOF 1
ENDMDL
MODEL 9
REMARK VINA RESULT:      -6.1      2.549      5.532
REMARK  1 active torsions:
REMARK  status: ('A' for Active; 'I' for Inactive)
REMARK    1  A    between atoms: O1_2  and  C2_3 
ROOT
HETATM    1  C2  UNL     1      26.272   4.651  49.187  1.00  0.00     0.066 C 
HETATM    2  C3  UNL     1      25.006   5.124  49.115  1.00  0.00     0.014 C 
HETATM    3  C4  UNL     1      23.544   5.537  49.197  1.00  0.00     0.088 C 
HETATM    4  C5  UNL     1      22.773   4.692  48.274  1.00  0.00     0.031 C 
HETATM    5  N1  UNL     1      22.517   4.834  47.025  1.00  0.00    -0.304 NA
HETATM    6  C6  UNL     1      22.292   3.363  48.532  1.00  0.00     0.051 C 
HETATM    7  C7  UNL     1      22.005   2.364  49.406  1.00  0.00     0.008 C 
HETATM    8  C8  UNL     1      21.574   1.041  49.975  1.00  0.00     0.087 C 
HETATM    9  C9  UNL     1      22.139   0.825  51.333  1.00  0.00     0.278 C 
HETATM   10  N2  UNL     1      23.303   1.668  51.538  1.00  0.00     0.090 N 
HETATM   11  C10 UNL     1      24.296   0.795  52.171  1.00  0.00     0.274 C 
HETATM   12  C11 UNL     1      25.449   1.527  52.779  1.00  0.00     0.056 C 
HETATM   13  C12 UNL     1      26.290   2.255  51.805  1.00  0.00     0.169 C 
HETATM   14  O2  UNL     1      25.689   3.228  51.042  1.00  0.00    -0.385 OA
HETATM   15  C13 UNL     1      26.731   3.661  50.170  1.00  0.00     0.231 C 
HETATM   16  C14 UNL     1      22.883   2.669  52.526  1.00  0.00     0.292 C 
HETATM   17  C15 UNL     1      21.923   3.595  51.905  1.00  0.00     0.150 C 
HETATM   18  N3  UNL     1      21.828   3.404  50.436  1.00  0.00    -0.391 N 
HETATM   19  H7  UNL     1      22.894   5.670  46.544  1.00  0.00     0.186 HD
HETATM   20  H25 UNL     1      21.474   4.309  49.946  1.00  0.00     0.159 HD
ENDROOT
BRANCH   1  21
HETATM   21  O1  UNL     1      27.454   4.863  48.459  1.00  0.00    -0.358 OA
HETATM   22  C1  UNL     1      27.994   6.155  48.277  1.00  0.00     0.209 C 
ENDBRANCH   1  21
TORSDOF 1
ENDMDL
