MODEL 1
REMARK VINA RESULT:      -9.7      0.000      0.000
REMARK  5 active torsions:
REMARK  status: ('A' for Active; 'I' for Inactive)
REMARK    1  A    between atoms: N1_1  and  C1_2 
REMARK    2  A    between atoms: C2_3  and  C3_4 
REMARK    3  A    between atoms: C6_9  and  N4_10 
REMARK    4  A    between atoms: C8_14  and  C9_15 
REMARK    5  A    between atoms: C13_19  and  O1_20 
ROOT
HETATM    1  C3  UNL     1      25.404   1.238  52.140  1.00  0.00     0.100 A 
HETATM    2  N2  UNL     1      25.910   2.133  51.270  1.00  0.00    -0.240 NA
HETATM    3  C4  UNL     1      25.183   3.020  50.564  1.00  0.00     0.124 A 
HETATM    4  C5  UNL     1      25.754   3.917  49.686  1.00  0.00     0.172 A 
HETATM    5  N3  UNL     1      24.924   4.751  49.041  1.00  0.00    -0.073 NA
HETATM    6  C6  UNL     1      23.588   4.706  49.252  1.00  0.00     0.722 A 
HETATM    7  N5  UNL     1      23.027   3.836  50.105  1.00  0.00    -0.041 NA
HETATM    8  C7  UNL     1      23.827   2.982  50.771  1.00  0.00     0.199 A 
HETATM    9  N6  UNL     1      23.287   2.107  51.626  1.00  0.00    -0.224 NA
HETATM   10  C8  UNL     1      24.053   1.240  52.310  1.00  0.00     0.099 A 
ENDROOT
BRANCH   1  11
HETATM   11  C2  UNL     1      26.424   0.385  52.712  1.00  0.00     0.023 C 
HETATM   12  C1  UNL     1      27.128   1.096  53.643  1.00  0.00     0.052 C 
HETATM   13  P1  UNL     1      28.575   0.493  54.665  1.00  0.00     0.009 P 
HETATM   14  C18 UNL     1      29.411  -0.875  54.234  1.00  0.00    -0.008 C 
HETATM   15  C17 UNL     1      29.101  -1.527  53.152  1.00  0.00     0.014 C 
HETATM   16  C16 UNL     1      27.785  -1.745  52.638  1.00  0.00     0.002 C 
HETATM   17  C15 UNL     1      26.721  -1.022  52.455  1.00  0.00     0.016 C 
BRANCH  12  18
HETATM   18  N1  UNL     1      26.688   2.464  53.811  1.00  0.00    -0.397 N 
HETATM   19  H1  UNL     1      26.369   3.343  53.385  1.00  0.00     0.156 HD
HETATM   20  H2  UNL     1      26.748   2.486  54.872  1.00  0.00     0.156 HD
ENDBRANCH  12  18
ENDBRANCH   1  11
BRANCH  10  21
HETATM   21  C9  UNL     1      23.319   0.325  53.154  1.00  0.00    -0.002 A 
HETATM   22  C10 UNL     1      21.969   0.217  52.767  1.00  0.00     0.014 A 
HETATM   23  C11 UNL     1      21.030  -0.572  53.417  1.00  0.00     0.004 A 
HETATM   24  C12 UNL     1      21.399  -1.315  54.515  1.00  0.00     0.036 A 
HETATM   25  C13 UNL     1      22.700  -1.235  54.919  1.00  0.00     0.066 A 
HETATM   26  C14 UNL     1      23.597  -0.443  54.251  1.00  0.00     0.050 A 
BRANCH  25  27
HETATM   27  O1  UNL     1      23.177  -1.931  55.999  1.00  0.00    -0.361 OA
HETATM   28  H9  UNL     1      22.544  -2.175  56.730  1.00  0.00     0.217 HD
ENDBRANCH  25  27
ENDBRANCH  10  21
BRANCH   6  29
HETATM   29  N4  UNL     1      22.721   5.602  48.558  1.00  0.00    -0.231 N 
HETATM   30  H4  UNL     1      22.114   5.642  47.707  1.00  0.00     0.174 HD
HETATM   31  H5  UNL     1      22.583   6.574  48.966  1.00  0.00     0.174 HD
ENDBRANCH   6  29
TORSDOF 5
ENDMDL
MODEL 2
REMARK VINA RESULT:      -8.7      3.775      7.447
REMARK  5 active torsions:
REMARK  status: ('A' for Active; 'I' for Inactive)
REMARK    1  A    between atoms: N1_1  and  C1_2 
REMARK    2  A    between atoms: C2_3  and  C3_4 
REMARK    3  A    between atoms: C6_9  and  N4_10 
REMARK    4  A    between atoms: C8_14  and  C9_15 
REMARK    5  A    between atoms: C13_19  and  O1_20 
ROOT
HETATM    1  C3  UNL     1      24.526   2.238  51.069  1.00  0.00     0.100 A 
HETATM    2  N2  UNL     1      24.517   1.104  51.795  1.00  0.00    -0.240 NA
HETATM    3  C4  UNL     1      25.586   0.579  52.422  1.00  0.00     0.124 A 
HETATM    4  C5  UNL     1      25.519  -0.587  53.155  1.00  0.00     0.172 A 
HETATM    5  N3  UNL     1      26.653  -1.009  53.734  1.00  0.00    -0.073 NA
HETATM    6  C6  UNL     1      27.806  -0.312  53.599  1.00  0.00     0.722 A 
HETATM    7  N5  UNL     1      27.877   0.823  52.888  1.00  0.00    -0.041 NA
HETATM    8  C7  UNL     1      26.760   1.278  52.292  1.00  0.00     0.199 A 
HETATM    9  N6  UNL     1      26.810   2.408  51.578  1.00  0.00    -0.224 NA
HETATM   10  C8  UNL     1      25.715   2.895  50.969  1.00  0.00     0.099 A 
ENDROOT
BRANCH   1  11
HETATM   11  C2  UNL     1      23.238   2.526  50.475  1.00  0.00     0.023 C 
HETATM   12  C1  UNL     1      22.485   3.236  51.367  1.00  0.00     0.052 C 
HETATM   13  P1  UNL     1      20.732   3.846  51.130  1.00  0.00     0.009 P 
HETATM   14  C18 UNL     1      19.766   3.216  49.937  1.00  0.00    -0.008 C 
HETATM   15  C17 UNL     1      20.197   2.256  49.172  1.00  0.00     0.014 C 
HETATM   16  C16 UNL     1      21.525   2.107  48.663  1.00  0.00     0.002 C 
HETATM   17  C15 UNL     1      22.727   2.206  49.144  1.00  0.00     0.016 C 
BRANCH  12  18
HETATM   18  N1  UNL     1      23.146   3.508  52.626  1.00  0.00    -0.397 N 
HETATM   19  H1  UNL     1      23.122   3.952  53.553  1.00  0.00     0.156 HD
HETATM   20  H2  UNL     1      24.043   2.979  52.413  1.00  0.00     0.156 HD
ENDBRANCH  12  18
ENDBRANCH   1  11
BRANCH  10  21
HETATM   21  C9  UNL     1      25.941   4.094  50.193  1.00  0.00    -0.002 A 
HETATM   22  C10 UNL     1      27.085   3.988  49.379  1.00  0.00     0.014 A 
HETATM   23  C11 UNL     1      27.550   4.999  48.550  1.00  0.00     0.004 A 
HETATM   24  C12 UNL     1      26.880   6.200  48.487  1.00  0.00     0.036 A 
HETATM   25  C13 UNL     1      25.767   6.338  49.264  1.00  0.00     0.066 A 
HETATM   26  C14 UNL     1      25.340   5.316  50.071  1.00  0.00     0.050 A 
BRANCH  25  27
HETATM   27  O1  UNL     1      25.023   7.489  49.282  1.00  0.00    -0.361 OA
HETATM   28  H9  UNL     1      25.496   8.366  49.243  1.00  0.00     0.217 HD
ENDBRANCH  25  27
ENDBRANCH  10  21
BRANCH   6  29
HETATM   29  N4  UNL     1      29.003  -0.775  54.224  1.00  0.00    -0.231 N 
HETATM   30  H4  UNL     1      29.596  -1.633  54.296  1.00  0.00     0.174 HD
HETATM   31  H5  UNL     1      29.538  -0.093  54.839  1.00  0.00     0.174 HD
ENDBRANCH   6  29
TORSDOF 5
ENDMDL
MODEL 3
REMARK VINA RESULT:      -8.5      3.149      6.187
REMARK  5 active torsions:
REMARK  status: ('A' for Active; 'I' for Inactive)
REMARK    1  A    between atoms: N1_1  and  C1_2 
REMARK    2  A    between atoms: C2_3  and  C3_4 
REMARK    3  A    between atoms: C6_9  and  N4_10 
REMARK    4  A    between atoms: C8_14  and  C9_15 
REMARK    5  A    between atoms: C13_19  and  O1_20 
ROOT
HETATM    1  C3  UNL     1      22.846   2.294  51.821  1.00  0.00     0.100 A 
HETATM    2  N2  UNL     1      21.532   2.196  51.544  1.00  0.00    -0.240 NA
HETATM    3  C4  UNL     1      20.699   1.278  52.066  1.00  0.00     0.124 A 
HETATM    4  C5  UNL     1      19.358   1.224  51.748  1.00  0.00     0.172 A 
HETATM    5  N3  UNL     1      18.630   0.262  52.334  1.00  0.00    -0.073 NA
HETATM    6  C6  UNL     1      19.197  -0.611  53.200  1.00  0.00     0.722 A 
HETATM    7  N5  UNL     1      20.500  -0.563  53.515  1.00  0.00    -0.041 NA
HETATM    8  C7  UNL     1      21.263   0.388  52.945  1.00  0.00     0.199 A 
HETATM    9  N6  UNL     1      22.565   0.452  53.246  1.00  0.00    -0.224 NA
HETATM   10  C8  UNL     1      23.360   1.388  52.699  1.00  0.00     0.099 A 
ENDROOT
BRANCH   1  11
HETATM   11  C2  UNL     1      23.494   3.350  51.072  1.00  0.00     0.023 C 
HETATM   12  C1  UNL     1      23.268   4.543  51.699  1.00  0.00     0.052 C 
HETATM   13  P1  UNL     1      23.851   6.234  51.148  1.00  0.00     0.009 P 
HETATM   14  C18 UNL     1      24.367   6.492  49.592  1.00  0.00    -0.008 C 
HETATM   15  C17 UNL     1      24.335   5.531  48.715  1.00  0.00     0.014 C 
HETATM   16  C16 UNL     1      24.623   4.152  48.956  1.00  0.00     0.002 C 
HETATM   17  C15 UNL     1      24.311   3.276  49.863  1.00  0.00     0.016 C 
BRANCH  12  18
HETATM   18  N1  UNL     1      22.475   4.446  52.905  1.00  0.00    -0.397 N 
HETATM   19  H1  UNL     1      22.129   4.886  53.767  1.00  0.00     0.156 HD
HETATM   20  H2  UNL     1      22.135   3.450  52.751  1.00  0.00     0.156 HD
ENDBRANCH  12  18
ENDBRANCH   1  11
BRANCH  10  21
HETATM   21  C9  UNL     1      24.751   1.295  53.082  1.00  0.00    -0.002 A 
HETATM   22  C10 UNL     1      25.215  -0.034  53.063  1.00  0.00     0.014 A 
HETATM   23  C11 UNL     1      26.503  -0.417  53.410  1.00  0.00     0.004 A 
HETATM   24  C12 UNL     1      27.420   0.532  53.802  1.00  0.00     0.036 A 
HETATM   25  C13 UNL     1      27.004   1.831  53.833  1.00  0.00     0.066 A 
HETATM   26  C14 UNL     1      25.722   2.169  53.484  1.00  0.00     0.050 A 
BRANCH  25  27
HETATM   27  O1  UNL     1      27.831   2.858  54.208  1.00  0.00    -0.361 OA
HETATM   28  H9  UNL     1      27.536   3.468  54.940  1.00  0.00     0.217 HD
ENDBRANCH  25  27
ENDBRANCH  10  21
BRANCH   6  29
HETATM   29  N4  UNL     1      18.406  -1.627  53.816  1.00  0.00    -0.231 N 
HETATM   30  H4  UNL     1      17.990  -1.876  54.742  1.00  0.00     0.174 HD
HETATM   31  H5  UNL     1      18.087  -2.442  53.212  1.00  0.00     0.174 HD
ENDBRANCH   6  29
TORSDOF 5
ENDMDL
MODEL 4
REMARK VINA RESULT:      -8.4      2.995      5.746
REMARK  5 active torsions:
REMARK  status: ('A' for Active; 'I' for Inactive)
REMARK    1  A    between atoms: N1_1  and  C1_2 
REMARK    2  A    between atoms: C2_3  and  C3_4 
REMARK    3  A    between atoms: C6_9  and  N4_10 
REMARK    4  A    between atoms: C8_14  and  C9_15 
REMARK    5  A    between atoms: C13_19  and  O1_20 
ROOT
HETATM    1  C3  UNL     1      23.651   1.612  51.609  1.00  0.00     0.100 A 
HETATM    2  N2  UNL     1      24.871   2.149  51.424  1.00  0.00    -0.240 NA
HETATM    3  C4  UNL     1      25.948   1.905  52.194  1.00  0.00     0.124 A 
HETATM    4  C5  UNL     1      27.177   2.482  51.957  1.00  0.00     0.172 A 
HETATM    5  N3  UNL     1      28.174   2.160  52.796  1.00  0.00    -0.073 NA
HETATM    6  C6  UNL     1      27.970   1.304  53.825  1.00  0.00     0.722 A 
HETATM    7  N5  UNL     1      26.777   0.739  54.059  1.00  0.00    -0.041 NA
HETATM    8  C7  UNL     1      25.752   1.038  53.240  1.00  0.00     0.199 A 
HETATM    9  N6  UNL     1      24.554   0.485  53.458  1.00  0.00    -0.224 NA
HETATM   10  C8  UNL     1      23.506   0.758  52.660  1.00  0.00     0.099 A 
ENDROOT
BRANCH   1  11
HETATM   11  C2  UNL     1      22.680   2.098  50.651  1.00  0.00     0.023 C 
HETATM   12  C1  UNL     1      22.195   3.301  51.081  1.00  0.00     0.052 C 
HETATM   13  P1  UNL     1      20.898   4.358  50.242  1.00  0.00     0.009 P 
HETATM   14  C18 UNL     1      19.904   3.721  49.076  1.00  0.00    -0.008 C 
HETATM   15  C17 UNL     1      19.981   2.463  48.754  1.00  0.00     0.014 C 
HETATM   16  C16 UNL     1      21.174   1.681  48.664  1.00  0.00     0.002 C 
HETATM   17  C15 UNL     1      22.242   1.517  49.384  1.00  0.00     0.016 C 
BRANCH  12  18
HETATM   18  N1  UNL     1      22.756   3.761  52.333  1.00  0.00    -0.397 N 
HETATM   19  H1  UNL     1      23.546   4.180  52.840  1.00  0.00     0.156 HD
HETATM   20  H2  UNL     1      21.915   3.529  52.940  1.00  0.00     0.156 HD
ENDBRANCH  12  18
ENDBRANCH   1  11
BRANCH  10  21
HETATM   21  C9  UNL     1      22.268   0.125  53.055  1.00  0.00    -0.002 A 
HETATM   22  C10 UNL     1      22.471  -0.861  54.040  1.00  0.00     0.014 A 
HETATM   23  C11 UNL     1      21.460  -1.642  54.583  1.00  0.00     0.004 A 
HETATM   24  C12 UNL     1      20.160  -1.475  54.161  1.00  0.00     0.036 A 
HETATM   25  C13 UNL     1      19.927  -0.528  53.207  1.00  0.00     0.066 A 
HETATM   26  C14 UNL     1      20.953   0.224  52.695  1.00  0.00     0.050 A 
BRANCH  25  27
HETATM   27  O1  UNL     1      18.674  -0.276  52.714  1.00  0.00    -0.361 OA
HETATM   28  H9  UNL     1      17.884  -0.636  53.205  1.00  0.00     0.217 HD
ENDBRANCH  25  27
ENDBRANCH  10  21
BRANCH   6  29
HETATM   29  N4  UNL     1      29.043   0.972  54.705  1.00  0.00    -0.231 N 
HETATM   30  H4  UNL     1      29.641   0.159  54.978  1.00  0.00     0.174 HD
HETATM   31  H5  UNL     1      29.427   1.740  55.331  1.00  0.00     0.174 HD
ENDBRANCH   6  29
TORSDOF 5
ENDMDL
MODEL 5
REMARK VINA RESULT:      -8.0      3.296      6.195
REMARK  5 active torsions:
REMARK  status: ('A' for Active; 'I' for Inactive)
REMARK    1  A    between atoms: N1_1  and  C1_2 
REMARK    2  A    between atoms: C2_3  and  C3_4 
REMARK    3  A    between atoms: C6_9  and  N4_10 
REMARK    4  A    between atoms: C8_14  and  C9_15 
REMARK    5  A    between atoms: C13_19  and  O1_20 
ROOT
HETATM    1  C3  UNL     1      24.179   3.060  51.363  1.00  0.00     0.100 A 
HETATM    2  N2  UNL     1      25.509   3.052  51.573  1.00  0.00    -0.240 NA
HETATM    3  C4  UNL     1      26.153   2.223  52.416  1.00  0.00     0.124 A 
HETATM    4  C5  UNL     1      27.520   2.257  52.591  1.00  0.00     0.172 A 
HETATM    5  N3  UNL     1      28.046   1.380  53.460  1.00  0.00    -0.073 NA
HETATM    6  C6  UNL     1      27.258   0.504  54.129  1.00  0.00     0.722 A 
HETATM    7  N5  UNL     1      25.928   0.466  53.962  1.00  0.00    -0.041 NA
HETATM    8  C7  UNL     1      25.364   1.332  53.098  1.00  0.00     0.199 A 
HETATM    9  N6  UNL     1      24.039   1.310  52.919  1.00  0.00    -0.224 NA
HETATM   10  C8  UNL     1      23.439   2.157  52.064  1.00  0.00     0.099 A 
ENDROOT
BRANCH   1  11
HETATM   11  C2  UNL     1      23.771   4.095  50.436  1.00  0.00     0.023 C 
HETATM   12  C1  UNL     1      23.589   5.262  51.124  1.00  0.00     0.052 C 
HETATM   13  P1  UNL     1      23.036   6.907  50.426  1.00  0.00     0.009 P 
HETATM   14  C18 UNL     1      22.311   7.000  48.935  1.00  0.00    -0.008 C 
HETATM   15  C17 UNL     1      22.076   5.922  48.245  1.00  0.00     0.014 C 
HETATM   16  C16 UNL     1      22.918   4.771  48.154  1.00  0.00     0.002 C 
HETATM   17  C15 UNL     1      23.592   4.037  48.987  1.00  0.00     0.016 C 
BRANCH  12  18
HETATM   18  N1  UNL     1      23.844   5.166  52.545  1.00  0.00    -0.397 N 
HETATM   19  H1  UNL     1      24.411   4.783  53.312  1.00  0.00     0.156 HD
HETATM   20  H2  UNL     1      23.051   5.802  52.858  1.00  0.00     0.156 HD
ENDBRANCH  12  18
ENDBRANCH   1  11
BRANCH  10  21
HETATM   21  C9  UNL     1      21.999   2.046  52.019  1.00  0.00    -0.002 A 
HETATM   22  C10 UNL     1      21.579   0.729  51.751  1.00  0.00     0.014 A 
HETATM   23  C11 UNL     1      20.252   0.342  51.628  1.00  0.00     0.004 A 
HETATM   24  C12 UNL     1      19.248   1.273  51.771  1.00  0.00     0.036 A 
HETATM   25  C13 UNL     1      19.618   2.560  52.031  1.00  0.00     0.066 A 
HETATM   26  C14 UNL     1      20.941   2.903  52.145  1.00  0.00     0.050 A 
BRANCH  25  27
HETATM   27  O1  UNL     1      18.704   3.568  52.192  1.00  0.00    -0.361 OA
HETATM   28  H9  UNL     1      19.033   4.508  52.250  1.00  0.00     0.217 HD
ENDBRANCH  25  27
ENDBRANCH  10  21
BRANCH   6  29
HETATM   29  N4  UNL     1      27.835  -0.423  55.048  1.00  0.00    -0.231 N 
HETATM   30  H4  UNL     1      28.142  -1.421  55.102  1.00  0.00     0.174 HD
HETATM   31  H5  UNL     1      28.064  -0.074  56.026  1.00  0.00     0.174 HD
ENDBRANCH   6  29
TORSDOF 5
ENDMDL
MODEL 6
REMARK VINA RESULT:      -8.0      3.672      6.742
REMARK  5 active torsions:
REMARK  status: ('A' for Active; 'I' for Inactive)
REMARK    1  A    between atoms: N1_1  and  C1_2 
REMARK    2  A    between atoms: C2_3  and  C3_4 
REMARK    3  A    between atoms: C6_9  and  N4_10 
REMARK    4  A    between atoms: C8_14  and  C9_15 
REMARK    5  A    between atoms: C13_19  and  O1_20 
ROOT
HETATM    1  C3  UNL     1      21.424   1.609  51.455  1.00  0.00     0.100 A 
HETATM    2  N2  UNL     1      20.137   1.378  51.134  1.00  0.00    -0.240 NA
HETATM    3  C4  UNL     1      19.342   0.472  51.734  1.00  0.00     0.124 A 
HETATM    4  C5  UNL     1      18.028   0.276  51.366  1.00  0.00     0.172 A 
HETATM    5  N3  UNL     1      17.337  -0.656  52.039  1.00  0.00    -0.073 NA
HETATM    6  C6  UNL     1      17.916  -1.368  53.036  1.00  0.00     0.722 A 
HETATM    7  N5  UNL     1      19.194  -1.182  53.398  1.00  0.00    -0.041 NA
HETATM    8  C7  UNL     1      19.919  -0.255  52.745  1.00  0.00     0.199 A 
HETATM    9  N6  UNL     1      21.195  -0.055  53.092  1.00  0.00    -0.224 NA
HETATM   10  C8  UNL     1      21.951   0.862  52.464  1.00  0.00     0.099 A 
ENDROOT
BRANCH   1  11
HETATM   11  C2  UNL     1      22.035   2.608  50.604  1.00  0.00     0.023 C 
HETATM   12  C1  UNL     1      21.804   3.846  51.135  1.00  0.00     0.052 C 
HETATM   13  P1  UNL     1      22.344   5.493  50.430  1.00  0.00     0.009 P 
HETATM   14  C18 UNL     1      22.820   5.627  48.846  1.00  0.00    -0.008 C 
HETATM   15  C17 UNL     1      22.785   4.596  48.054  1.00  0.00     0.014 C 
HETATM   16  C16 UNL     1      23.102   3.246  48.402  1.00  0.00     0.002 C 
HETATM   17  C15 UNL     1      22.826   2.445  49.386  1.00  0.00     0.016 C 
BRANCH  12  18
HETATM   18  N1  UNL     1      21.040   3.838  52.363  1.00  0.00    -0.397 N 
HETATM   19  H1  UNL     1      20.250   3.464  52.904  1.00  0.00     0.156 HD
HETATM   20  H2  UNL     1      21.621   4.566  52.877  1.00  0.00     0.156 HD
ENDBRANCH  12  18
ENDBRANCH   1  11
BRANCH  10  21
HETATM   21  C9  UNL     1      23.323   0.924  52.917  1.00  0.00    -0.002 A 
HETATM   22  C10 UNL     1      23.800  -0.336  53.326  1.00  0.00     0.014 A 
HETATM   23  C11 UNL     1      25.074  -0.564  53.828  1.00  0.00     0.004 A 
HETATM   24  C12 UNL     1      25.961   0.481  53.951  1.00  0.00     0.036 A 
HETATM   25  C13 UNL     1      25.532   1.717  53.565  1.00  0.00     0.066 A 
HETATM   26  C14 UNL     1      24.265   1.902  53.074  1.00  0.00     0.050 A 
BRANCH  25  27
HETATM   27  O1  UNL     1      26.329   2.829  53.643  1.00  0.00    -0.361 OA
HETATM   28  H9  UNL     1      27.121   2.809  54.249  1.00  0.00     0.217 HD
ENDBRANCH  25  27
ENDBRANCH  10  21
BRANCH   6  29
HETATM   29  N4  UNL     1      17.166  -2.355  53.742  1.00  0.00    -0.231 N 
HETATM   30  H4  UNL     1      17.302  -3.247  54.270  1.00  0.00     0.174 HD
HETATM   31  H5  UNL     1      16.113  -2.225  53.807  1.00  0.00     0.174 HD
ENDBRANCH   6  29
TORSDOF 5
ENDMDL
MODEL 7
REMARK VINA RESULT:      -7.9      6.748     10.018
REMARK  5 active torsions:
REMARK  status: ('A' for Active; 'I' for Inactive)
REMARK    1  A    between atoms: N1_1  and  C1_2 
REMARK    2  A    between atoms: C2_3  and  C3_4 
REMARK    3  A    between atoms: C6_9  and  N4_10 
REMARK    4  A    between atoms: C8_14  and  C9_15 
REMARK    5  A    between atoms: C13_19  and  O1_20 
ROOT
HETATM    1  C3  UNL     1      29.472   7.302  47.541  1.00  0.00     0.100 A 
HETATM    2  N2  UNL     1      30.785   7.420  47.268  1.00  0.00    -0.240 NA
HETATM    3  C4  UNL     1      31.703   6.454  47.456  1.00  0.00     0.124 A 
HETATM    4  C5  UNL     1      33.038   6.628  47.158  1.00  0.00     0.172 A 
HETATM    5  N3  UNL     1      33.856   5.590  47.389  1.00  0.00    -0.073 NA
HETATM    6  C6  UNL     1      33.380   4.426  47.892  1.00  0.00     0.722 A 
HETATM    7  N5  UNL     1      32.082   4.250  48.183  1.00  0.00    -0.041 NA
HETATM    8  C7  UNL     1      31.231   5.270  47.965  1.00  0.00     0.199 A 
HETATM    9  N6  UNL     1      29.934   5.114  48.250  1.00  0.00    -0.224 NA
HETATM   10  C8  UNL     1      29.052   6.108  48.045  1.00  0.00     0.099 A 
ENDROOT
BRANCH   1  11
HETATM   11  C2  UNL     1      28.741   8.524  47.281  1.00  0.00     0.023 C 
HETATM   12  C1  UNL     1      28.817   9.331  48.381  1.00  0.00     0.052 C 
HETATM   13  P1  UNL     1      28.030  11.014  48.602  1.00  0.00     0.009 P 
HETATM   14  C18 UNL     1      26.803  11.518  47.604  1.00  0.00    -0.008 C 
HETATM   15  C17 UNL     1      26.337  10.732  46.678  1.00  0.00     0.014 C 
HETATM   16  C16 UNL     1      27.095   9.827  45.872  1.00  0.00     0.002 C 
HETATM   17  C15 UNL     1      28.036   8.956  46.076  1.00  0.00     0.016 C 
BRANCH  12  18
HETATM   18  N1  UNL     1      29.582   8.778  49.478  1.00  0.00    -0.397 N 
HETATM   19  H1  UNL     1      30.291   8.912  50.210  1.00  0.00     0.156 HD
HETATM   20  H2  UNL     1      29.165   7.801  49.443  1.00  0.00     0.156 HD
ENDBRANCH  12  18
ENDBRANCH   1  11
BRANCH  10  21
HETATM   21  C9  UNL     1      27.698   5.805  48.450  1.00  0.00    -0.002 A 
HETATM   22  C10 UNL     1      27.565   4.475  48.893  1.00  0.00     0.014 A 
HETATM   23  C11 UNL     1      26.372   3.908  49.316  1.00  0.00     0.004 A 
HETATM   24  C12 UNL     1      25.218   4.659  49.321  1.00  0.00     0.036 A 
HETATM   25  C13 UNL     1      25.309   5.952  48.898  1.00  0.00     0.066 A 
HETATM   26  C14 UNL     1      26.508   6.476  48.486  1.00  0.00     0.050 A 
BRANCH  25  27
HETATM   27  O1  UNL     1      24.226   6.791  48.861  1.00  0.00    -0.361 OA
HETATM   28  H9  UNL     1      24.080   7.419  49.621  1.00  0.00     0.217 HD
ENDBRANCH  25  27
ENDBRANCH  10  21
BRANCH   6  29
HETATM   29  N4  UNL     1      34.264   3.332  48.130  1.00  0.00    -0.231 N 
HETATM   30  H4  UNL     1      34.427   2.345  47.827  1.00  0.00     0.174 HD
HETATM   31  H5  UNL     1      35.051   3.473  48.831  1.00  0.00     0.174 HD
ENDBRANCH   6  29
TORSDOF 5
ENDMDL
MODEL 8
REMARK VINA RESULT:      -7.7      2.711      5.260
REMARK  5 active torsions:
REMARK  status: ('A' for Active; 'I' for Inactive)
REMARK    1  A    between atoms: N1_1  and  C1_2 
REMARK    2  A    between atoms: C2_3  and  C3_4 
REMARK    3  A    between atoms: C6_9  and  N4_10 
REMARK    4  A    between atoms: C8_14  and  C9_15 
REMARK    5  A    between atoms: C13_19  and  O1_20 
ROOT
HETATM    1  C3  UNL     1      23.660   3.138  50.269  1.00  0.00     0.100 A 
HETATM    2  N2  UNL     1      23.579   4.228  49.484  1.00  0.00    -0.240 NA
HETATM    3  C4  UNL     1      24.617   5.016  49.147  1.00  0.00     0.124 A 
HETATM    4  C5  UNL     1      24.478   6.123  48.336  1.00  0.00     0.172 A 
HETATM    5  N3  UNL     1      25.588   6.829  48.071  1.00  0.00    -0.073 NA
HETATM    6  C6  UNL     1      26.787   6.460  48.582  1.00  0.00     0.722 A 
HETATM    7  N5  UNL     1      26.929   5.384  49.370  1.00  0.00    -0.041 NA
HETATM    8  C7  UNL     1      25.837   4.651  49.659  1.00  0.00     0.199 A 
HETATM    9  N6  UNL     1      25.958   3.575  50.444  1.00  0.00    -0.224 NA
HETATM   10  C8  UNL     1      24.892   2.817  50.754  1.00  0.00     0.099 A 
ENDROOT
BRANCH   1  11
HETATM   11  C2  UNL     1      22.370   2.521  50.494  1.00  0.00     0.023 C 
HETATM   12  C1  UNL     1      21.721   3.197  51.489  1.00  0.00     0.052 C 
HETATM   13  P1  UNL     1      20.033   2.811  52.199  1.00  0.00     0.009 P 
HETATM   14  C18 UNL     1      19.325   1.330  51.954  1.00  0.00    -0.008 C 
HETATM   15  C17 UNL     1      19.950   0.396  51.300  1.00  0.00     0.014 C 
HETATM   16  C16 UNL     1      20.790   0.576  50.156  1.00  0.00     0.002 C 
HETATM   17  C15 UNL     1      21.739   1.393  49.813  1.00  0.00     0.016 C 
BRANCH  12  18
HETATM   18  N1  UNL     1      22.460   4.314  52.036  1.00  0.00    -0.397 N 
HETATM   19  H1  UNL     1      22.487   5.308  52.294  1.00  0.00     0.156 HD
HETATM   20  H2  UNL     1      23.361   3.783  52.233  1.00  0.00     0.156 HD
ENDBRANCH  12  18
ENDBRANCH   1  11
BRANCH  10  21
HETATM   21  C9  UNL     1      25.174   1.720  51.652  1.00  0.00    -0.002 A 
HETATM   22  C10 UNL     1      26.506   1.276  51.541  1.00  0.00     0.014 A 
HETATM   23  C11 UNL     1      27.041   0.222  52.268  1.00  0.00     0.004 A 
HETATM   24  C12 UNL     1      26.255  -0.462  53.168  1.00  0.00     0.036 A 
HETATM   25  C13 UNL     1      24.958  -0.059  53.301  1.00  0.00     0.066 A 
HETATM   26  C14 UNL     1      24.466   0.988  52.564  1.00  0.00     0.050 A 
BRANCH  25  27
HETATM   27  O1  UNL     1      24.086  -0.666  54.166  1.00  0.00    -0.361 OA
HETATM   28  H9  UNL     1      24.415  -1.423  54.726  1.00  0.00     0.217 HD
ENDBRANCH  25  27
ENDBRANCH  10  21
BRANCH   6  29
HETATM   29  N4  UNL     1      27.957   7.222  48.288  1.00  0.00    -0.231 N 
HETATM   30  H4  UNL     1      28.974   7.093  48.084  1.00  0.00     0.174 HD
HETATM   31  H5  UNL     1      27.861   8.280  48.239  1.00  0.00     0.174 HD
ENDBRANCH   6  29
TORSDOF 5
ENDMDL
MODEL 9
REMARK VINA RESULT:      -7.6      7.253     10.678
REMARK  5 active torsions:
REMARK  status: ('A' for Active; 'I' for Inactive)
REMARK    1  A    between atoms: N1_1  and  C1_2 
REMARK    2  A    between atoms: C2_3  and  C3_4 
REMARK    3  A    between atoms: C6_9  and  N4_10 
REMARK    4  A    between atoms: C8_14  and  C9_15 
REMARK    5  A    between atoms: C13_19  and  O1_20 
ROOT
HETATM    1  C3  UNL     1      29.360   7.197  47.660  1.00  0.00     0.100 A 
HETATM    2  N2  UNL     1      28.056   7.315  47.971  1.00  0.00    -0.240 NA
HETATM    3  C4  UNL     1      27.284   6.324  48.453  1.00  0.00     0.124 A 
HETATM    4  C5  UNL     1      25.950   6.501  48.757  1.00  0.00     0.172 A 
HETATM    5  N3  UNL     1      25.286   5.437  49.232  1.00  0.00    -0.073 NA
HETATM    6  C6  UNL     1      25.909   4.246  49.404  1.00  0.00     0.722 A 
HETATM    7  N5  UNL     1      27.206   4.068  49.111  1.00  0.00    -0.041 NA
HETATM    8  C7  UNL     1      27.905   5.113  48.632  1.00  0.00     0.199 A 
HETATM    9  N6  UNL     1      29.200   4.956  48.334  1.00  0.00    -0.224 NA
HETATM   10  C8  UNL     1      29.932   5.976  47.854  1.00  0.00     0.099 A 
ENDROOT
BRANCH   1  11
HETATM   11  C2  UNL     1      29.914   8.420  47.117  1.00  0.00     0.023 C 
HETATM   12  C1  UNL     1      30.336   9.212  48.147  1.00  0.00     0.052 C 
HETATM   13  P1  UNL     1      31.104  10.914  48.018  1.00  0.00     0.009 P 
HETATM   14  C18 UNL     1      30.971  11.805  46.624  1.00  0.00    -0.008 C 
HETATM   15  C17 UNL     1      30.292  11.353  45.611  1.00  0.00     0.014 C 
HETATM   16  C16 UNL     1      30.232   9.996  45.166  1.00  0.00     0.002 C 
HETATM   17  C15 UNL     1      30.087   8.833  45.726  1.00  0.00     0.016 C 
BRANCH  12  18
HETATM   18  N1  UNL     1      30.132   8.646  49.462  1.00  0.00    -0.397 N 
HETATM   19  H1  UNL     1      29.589   8.624  50.335  1.00  0.00     0.156 HD
HETATM   20  H2  UNL     1      30.941   7.957  49.429  1.00  0.00     0.156 HD
ENDBRANCH  12  18
ENDBRANCH   1  11
BRANCH  10  21
HETATM   21  C9  UNL     1      31.299   5.635  47.531  1.00  0.00    -0.002 A 
HETATM   22  C10 UNL     1      31.444   4.269  47.222  1.00  0.00     0.014 A 
HETATM   23  C11 UNL     1      32.651   3.664  46.900  1.00  0.00     0.004 A 
HETATM   24  C12 UNL     1      33.807   4.411  46.867  1.00  0.00     0.036 A 
HETATM   25  C13 UNL     1      33.704   5.739  47.162  1.00  0.00     0.066 A 
HETATM   26  C14 UNL     1      32.493   6.300  47.477  1.00  0.00     0.050 A 
BRANCH  25  27
HETATM   27  O1  UNL     1      34.788   6.577  47.161  1.00  0.00    -0.361 OA
HETATM   28  H9  UNL     1      34.761   7.398  47.727  1.00  0.00     0.217 HD
ENDBRANCH  25  27
ENDBRANCH  10  21
BRANCH   6  29
HETATM   29  N4  UNL     1      25.187   3.125  49.912  1.00  0.00    -0.231 N 
HETATM   30  H4  UNL     1      25.341   2.139  50.223  1.00  0.00     0.174 HD
HETATM   31  H5  UNL     1      24.139   3.234  50.055  1.00  0.00     0.174 HD
ENDBRANCH   6  29
TORSDOF 5
ENDMDL
