MODEL 1
REMARK VINA RESULT:      -9.4      0.000      0.000
REMARK  3 active torsions:
REMARK  status: ('A' for Active; 'I' for Inactive)
REMARK    1  A    between atoms: C3_3  and  C5_5 
REMARK    2  A    between atoms: C5_5  and  O1_7 
REMARK    3  A    between atoms: C5_5  and  C7_8 
ROOT
HETATM    1  C7  UNL     1      25.390   1.305  53.438  1.00  0.00    -0.004 C 
HETATM    2  C8  UNL     1      24.429   0.495  53.781  1.00  0.00    -0.054 C 
HETATM    3  C9  UNL     1      24.940  -0.719  54.482  1.00  0.00     0.048 C 
HETATM    4  C10 UNL     1      23.008   0.193  53.675  1.00  0.00     0.003 C 
HETATM    5  C11 UNL     1      21.864   0.605  53.120  1.00  0.00    -0.026 C 
HETATM    6  C12 UNL     1      21.890   1.757  52.286  1.00  0.00     0.032 C 
HETATM    7  C13 UNL     1      21.415   1.946  50.900  1.00  0.00    -0.006 C 
HETATM    8  C14 UNL     1      21.885   0.874  49.960  1.00  0.00     0.011 C 
HETATM    9  C15 UNL     1      22.112   3.301  50.537  1.00  0.00     0.031 A 
HETATM   10  C16 UNL     1      22.713   3.707  51.535  1.00  0.00    -0.062 A 
HETATM   11  C17 UNL     1      23.495   4.322  52.679  1.00  0.00     0.200 C 
HETATM   12  O2  UNL     1      24.241   3.433  53.370  1.00  0.00    -0.374 OA
HETATM   13  C18 UNL     1      25.251   2.737  52.888  1.00  0.00     0.178 C 
HETATM   14  C19 UNL     1      25.614   2.699  51.484  1.00  0.00     0.019 C 
HETATM   15  C20 UNL     1      25.469   3.505  50.394  1.00  0.00    -0.017 C 
HETATM   16  C21 UNL     1      26.534   3.427  49.347  1.00  0.00     0.052 C 
HETATM   17  C22 UNL     1      24.450   4.489  49.997  1.00  0.00     0.162 C 
HETATM   18  O3  UNL     1      24.864   5.396  49.230  1.00  0.00    -0.292 OA
HETATM   19  C23 UNL     1      22.983   4.610  50.352  1.00  0.00     0.078 A 
HETATM   20  C24 UNL     1      22.787   6.071  50.778  1.00  0.00     0.022 C 
ENDROOT
BRANCH   1  21
HETATM   21  C5  UNL     1      26.811   0.971  53.723  1.00  0.00     0.104 C 
HETATM   22  C6  UNL     1      27.666   2.186  53.789  1.00  0.00     0.056 C 
BRANCH  21  23
HETATM   23  C3  UNL     1      27.364  -0.231  53.074  1.00  0.00    -0.050 C 
HETATM   24  C2  UNL     1      28.417  -0.868  53.601  1.00  0.00    -0.025 C 
HETATM   25  C1  UNL     1      29.060  -2.098  53.089  1.00  0.00     0.036 C 
HETATM   26  C4  UNL     1      26.821  -0.880  51.834  1.00  0.00     0.046 C 
ENDBRANCH  21  23
BRANCH  21  27
HETATM   27  O1  UNL     1      26.819   0.519  55.130  1.00  0.00    -0.381 OA
HETATM   28  H11 UNL     1      27.501   1.022  55.560  1.00  0.00     0.211 HD
ENDBRANCH  21  27
ENDBRANCH   1  21
TORSDOF 3
ENDMDL
MODEL 2
REMARK VINA RESULT:      -8.7      1.313      1.634
REMARK  3 active torsions:
REMARK  status: ('A' for Active; 'I' for Inactive)
REMARK    1  A    between atoms: C3_3  and  C5_5 
REMARK    2  A    between atoms: C5_5  and  O1_7 
REMARK    3  A    between atoms: C5_5  and  C7_8 
ROOT
HETATM    1  C7  UNL     1      24.010   1.336  52.636  1.00  0.00    -0.004 C 
HETATM    2  C8  UNL     1      22.963   0.567  52.537  1.00  0.00    -0.054 C 
HETATM    3  C9  UNL     1      23.152  -0.733  53.245  1.00  0.00     0.048 C 
HETATM    4  C10 UNL     1      21.662   0.371  51.912  1.00  0.00     0.003 C 
HETATM    5  C11 UNL     1      20.804   0.903  51.036  1.00  0.00    -0.026 C 
HETATM    6  C12 UNL     1      21.162   2.117  50.386  1.00  0.00     0.032 C 
HETATM    7  C13 UNL     1      21.216   2.452  48.948  1.00  0.00    -0.006 C 
HETATM    8  C14 UNL     1      21.952   1.433  48.128  1.00  0.00     0.011 C 
HETATM    9  C15 UNL     1      22.041   3.783  48.992  1.00  0.00     0.031 A 
HETATM   10  C16 UNL     1      22.263   4.062  50.173  1.00  0.00    -0.062 A 
HETATM   11  C17 UNL     1      22.608   4.527  51.574  1.00  0.00     0.200 C 
HETATM   12  O2  UNL     1      23.031   3.535  52.388  1.00  0.00    -0.374 OA
HETATM   13  C18 UNL     1      24.123   2.815  52.221  1.00  0.00     0.178 C 
HETATM   14  C19 UNL     1      24.958   2.870  51.037  1.00  0.00     0.019 C 
HETATM   15  C20 UNL     1      25.236   3.773  50.053  1.00  0.00    -0.017 C 
HETATM   16  C21 UNL     1      26.599   3.710  49.442  1.00  0.00     0.052 C 
HETATM   17  C22 UNL     1      24.457   4.852  49.427  1.00  0.00     0.162 C 
HETATM   18  O3  UNL     1      25.146   5.790  48.949  1.00  0.00    -0.292 OA
HETATM   19  C23 UNL     1      22.964   5.041  49.257  1.00  0.00     0.078 A 
HETATM   20  C24 UNL     1      22.679   6.472  49.734  1.00  0.00     0.022 C 
ENDROOT
BRANCH   1  21
HETATM   21  C5  UNL     1      25.225   0.885  53.365  1.00  0.00     0.104 C 
HETATM   22  C6  UNL     1      25.828   1.979  54.172  1.00  0.00     0.056 C 
BRANCH  21  23
HETATM   23  C3  UNL     1      26.133  -0.034  52.656  1.00  0.00    -0.050 C 
HETATM   24  C2  UNL     1      26.357  -1.269  53.124  1.00  0.00    -0.025 C 
HETATM   25  C1  UNL     1      27.208  -2.312  52.510  1.00  0.00     0.036 C 
HETATM   26  C4  UNL     1      26.849   0.266  51.371  1.00  0.00     0.046 C 
ENDBRANCH  21  23
BRANCH  21  27
HETATM   27  O1  UNL     1      24.723  -0.025  54.415  1.00  0.00    -0.381 OA
HETATM   28  H11 UNL     1      24.646  -0.878  54.004  1.00  0.00     0.211 HD
ENDBRANCH  21  27
ENDBRANCH   1  21
TORSDOF 3
ENDMDL
MODEL 3
REMARK VINA RESULT:      -8.4      8.171     10.511
REMARK  3 active torsions:
REMARK  status: ('A' for Active; 'I' for Inactive)
REMARK    1  A    between atoms: C3_3  and  C5_5 
REMARK    2  A    between atoms: C5_5  and  O1_7 
REMARK    3  A    between atoms: C5_5  and  C7_8 
ROOT
HETATM    1  C7  UNL     1      32.714   5.951  47.882  1.00  0.00    -0.004 C 
HETATM    2  C8  UNL     1      31.652   5.198  47.837  1.00  0.00    -0.054 C 
HETATM    3  C9  UNL     1      31.987   3.772  47.549  1.00  0.00     0.048 C 
HETATM    4  C10 UNL     1      30.196   5.161  47.839  1.00  0.00     0.003 C 
HETATM    5  C11 UNL     1      29.106   5.932  47.873  1.00  0.00    -0.026 C 
HETATM    6  C12 UNL     1      29.274   7.344  47.920  1.00  0.00     0.032 C 
HETATM    7  C13 UNL     1      28.721   8.403  47.051  1.00  0.00    -0.006 C 
HETATM    8  C14 UNL     1      28.894   8.121  45.588  1.00  0.00     0.011 C 
HETATM    9  C15 UNL     1      29.625   9.615  47.460  1.00  0.00     0.031 A 
HETATM   10  C16 UNL     1      30.379   9.247  48.365  1.00  0.00    -0.062 A 
HETATM   11  C17 UNL     1      31.361   8.934  49.476  1.00  0.00     0.200 C 
HETATM   12  O2  UNL     1      31.986   7.745  49.333  1.00  0.00    -0.374 OA
HETATM   13  C18 UNL     1      32.800   7.416  48.349  1.00  0.00     0.178 C 
HETATM   14  C19 UNL     1      33.022   8.234  47.173  1.00  0.00     0.019 C 
HETATM   15  C20 UNL     1      32.934   9.555  46.844  1.00  0.00    -0.017 C 
HETATM   16  C21 UNL     1      33.868  10.053  45.788  1.00  0.00     0.052 C 
HETATM   17  C22 UNL     1      32.088  10.658  47.324  1.00  0.00     0.162 C 
HETATM   18  O3  UNL     1      32.595  11.803  47.202  1.00  0.00    -0.292 OA
HETATM   19  C23 UNL     1      30.707  10.664  47.947  1.00  0.00     0.078 A 
HETATM   20  C24 UNL     1      30.829  11.544  49.197  1.00  0.00     0.022 C 
ENDROOT
BRANCH   1  21
HETATM   21  C5  UNL     1      34.067   5.383  47.635  1.00  0.00     0.104 C 
HETATM   22  C6  UNL     1      35.132   6.164  48.319  1.00  0.00     0.056 C 
BRANCH  21  23
HETATM   23  C3  UNL     1      34.345   4.871  46.282  1.00  0.00    -0.050 C 
HETATM   24  C2  UNL     1      33.977   5.568  45.199  1.00  0.00    -0.025 C 
HETATM   25  C1  UNL     1      34.216   5.206  43.784  1.00  0.00     0.036 C 
HETATM   26  C4  UNL     1      35.071   3.597  45.964  1.00  0.00     0.046 C 
ENDBRANCH  21  23
BRANCH  21  27
HETATM   27  O1  UNL     1      34.090   4.113  48.390  1.00  0.00    -0.381 OA
HETATM   28  H11 UNL     1      33.449   4.213  49.084  1.00  0.00     0.211 HD
ENDBRANCH  21  27
ENDBRANCH   1  21
TORSDOF 3
ENDMDL
MODEL 4
REMARK VINA RESULT:      -7.7      1.865      4.138
REMARK  3 active torsions:
REMARK  status: ('A' for Active; 'I' for Inactive)
REMARK    1  A    between atoms: C3_3  and  C5_5 
REMARK    2  A    between atoms: C5_5  and  O1_7 
REMARK    3  A    between atoms: C5_5  and  C7_8 
ROOT
HETATM    1  C7  UNL     1      24.976   1.038  52.653  1.00  0.00    -0.004 C 
HETATM    2  C8  UNL     1      25.555   2.078  52.124  1.00  0.00    -0.054 C 
HETATM    3  C9  UNL     1      26.968   2.228  52.583  1.00  0.00     0.048 C 
HETATM    4  C10 UNL     1      25.381   3.281  51.322  1.00  0.00     0.003 C 
HETATM    5  C11 UNL     1      24.469   4.013  50.675  1.00  0.00    -0.026 C 
HETATM    6  C12 UNL     1      23.113   3.582  50.694  1.00  0.00     0.032 C 
HETATM    7  C13 UNL     1      21.886   4.302  51.089  1.00  0.00    -0.006 C 
HETATM    8  C14 UNL     1      22.007   4.999  52.413  1.00  0.00     0.011 C 
HETATM    9  C15 UNL     1      20.879   3.109  51.216  1.00  0.00     0.031 A 
HETATM   10  C16 UNL     1      21.461   2.073  50.885  1.00  0.00    -0.062 A 
HETATM   11  C17 UNL     1      22.049   0.729  50.506  1.00  0.00     0.200 C 
HETATM   12  O2  UNL     1      23.289   0.518  50.997  1.00  0.00    -0.374 OA
HETATM   13  C18 UNL     1      23.608   0.439  52.275  1.00  0.00     0.178 C 
HETATM   14  C19 UNL     1      22.692   0.733  53.359  1.00  0.00     0.019 C 
HETATM   15  C20 UNL     1      21.341   0.731  53.553  1.00  0.00    -0.017 C 
HETATM   16  C21 UNL     1      20.857   0.436  54.937  1.00  0.00     0.052 C 
HETATM   17  C22 UNL     1      20.195   0.960  52.661  1.00  0.00     0.162 C 
HETATM   18  O3  UNL     1      19.130   0.392  53.014  1.00  0.00    -0.292 OA
HETATM   19  C23 UNL     1      20.067   1.760  51.381  1.00  0.00     0.078 A 
HETATM   20  C24 UNL     1      19.375   0.822  50.383  1.00  0.00     0.022 C 
ENDROOT
BRANCH   1  21
HETATM   21  C5  UNL     1      25.699   0.166  53.617  1.00  0.00     0.104 C 
HETATM   22  C6  UNL     1      25.951   0.857  54.910  1.00  0.00     0.056 C 
BRANCH  21  23
HETATM   23  C3  UNL     1      26.761  -0.700  53.077  1.00  0.00    -0.050 C 
HETATM   24  C2  UNL     1      27.995  -0.672  53.595  1.00  0.00    -0.025 C 
HETATM   25  C1  UNL     1      29.151  -1.501  53.187  1.00  0.00     0.036 C 
HETATM   26  C4  UNL     1      26.592  -1.699  51.969  1.00  0.00     0.046 C 
ENDBRANCH  21  23
BRANCH  21  27
HETATM   27  O1  UNL     1      24.715  -0.863  54.012  1.00  0.00    -0.381 OA
HETATM   28  H11 UNL     1      24.545  -1.372  53.228  1.00  0.00     0.211 HD
ENDBRANCH  21  27
ENDBRANCH   1  21
TORSDOF 3
ENDMDL
MODEL 5
REMARK VINA RESULT:      -7.7      3.673      6.581
REMARK  3 active torsions:
REMARK  status: ('A' for Active; 'I' for Inactive)
REMARK    1  A    between atoms: C3_3  and  C5_5 
REMARK    2  A    between atoms: C5_5  and  O1_7 
REMARK    3  A    between atoms: C5_5  and  C7_8 
ROOT
HETATM    1  C7  UNL     1      24.369   5.417  49.707  1.00  0.00    -0.004 C 
HETATM    2  C8  UNL     1      23.213   5.739  49.201  1.00  0.00    -0.054 C 
HETATM    3  C9  UNL     1      22.229   4.620  49.291  1.00  0.00     0.048 C 
HETATM    4  C10 UNL     1      22.457   6.731  48.449  1.00  0.00     0.003 C 
HETATM    5  C11 UNL     1      22.562   7.907  47.824  1.00  0.00    -0.026 C 
HETATM    6  C12 UNL     1      23.830   8.551  47.792  1.00  0.00     0.032 C 
HETATM    7  C13 UNL     1      24.619   9.055  46.650  1.00  0.00    -0.006 C 
HETATM    8  C14 UNL     1      24.749   8.061  45.533  1.00  0.00     0.011 C 
HETATM    9  C15 UNL     1      26.015   9.262  47.331  1.00  0.00     0.031 A 
HETATM   10  C16 UNL     1      25.904   8.996  48.530  1.00  0.00    -0.062 A 
HETATM   11  C17 UNL     1      25.913   8.702  50.017  1.00  0.00     0.200 C 
HETATM   12  O2  UNL     1      25.244   7.577  50.355  1.00  0.00    -0.374 OA
HETATM   13  C18 UNL     1      25.561   6.353  49.982  1.00  0.00     0.178 C 
HETATM   14  C19 UNL     1      26.590   6.041  49.010  1.00  0.00     0.019 C 
HETATM   15  C20 UNL     1      27.728   6.627  48.538  1.00  0.00    -0.017 C 
HETATM   16  C21 UNL     1      28.817   5.715  48.073  1.00  0.00     0.052 C 
HETATM   17  C22 UNL     1      28.148   8.028  48.379  1.00  0.00     0.162 C 
HETATM   18  O3  UNL     1      29.392   8.212  48.411  1.00  0.00    -0.292 OA
HETATM   19  C23 UNL     1      27.346   9.299  48.187  1.00  0.00     0.078 A 
HETATM   20  C24 UNL     1      27.910  10.293  49.210  1.00  0.00     0.022 C 
ENDROOT
BRANCH   1  21
HETATM   21  C5  UNL     1      24.609   4.059  50.265  1.00  0.00     0.104 C 
HETATM   22  C6  UNL     1      24.756   3.035  49.195  1.00  0.00     0.056 C 
BRANCH  21  23
HETATM   23  C3  UNL     1      23.861   3.688  51.479  1.00  0.00    -0.050 C 
HETATM   24  C2  UNL     1      23.454   2.426  51.672  1.00  0.00    -0.025 C 
HETATM   25  C1  UNL     1      22.730   1.895  52.848  1.00  0.00     0.036 C 
HETATM   26  C4  UNL     1      23.516   4.614  52.608  1.00  0.00     0.046 C 
ENDBRANCH  21  23
BRANCH  21  27
HETATM   27  O1  UNL     1      25.976   4.112  50.823  1.00  0.00    -0.381 OA
HETATM   28  H11 UNL     1      26.173   5.034  50.938  1.00  0.00     0.211 HD
ENDBRANCH  21  27
ENDBRANCH   1  21
TORSDOF 3
ENDMDL
MODEL 6
REMARK VINA RESULT:      -7.5      8.194     11.241
REMARK  3 active torsions:
REMARK  status: ('A' for Active; 'I' for Inactive)
REMARK    1  A    between atoms: C3_3  and  C5_5 
REMARK    2  A    between atoms: C5_5  and  O1_7 
REMARK    3  A    between atoms: C5_5  and  C7_8 
ROOT
HETATM    1  C7  UNL     1      32.787   6.946  47.233  1.00  0.00    -0.004 C 
HETATM    2  C8  UNL     1      33.732   7.814  47.456  1.00  0.00    -0.054 C 
HETATM    3  C9  UNL     1      34.850   7.235  48.257  1.00  0.00     0.048 C 
HETATM    4  C10 UNL     1      34.142   9.208  47.350  1.00  0.00     0.003 C 
HETATM    5  C11 UNL     1      33.732  10.417  46.957  1.00  0.00    -0.026 C 
HETATM    6  C12 UNL     1      32.419  10.551  46.426  1.00  0.00     0.032 C 
HETATM    7  C13 UNL     1      31.316  11.453  46.816  1.00  0.00    -0.006 C 
HETATM    8  C14 UNL     1      31.054  11.467  48.293  1.00  0.00     0.011 C 
HETATM    9  C15 UNL     1      30.113  10.774  46.078  1.00  0.00     0.031 A 
HETATM   10  C16 UNL     1      30.546   9.821  45.426  1.00  0.00    -0.062 A 
HETATM   11  C17 UNL     1      30.937   8.625  44.581  1.00  0.00     0.200 C 
HETATM   12  O2  UNL     1      31.813   7.793  45.186  1.00  0.00    -0.374 OA
HETATM   13  C18 UNL     1      31.583   7.101  46.285  1.00  0.00     0.178 C 
HETATM   14  C19 UNL     1      30.400   7.256  47.109  1.00  0.00     0.019 C 
HETATM   15  C20 UNL     1      29.114   7.677  46.939  1.00  0.00    -0.017 C 
HETATM   16  C21 UNL     1      28.077   7.060  47.822  1.00  0.00     0.052 C 
HETATM   17  C22 UNL     1      28.484   8.650  46.033  1.00  0.00     0.162 C 
HETATM   18  O3  UNL     1      27.271   8.427  45.782  1.00  0.00    -0.292 OA
HETATM   19  C23 UNL     1      29.037   9.878  45.340  1.00  0.00     0.078 A 
HETATM   20  C24 UNL     1      28.609   9.742  43.873  1.00  0.00     0.022 C 
ENDROOT
BRANCH   1  21
HETATM   21  C5  UNL     1      32.875   5.563  47.774  1.00  0.00     0.104 C 
HETATM   22  C6  UNL     1      32.659   5.527  49.245  1.00  0.00     0.056 C 
BRANCH  21  23
HETATM   23  C3  UNL     1      33.908   4.681  47.204  1.00  0.00    -0.050 C 
HETATM   24  C2  UNL     1      34.131   4.655  45.883  1.00  0.00    -0.025 C 
HETATM   25  C1  UNL     1      35.150   3.855  45.169  1.00  0.00     0.036 C 
HETATM   26  C4  UNL     1      34.818   3.783  47.990  1.00  0.00     0.046 C 
ENDBRANCH  21  23
BRANCH  21  27
HETATM   27  O1  UNL     1      31.663   4.881  47.273  1.00  0.00    -0.381 OA
HETATM   28  H11 UNL     1      30.994   5.026  47.932  1.00  0.00     0.211 HD
ENDBRANCH  21  27
ENDBRANCH   1  21
TORSDOF 3
ENDMDL
MODEL 7
REMARK VINA RESULT:      -7.5      2.608      5.530
REMARK  3 active torsions:
REMARK  status: ('A' for Active; 'I' for Inactive)
REMARK    1  A    between atoms: C3_3  and  C5_5 
REMARK    2  A    between atoms: C5_5  and  O1_7 
REMARK    3  A    between atoms: C5_5  and  C7_8 
ROOT
HETATM    1  C7  UNL     1      24.006   3.706  50.830  1.00  0.00    -0.004 C 
HETATM    2  C8  UNL     1      25.277   3.474  50.664  1.00  0.00    -0.054 C 
HETATM    3  C9  UNL     1      25.815   2.533  51.689  1.00  0.00     0.048 C 
HETATM    4  C10 UNL     1      26.487   3.837  49.939  1.00  0.00     0.003 C 
HETATM    5  C11 UNL     1      26.970   4.669  49.012  1.00  0.00    -0.026 C 
HETATM    6  C12 UNL     1      26.089   5.618  48.424  1.00  0.00     0.032 C 
HETATM    7  C13 UNL     1      26.206   7.085  48.301  1.00  0.00    -0.006 C 
HETATM    8  C14 UNL     1      26.572   7.761  49.590  1.00  0.00     0.011 C 
HETATM    9  C15 UNL     1      24.736   7.461  47.913  1.00  0.00     0.031 A 
HETATM   10  C16 UNL     1      24.086   6.419  47.799  1.00  0.00    -0.062 A 
HETATM   11  C17 UNL     1      23.171   5.224  47.625  1.00  0.00     0.200 C 
HETATM   12  O2  UNL     1      23.313   4.283  48.585  1.00  0.00    -0.374 OA
HETATM   13  C18 UNL     1      23.060   4.450  49.868  1.00  0.00     0.178 C 
HETATM   14  C19 UNL     1      22.745   5.729  50.474  1.00  0.00     0.019 C 
HETATM   15  C20 UNL     1      22.212   6.919  50.073  1.00  0.00    -0.017 C 
HETATM   16  C21 UNL     1      21.450   7.698  51.097  1.00  0.00     0.052 C 
HETATM   17  C22 UNL     1      22.213   7.642  48.793  1.00  0.00     0.162 C 
HETATM   18  O3  UNL     1      21.234   8.414  48.622  1.00  0.00    -0.292 OA
HETATM   19  C23 UNL     1      23.186   7.623  47.632  1.00  0.00     0.078 A 
HETATM   20  C24 UNL     1      22.320   7.437  46.379  1.00  0.00     0.022 C 
ENDROOT
BRANCH   1  21
HETATM   21  C5  UNL     1      23.256   3.088  51.955  1.00  0.00     0.104 C 
HETATM   22  C6  UNL     1      23.801   3.495  53.278  1.00  0.00     0.056 C 
BRANCH  21  23
HETATM   23  C3  UNL     1      22.820   1.690  51.787  1.00  0.00    -0.050 C 
HETATM   24  C2  UNL     1      22.904   0.821  52.803  1.00  0.00    -0.025 C 
HETATM   25  C1  UNL     1      22.477  -0.595  52.799  1.00  0.00     0.036 C 
HETATM   26  C4  UNL     1      22.221   1.108  50.540  1.00  0.00     0.046 C 
ENDBRANCH  21  23
BRANCH  21  27
HETATM   27  O1  UNL     1      21.940   3.760  51.951  1.00  0.00    -0.381 OA
HETATM   28  H11 UNL     1      21.778   4.006  51.047  1.00  0.00     0.211 HD
ENDBRANCH  21  27
ENDBRANCH   1  21
TORSDOF 3
ENDMDL
MODEL 8
REMARK VINA RESULT:      -7.5      3.868      6.541
REMARK  3 active torsions:
REMARK  status: ('A' for Active; 'I' for Inactive)
REMARK    1  A    between atoms: C3_3  and  C5_5 
REMARK    2  A    between atoms: C5_5  and  O1_7 
REMARK    3  A    between atoms: C5_5  and  C7_8 
ROOT
HETATM    1  C7  UNL     1      24.609   6.066  48.693  1.00  0.00    -0.004 C 
HETATM    2  C8  UNL     1      23.939   6.575  47.698  1.00  0.00    -0.054 C 
HETATM    3  C9  UNL     1      24.577   7.815  47.167  1.00  0.00     0.048 C 
HETATM    4  C10 UNL     1      22.716   6.515  46.909  1.00  0.00     0.003 C 
HETATM    5  C11 UNL     1      21.549   5.877  46.791  1.00  0.00    -0.026 C 
HETATM    6  C12 UNL     1      21.242   4.843  47.719  1.00  0.00     0.032 C 
HETATM    7  C13 UNL     1      20.063   4.659  48.591  1.00  0.00    -0.006 C 
HETATM    8  C14 UNL     1      19.702   5.890  49.369  1.00  0.00     0.011 C 
HETATM    9  C15 UNL     1      20.598   3.560  49.570  1.00  0.00     0.031 A 
HETATM   10  C16 UNL     1      21.732   3.236  49.209  1.00  0.00    -0.062 A 
HETATM   11  C17 UNL     1      23.127   2.743  48.879  1.00  0.00     0.200 C 
HETATM   12  O2  UNL     1      23.993   3.730  48.559  1.00  0.00    -0.374 OA
HETATM   13  C18 UNL     1      24.387   4.697  49.364  1.00  0.00     0.178 C 
HETATM   14  C19 UNL     1      23.820   4.945  50.675  1.00  0.00     0.019 C 
HETATM   15  C20 UNL     1      23.173   4.223  51.635  1.00  0.00    -0.017 C 
HETATM   16  C21 UNL     1      23.365   4.656  53.053  1.00  0.00     0.052 C 
HETATM   17  C22 UNL     1      22.286   3.051  51.586  1.00  0.00     0.162 C 
HETATM   18  O3  UNL     1      22.286   2.346  52.628  1.00  0.00    -0.292 OA
HETATM   19  C23 UNL     1      21.368   2.533  50.498  1.00  0.00     0.078 A 
HETATM   20  C24 UNL     1      21.694   1.040  50.368  1.00  0.00     0.022 C 
ENDROOT
BRANCH   1  21
HETATM   21  C5  UNL     1      25.843   6.723  49.200  1.00  0.00     0.104 C 
HETATM   22  C6  UNL     1      25.598   8.135  49.599  1.00  0.00     0.056 C 
BRANCH  21  23
HETATM   23  C3  UNL     1      27.106   6.408  48.509  1.00  0.00    -0.050 C 
HETATM   24  C2  UNL     1      27.775   7.358  47.842  1.00  0.00    -0.025 C 
HETATM   25  C1  UNL     1      29.064   7.207  47.134  1.00  0.00     0.036 C 
HETATM   26  C4  UNL     1      27.786   5.070  48.502  1.00  0.00     0.046 C 
ENDBRANCH  21  23
BRANCH  21  27
HETATM   27  O1  UNL     1      26.107   6.081  50.505  1.00  0.00    -0.381 OA
HETATM   28  H11 UNL     1      25.256   5.859  50.861  1.00  0.00     0.211 HD
ENDBRANCH  21  27
ENDBRANCH   1  21
TORSDOF 3
ENDMDL
MODEL 9
REMARK VINA RESULT:      -7.5      6.816     10.357
REMARK  3 active torsions:
REMARK  status: ('A' for Active; 'I' for Inactive)
REMARK    1  A    between atoms: C3_3  and  C5_5 
REMARK    2  A    between atoms: C5_5  and  O1_7 
REMARK    3  A    between atoms: C5_5  and  C7_8 
ROOT
HETATM    1  C7  UNL     1      27.700   7.946  48.143  1.00  0.00    -0.004 C 
HETATM    2  C8  UNL     1      27.796   6.656  48.293  1.00  0.00    -0.054 C 
HETATM    3  C9  UNL     1      26.576   6.069  48.920  1.00  0.00     0.048 C 
HETATM    4  C10 UNL     1      28.668   5.491  48.208  1.00  0.00     0.003 C 
HETATM    5  C11 UNL     1      29.917   5.107  47.930  1.00  0.00    -0.026 C 
HETATM    6  C12 UNL     1      30.870   6.101  47.571  1.00  0.00     0.032 C 
HETATM    7  C13 UNL     1      32.200   6.399  48.139  1.00  0.00    -0.006 C 
HETATM    8  C14 UNL     1      32.199   6.499  49.636  1.00  0.00     0.011 C 
HETATM    9  C15 UNL     1      32.468   7.814  47.520  1.00  0.00     0.031 A 
HETATM   10  C16 UNL     1      31.527   8.094  46.773  1.00  0.00    -0.062 A 
HETATM   11  C17 UNL     1      30.442   8.567  45.827  1.00  0.00     0.200 C 
HETATM   12  O2  UNL     1      29.189   8.340  46.277  1.00  0.00    -0.374 OA
HETATM   13  C18 UNL     1      28.652   8.869  47.359  1.00  0.00     0.178 C 
HETATM   14  C19 UNL     1      29.389   9.655  48.330  1.00  0.00     0.019 C 
HETATM   15  C20 UNL     1      30.513  10.428  48.340  1.00  0.00    -0.017 C 
HETATM   16  C21 UNL     1      30.542  11.565  49.311  1.00  0.00     0.052 C 
HETATM   17  C22 UNL     1      31.764  10.397  47.569  1.00  0.00     0.162 C 
HETATM   18  O3  UNL     1      32.343  11.509  47.457  1.00  0.00    -0.292 OA
HETATM   19  C23 UNL     1      32.486   9.260  46.876  1.00  0.00     0.078 A 
HETATM   20  C24 UNL     1      32.803   9.779  45.468  1.00  0.00     0.022 C 
ENDROOT
BRANCH   1  21
HETATM   21  C5  UNL     1      26.489   8.681  48.599  1.00  0.00     0.104 C 
HETATM   22  C6  UNL     1      26.400   8.741  50.083  1.00  0.00     0.056 C 
BRANCH  21  23
HETATM   23  C3  UNL     1      25.245   8.465  47.839  1.00  0.00    -0.050 C 
HETATM   24  C2  UNL     1      24.055   8.500  48.453  1.00  0.00    -0.025 C 
HETATM   25  C1  UNL     1      22.725   8.339  47.826  1.00  0.00     0.036 C 
HETATM   26  C4  UNL     1      25.156   8.235  46.359  1.00  0.00     0.046 C 
ENDBRANCH  21  23
BRANCH  21  27
HETATM   27  O1  UNL     1      26.749  10.094  48.253  1.00  0.00    -0.381 OA
HETATM   28  H11 UNL     1      26.246  10.265  47.466  1.00  0.00     0.211 HD
ENDBRANCH  21  27
ENDBRANCH   1  21
TORSDOF 3
ENDMDL
