MODEL 1
REMARK VINA RESULT:      -9.0      0.000      0.000
REMARK  8 active torsions:
REMARK  status: ('A' for Active; 'I' for Inactive)
REMARK    1  A    between atoms: O1_2  and  C2_3 
REMARK    2  A    between atoms: C6_8  and  C7_9 
REMARK    3  A    between atoms: C7_9  and  C8_10 
REMARK    4  A    between atoms: C8_10  and  O2_11 
REMARK    5  A    between atoms: C9_12  and  C10_13 
REMARK    6  A    between atoms: C11_14  and  C12_15 
REMARK    7  A    between atoms: C12_15  and  O3_16 
REMARK    8  A    between atoms: C17_23  and  C18_24 
ROOT
HETATM    1  C2  UNL     1      19.895   3.167  51.938  1.00  0.00     0.056 C 
HETATM    2  C3  UNL     1      21.209   3.444  51.732  1.00  0.00     0.102 C 
HETATM    3  C4  UNL     1      21.952   4.709  51.391  1.00  0.00     0.021 C 
HETATM    4 CL1  UNL     1      21.801   6.482  51.052  1.00  0.00    -0.088 Cl
HETATM    5  C5  UNL     1      23.259   4.329  51.317  1.00  0.00     0.020 C 
HETATM    6  C6  UNL     1      24.284   3.270  51.413  1.00  0.00     0.135 C 
HETATM    7  N1  UNL     1      23.781   2.016  51.950  1.00  0.00    -0.287 N 
HETATM    8  N2  UNL     1      22.834   1.203  51.292  1.00  0.00    -0.180 NA
HETATM    9  C13 UNL     1      22.051   0.678  52.199  1.00  0.00     0.057 C 
HETATM   10  C14 UNL     1      20.604   0.727  52.349  1.00  0.00     0.031 C 
HETATM   11  C15 UNL     1      19.775   1.748  52.237  1.00  0.00     0.035 C 
HETATM   12  C16 UNL     1      23.192   0.055  52.968  1.00  0.00     0.093 C 
HETATM   13  C17 UNL     1      24.061   1.273  53.192  1.00  0.00     0.143 C 
ENDROOT
BRANCH   6  14
HETATM   14  C7  UNL     1      24.860   3.059  50.016  1.00  0.00     0.095 C 
BRANCH  14  15
HETATM   15  C8  UNL     1      26.103   3.874  49.935  1.00  0.00     0.045 C 
HETATM   16  C9  UNL     1      26.282   4.834  49.021  1.00  0.00     0.032 C 
BRANCH  15  17
HETATM   17  O2  UNL     1      27.107   3.606  50.859  1.00  0.00    -0.365 OA
HETATM   18  H9  UNL     1      27.081   4.158  51.719  1.00  0.00     0.217 HD
ENDBRANCH  15  17
BRANCH  16  19
HETATM   19  C10 UNL     1      27.494   5.660  48.909  1.00  0.00     0.000 C 
HETATM   20  C11 UNL     1      28.557   5.205  48.278  1.00  0.00    -0.001 C 
BRANCH  20  21
HETATM   21  C12 UNL     1      29.768   6.071  48.185  1.00  0.00     0.191 C 
BRANCH  21  22
HETATM   22  O3  UNL     1      30.441   5.906  49.416  1.00  0.00    -0.397 OA
HETATM   23  H15 UNL     1      30.688   6.800  49.773  1.00  0.00     0.209 HD
ENDBRANCH  21  22
ENDBRANCH  20  21
ENDBRANCH  16  19
ENDBRANCH  14  15
ENDBRANCH   6  14
BRANCH  13  24
HETATM   24  C18 UNL     1      25.477   0.874  53.221  1.00  0.00    -0.034 A 
HETATM   25  C19 UNL     1      26.421   1.697  53.817  1.00  0.00     0.009 A 
HETATM   26  C20 UNL     1      27.733   1.263  53.812  1.00  0.00     0.001 A 
HETATM   27  C21 UNL     1      28.189   0.083  53.264  1.00  0.00     0.000 A 
HETATM   28  C22 UNL     1      27.207  -0.704  52.679  1.00  0.00     0.001 A 
HETATM   29  C23 UNL     1      25.877  -0.317  52.658  1.00  0.00     0.009 A 
ENDBRANCH  13  24
BRANCH   1  30
HETATM   30  O1  UNL     1      18.548   3.644  51.995  1.00  0.00    -0.359 OA
HETATM   31  C1  UNL     1      17.497   2.790  51.575  1.00  0.00     0.209 C 
ENDBRANCH   1  30
TORSDOF 8
ENDMDL
MODEL 2
REMARK VINA RESULT:      -8.4      2.531      5.321
REMARK  8 active torsions:
REMARK  status: ('A' for Active; 'I' for Inactive)
REMARK    1  A    between atoms: O1_2  and  C2_3 
REMARK    2  A    between atoms: C6_8  and  C7_9 
REMARK    3  A    between atoms: C7_9  and  C8_10 
REMARK    4  A    between atoms: C8_10  and  O2_11 
REMARK    5  A    between atoms: C9_12  and  C10_13 
REMARK    6  A    between atoms: C11_14  and  C12_15 
REMARK    7  A    between atoms: C12_15  and  O3_16 
REMARK    8  A    between atoms: C17_23  and  C18_24 
ROOT
HETATM    1  C2  UNL     1      19.679   1.184  52.277  1.00  0.00     0.056 C 
HETATM    2  C3  UNL     1      21.037   1.203  52.323  1.00  0.00     0.102 C 
HETATM    3  C4  UNL     1      22.063   0.217  52.814  1.00  0.00     0.021 C 
HETATM    4 CL1  UNL     1      22.328  -1.410  53.564  1.00  0.00    -0.088 Cl
HETATM    5  C5  UNL     1      23.261   0.827  52.586  1.00  0.00     0.020 C 
HETATM    6  C6  UNL     1      24.023   1.990  52.088  1.00  0.00     0.135 C 
HETATM    7  N1  UNL     1      23.209   2.958  51.372  1.00  0.00    -0.287 N 
HETATM    8  N2  UNL     1      22.195   3.732  51.974  1.00  0.00    -0.180 NA
HETATM    9  C13 UNL     1      21.220   3.865  51.113  1.00  0.00     0.057 C 
HETATM   10  C14 UNL     1      19.808   3.526  51.216  1.00  0.00     0.031 C 
HETATM   11  C15 UNL     1      19.230   2.438  51.689  1.00  0.00     0.035 C 
HETATM   12  C16 UNL     1      22.107   4.463  50.048  1.00  0.00     0.093 C 
HETATM   13  C17 UNL     1      23.181   3.400  49.966  1.00  0.00     0.143 C 
ENDROOT
BRANCH   6  14
HETATM   14  C7  UNL     1      24.700   2.645  53.288  1.00  0.00     0.095 C 
BRANCH  14  15
HETATM   15  C8  UNL     1      25.966   1.901  53.529  1.00  0.00     0.045 C 
HETATM   16  C9  UNL     1      26.041   0.566  53.488  1.00  0.00     0.032 C 
BRANCH  15  17
HETATM   17  O2  UNL     1      27.105   2.647  53.807  1.00  0.00    -0.365 OA
HETATM   18  H9  UNL     1      27.033   3.653  53.636  1.00  0.00     0.217 HD
ENDBRANCH  15  17
BRANCH  16  19
HETATM   19  C10 UNL     1      27.272  -0.206  53.720  1.00  0.00     0.000 C 
HETATM   20  C11 UNL     1      27.574  -1.230  52.950  1.00  0.00    -0.001 C 
BRANCH  20  21
HETATM   21  C12 UNL     1      28.831  -1.988  53.216  1.00  0.00     0.191 C 
BRANCH  21  22
HETATM   22  O3  UNL     1      28.516  -3.339  52.950  1.00  0.00    -0.397 OA
HETATM   23  H15 UNL     1      27.886  -3.380  52.183  1.00  0.00     0.209 HD
ENDBRANCH  21  22
ENDBRANCH  20  21
ENDBRANCH  16  19
ENDBRANCH  14  15
ENDBRANCH   6  14
BRANCH  13  24
HETATM   24  C18 UNL     1      24.469   4.021  49.616  1.00  0.00    -0.034 A 
HETATM   25  C19 UNL     1      24.525   5.363  49.272  1.00  0.00     0.009 A 
HETATM   26  C20 UNL     1      25.766   5.884  48.955  1.00  0.00     0.001 A 
HETATM   27  C21 UNL     1      26.955   5.187  48.952  1.00  0.00     0.000 A 
HETATM   28  C22 UNL     1      26.845   3.848  49.303  1.00  0.00     0.001 A 
HETATM   29  C23 UNL     1      25.627   3.277  49.629  1.00  0.00     0.009 A 
ENDBRANCH  13  24
BRANCH   1  30
HETATM   30  O1  UNL     1      18.465   0.479  52.550  1.00  0.00    -0.359 OA
HETATM   31  C1  UNL     1      18.531  -0.889  52.917  1.00  0.00     0.209 C 
ENDBRANCH   1  30
TORSDOF 8
ENDMDL
MODEL 3
REMARK VINA RESULT:      -8.3      3.041      5.253
REMARK  8 active torsions:
REMARK  status: ('A' for Active; 'I' for Inactive)
REMARK    1  A    between atoms: O1_2  and  C2_3 
REMARK    2  A    between atoms: C6_8  and  C7_9 
REMARK    3  A    between atoms: C7_9  and  C8_10 
REMARK    4  A    between atoms: C8_10  and  O2_11 
REMARK    5  A    between atoms: C9_12  and  C10_13 
REMARK    6  A    between atoms: C11_14  and  C12_15 
REMARK    7  A    between atoms: C12_15  and  O3_16 
REMARK    8  A    between atoms: C17_23  and  C18_24 
ROOT
HETATM    1  C2  UNL     1      22.448  -0.725  54.302  1.00  0.00     0.056 C 
HETATM    2  C3  UNL     1      22.942   0.230  53.471  1.00  0.00     0.102 C 
HETATM    3  C4  UNL     1      24.297   0.873  53.334  1.00  0.00     0.021 C 
HETATM    4 CL1  UNL     1      25.992   0.928  53.970  1.00  0.00    -0.088 Cl
HETATM    5  C5  UNL     1      24.151   1.763  52.313  1.00  0.00     0.020 C 
HETATM    6  C6  UNL     1      23.299   2.392  51.283  1.00  0.00     0.135 C 
HETATM    7  N1  UNL     1      22.009   1.743  51.117  1.00  0.00    -0.287 N 
HETATM    8  N2  UNL     1      21.004   1.726  52.107  1.00  0.00    -0.180 NA
HETATM    9  C13 UNL     1      20.400   0.567  52.054  1.00  0.00     0.057 C 
HETATM   10  C14 UNL     1      20.200  -0.448  53.078  1.00  0.00     0.031 C 
HETATM   11  C15 UNL     1      21.050  -0.940  53.961  1.00  0.00     0.035 C 
HETATM   12  C16 UNL     1      20.036   0.711  50.596  1.00  0.00     0.093 C 
HETATM   13  C17 UNL     1      21.400   0.992  50.004  1.00  0.00     0.143 C 
ENDROOT
BRANCH   6  14
HETATM   14  C7  UNL     1      23.114   3.856  51.669  1.00  0.00     0.095 C 
BRANCH  14  15
HETATM   15  C8  UNL     1      24.164   4.628  50.950  1.00  0.00     0.045 C 
HETATM   16  C9  UNL     1      24.684   4.231  49.783  1.00  0.00     0.032 C 
BRANCH  15  17
HETATM   17  O2  UNL     1      24.607   5.808  51.537  1.00  0.00    -0.365 OA
HETATM   18  H9  UNL     1      23.969   6.239  52.209  1.00  0.00     0.217 HD
ENDBRANCH  15  17
BRANCH  16  19
HETATM   19  C10 UNL     1      25.722   4.966  49.042  1.00  0.00     0.000 C 
HETATM   20  C11 UNL     1      26.988   4.623  49.149  1.00  0.00    -0.001 C 
BRANCH  20  21
HETATM   21  C12 UNL     1      28.012   5.392  48.384  1.00  0.00     0.191 C 
BRANCH  21  22
HETATM   22  O3  UNL     1      29.192   5.316  49.158  1.00  0.00    -0.397 OA
HETATM   23  H15 UNL     1      29.165   4.491  49.710  1.00  0.00     0.209 HD
ENDBRANCH  21  22
ENDBRANCH  20  21
ENDBRANCH  16  19
ENDBRANCH  14  15
ENDBRANCH   6  14
BRANCH  13  24
HETATM   24  C18 UNL     1      21.261   1.870  48.832  1.00  0.00    -0.034 A 
HETATM   25  C19 UNL     1      20.081   2.568  48.618  1.00  0.00     0.009 A 
HETATM   26  C20 UNL     1      20.017   3.376  47.499  1.00  0.00     0.001 A 
HETATM   27  C21 UNL     1      21.023   3.551  46.573  1.00  0.00     0.000 A 
HETATM   28  C22 UNL     1      22.182   2.831  46.831  1.00  0.00     0.001 A 
HETATM   29  C23 UNL     1      22.299   2.008  47.938  1.00  0.00     0.009 A 
ENDBRANCH  13  24
BRANCH   1  30
HETATM   30  O1  UNL     1      22.680  -1.634  55.382  1.00  0.00    -0.359 OA
HETATM   31  C1  UNL     1      23.953  -1.647  56.007  1.00  0.00     0.209 C 
ENDBRANCH   1  30
TORSDOF 8
ENDMDL
MODEL 4
REMARK VINA RESULT:      -7.9      2.763      7.225
REMARK  8 active torsions:
REMARK  status: ('A' for Active; 'I' for Inactive)
REMARK    1  A    between atoms: O1_2  and  C2_3 
REMARK    2  A    between atoms: C6_8  and  C7_9 
REMARK    3  A    between atoms: C7_9  and  C8_10 
REMARK    4  A    between atoms: C8_10  and  O2_11 
REMARK    5  A    between atoms: C9_12  and  C10_13 
REMARK    6  A    between atoms: C11_14  and  C12_15 
REMARK    7  A    between atoms: C12_15  and  O3_16 
REMARK    8  A    between atoms: C17_23  and  C18_24 
ROOT
HETATM    1  C2  UNL     1      26.782   0.673  52.672  1.00  0.00     0.056 C 
HETATM    2  C3  UNL     1      25.761   1.382  52.123  1.00  0.00     0.102 C 
HETATM    3  C4  UNL     1      25.714   2.530  51.150  1.00  0.00     0.021 C 
HETATM    4 CL1  UNL     1      26.694   3.664  50.133  1.00  0.00    -0.088 Cl
HETATM    5  C5  UNL     1      24.386   2.795  50.997  1.00  0.00     0.020 C 
HETATM    6  C6  UNL     1      22.980   2.490  51.332  1.00  0.00     0.135 C 
HETATM    7  N1  UNL     1      22.814   1.263  52.094  1.00  0.00    -0.287 N 
HETATM    8  N2  UNL     1      23.289   1.085  53.410  1.00  0.00    -0.180 NA
HETATM    9  C13 UNL     1      23.700  -0.152  53.530  1.00  0.00     0.057 C 
HETATM   10  C14 UNL     1      24.992  -0.689  53.925  1.00  0.00     0.031 C 
HETATM   11  C15 UNL     1      26.208  -0.331  53.557  1.00  0.00     0.035 C 
HETATM   12  C16 UNL     1      22.373  -0.738  53.109  1.00  0.00     0.093 C 
HETATM   13  C17 UNL     1      22.172  -0.029  51.788  1.00  0.00     0.143 C 
ENDROOT
BRANCH   6  14
HETATM   14  C7  UNL     1      22.422   3.679  52.107  1.00  0.00     0.095 C 
BRANCH  14  15
HETATM   15  C8  UNL     1      20.969   3.753  51.798  1.00  0.00     0.045 C 
HETATM   16  C9  UNL     1      20.498   4.194  50.626  1.00  0.00     0.032 C 
BRANCH  15  17
HETATM   17  O2  UNL     1      20.081   3.340  52.786  1.00  0.00    -0.365 OA
HETATM   18  H9  UNL     1      20.499   2.878  53.597  1.00  0.00     0.217 HD
ENDBRANCH  15  17
BRANCH  16  19
HETATM   19  C10 UNL     1      19.070   4.281  50.283  1.00  0.00     0.000 C 
HETATM   20  C11 UNL     1      18.683   4.278  49.025  1.00  0.00    -0.001 C 
BRANCH  20  21
HETATM   21  C12 UNL     1      17.227   4.369  48.715  1.00  0.00     0.191 C 
BRANCH  21  22
HETATM   22  O3  UNL     1      16.633   4.925  49.871  1.00  0.00    -0.397 OA
HETATM   23  H15 UNL     1      16.313   4.189  50.457  1.00  0.00     0.209 HD
ENDBRANCH  21  22
ENDBRANCH  20  21
ENDBRANCH  16  19
ENDBRANCH  14  15
ENDBRANCH   6  14
BRANCH  13  24
HETATM   24  C18 UNL     1      20.736   0.177  51.548  1.00  0.00    -0.034 A 
HETATM   25  C19 UNL     1      19.824   0.000  52.578  1.00  0.00     0.009 A 
HETATM   26  C20 UNL     1      18.490   0.210  52.286  1.00  0.00     0.001 A 
HETATM   27  C21 UNL     1      17.982   0.580  51.059  1.00  0.00     0.000 A 
HETATM   28  C22 UNL     1      18.934   0.743  50.061  1.00  0.00     0.001 A 
HETATM   29  C23 UNL     1      20.283   0.546  50.301  1.00  0.00     0.009 A 
ENDBRANCH  13  24
BRANCH   1  30
HETATM   30  O1  UNL     1      28.192   0.459  52.780  1.00  0.00    -0.359 OA
HETATM   31  C1  UNL     1      28.817   0.618  54.043  1.00  0.00     0.209 C 
ENDBRANCH   1  30
TORSDOF 8
ENDMDL
MODEL 5
REMARK VINA RESULT:      -7.8      2.435      5.755
REMARK  8 active torsions:
REMARK  status: ('A' for Active; 'I' for Inactive)
REMARK    1  A    between atoms: O1_2  and  C2_3 
REMARK    2  A    between atoms: C6_8  and  C7_9 
REMARK    3  A    between atoms: C7_9  and  C8_10 
REMARK    4  A    between atoms: C8_10  and  O2_11 
REMARK    5  A    between atoms: C9_12  and  C10_13 
REMARK    6  A    between atoms: C11_14  and  C12_15 
REMARK    7  A    between atoms: C12_15  and  O3_16 
REMARK    8  A    between atoms: C17_23  and  C18_24 
ROOT
HETATM    1  C2  UNL     1      25.887  -0.140  54.220  1.00  0.00     0.056 C 
HETATM    2  C3  UNL     1      25.245   0.690  53.357  1.00  0.00     0.102 C 
HETATM    3  C4  UNL     1      25.726   1.740  52.391  1.00  0.00     0.021 C 
HETATM    4 CL1  UNL     1      27.174   2.588  51.710  1.00  0.00    -0.088 Cl
HETATM    5  C5  UNL     1      24.589   2.222  51.816  1.00  0.00     0.020 C 
HETATM    6  C6  UNL     1      23.117   2.203  51.693  1.00  0.00     0.135 C 
HETATM    7  N1  UNL     1      22.487   1.096  52.393  1.00  0.00    -0.287 N 
HETATM    8  N2  UNL     1      22.489   0.949  53.796  1.00  0.00    -0.180 NA
HETATM    9  C13 UNL     1      22.591  -0.325  54.072  1.00  0.00     0.057 C 
HETATM   10  C14 UNL     1      23.568  -1.049  54.872  1.00  0.00     0.031 C 
HETATM   11  C15 UNL     1      24.884  -0.945  54.902  1.00  0.00     0.035 C 
HETATM   12  C16 UNL     1      21.371  -0.700  53.265  1.00  0.00     0.093 C 
HETATM   13  C17 UNL     1      21.730  -0.083  51.931  1.00  0.00     0.143 C 
ENDROOT
BRANCH   6  14
HETATM   14  C7  UNL     1      22.592   3.535  52.219  1.00  0.00     0.095 C 
BRANCH  14  15
HETATM   15  C8  UNL     1      23.493   4.594  51.687  1.00  0.00     0.045 C 
HETATM   16  C9  UNL     1      23.805   4.695  50.391  1.00  0.00     0.032 C 
BRANCH  15  17
HETATM   17  O2  UNL     1      24.018   5.505  52.597  1.00  0.00    -0.365 OA
HETATM   18  H9  UNL     1      23.654   5.444  53.550  1.00  0.00     0.217 HD
ENDBRANCH  15  17
BRANCH  16  19
HETATM   19  C10 UNL     1      24.690   5.727  49.827  1.00  0.00     0.000 C 
HETATM   20  C11 UNL     1      25.863   5.400  49.326  1.00  0.00    -0.001 C 
BRANCH  20  21
HETATM   21  C12 UNL     1      26.733   6.474  48.764  1.00  0.00     0.191 C 
BRANCH  21  22
HETATM   22  O3  UNL     1      28.058   6.053  49.019  1.00  0.00    -0.397 OA
HETATM   23  H15 UNL     1      28.688   6.662  48.550  1.00  0.00     0.209 HD
ENDBRANCH  21  22
ENDBRANCH  20  21
ENDBRANCH  16  19
ENDBRANCH  14  15
ENDBRANCH   6  14
BRANCH  13  24
HETATM   24  C18 UNL     1      20.507   0.354  51.240  1.00  0.00    -0.034 A 
HETATM   25  C19 UNL     1      20.593   1.092  50.070  1.00  0.00     0.009 A 
HETATM   26  C20 UNL     1      19.407   1.470  49.470  1.00  0.00     0.001 A 
HETATM   27  C21 UNL     1      18.142   1.178  49.934  1.00  0.00     0.000 A 
HETATM   28  C22 UNL     1      18.109   0.439  51.108  1.00  0.00     0.001 A 
HETATM   29  C23 UNL     1      19.268   0.034  51.748  1.00  0.00     0.009 A 
ENDBRANCH  13  24
BRANCH   1  30
HETATM   30  O1  UNL     1      27.124  -0.592  54.778  1.00  0.00    -0.359 OA
HETATM   31  C1  UNL     1      28.274   0.228  54.654  1.00  0.00     0.209 C 
ENDBRANCH   1  30
TORSDOF 8
ENDMDL
MODEL 6
REMARK VINA RESULT:      -7.7      2.122      7.637
REMARK  8 active torsions:
REMARK  status: ('A' for Active; 'I' for Inactive)
REMARK    1  A    between atoms: O1_2  and  C2_3 
REMARK    2  A    between atoms: C6_8  and  C7_9 
REMARK    3  A    between atoms: C7_9  and  C8_10 
REMARK    4  A    between atoms: C8_10  and  O2_11 
REMARK    5  A    between atoms: C9_12  and  C10_13 
REMARK    6  A    between atoms: C11_14  and  C12_15 
REMARK    7  A    between atoms: C12_15  and  O3_16 
REMARK    8  A    between atoms: C17_23  and  C18_24 
ROOT
HETATM    1  C2  UNL     1      26.083   4.154  49.369  1.00  0.00     0.056 C 
HETATM    2  C3  UNL     1      24.726   4.215  49.407  1.00  0.00     0.102 C 
HETATM    3  C4  UNL     1      23.711   5.012  48.631  1.00  0.00     0.021 C 
HETATM    4 CL1  UNL     1      23.463   6.245  47.328  1.00  0.00    -0.088 Cl
HETATM    5  C5  UNL     1      22.509   4.623  49.141  1.00  0.00     0.020 C 
HETATM    6  C6  UNL     1      21.735   3.794  50.087  1.00  0.00     0.135 C 
HETATM    7  N1  UNL     1      22.534   2.793  50.775  1.00  0.00    -0.287 N 
HETATM    8  N2  UNL     1      23.557   3.100  51.697  1.00  0.00    -0.180 NA
HETATM    9  C13 UNL     1      24.516   2.225  51.546  1.00  0.00     0.057 C 
HETATM   10  C14 UNL     1      25.930   2.406  51.253  1.00  0.00     0.031 C 
HETATM   11  C15 UNL     1      26.519   3.191  50.369  1.00  0.00     0.035 C 
HETATM   12  C16 UNL     1      23.609   1.040  51.777  1.00  0.00     0.093 C 
HETATM   13  C17 UNL     1      22.536   1.318  50.747  1.00  0.00     0.143 C 
ENDROOT
BRANCH   6  14
HETATM   14  C7  UNL     1      21.078   4.734  51.092  1.00  0.00     0.095 C 
BRANCH  14  15
HETATM   15  C8  UNL     1      19.780   4.115  51.478  1.00  0.00     0.045 C 
HETATM   16  C9  UNL     1      18.683   4.196  50.716  1.00  0.00     0.032 C 
BRANCH  15  17
HETATM   17  O2  UNL     1      19.732   3.428  52.686  1.00  0.00    -0.365 OA
HETATM   18  H9  UNL     1      18.827   3.423  53.162  1.00  0.00     0.217 HD
ENDBRANCH  15  17
BRANCH  16  19
HETATM   19  C10 UNL     1      17.384   3.598  51.063  1.00  0.00     0.000 C 
HETATM   20  C11 UNL     1      16.679   4.069  52.070  1.00  0.00    -0.001 C 
BRANCH  20  21
HETATM   21  C12 UNL     1      15.367   3.437  52.392  1.00  0.00     0.191 C 
BRANCH  21  22
HETATM   22  O3  UNL     1      14.935   4.059  53.584  1.00  0.00    -0.397 OA
HETATM   23  H15 UNL     1      15.726   4.410  54.072  1.00  0.00     0.209 HD
ENDBRANCH  21  22
ENDBRANCH  20  21
ENDBRANCH  16  19
ENDBRANCH  14  15
ENDBRANCH   6  14
BRANCH  13  24
HETATM   24  C18 UNL     1      21.241   0.812  51.228  1.00  0.00    -0.034 A 
HETATM   25  C19 UNL     1      20.149   0.769  50.374  1.00  0.00     0.009 A 
HETATM   26  C20 UNL     1      18.962   0.281  50.889  1.00  0.00     0.001 A 
HETATM   27  C21 UNL     1      18.767  -0.166  52.178  1.00  0.00     0.000 A 
HETATM   28  C22 UNL     1      19.889  -0.101  52.992  1.00  0.00     0.001 A 
HETATM   29  C23 UNL     1      21.102   0.378  52.527  1.00  0.00     0.009 A 
ENDBRANCH  13  24
BRANCH   1  30
HETATM   30  O1  UNL     1      27.304   4.616  48.784  1.00  0.00    -0.359 OA
HETATM   31  C1  UNL     1      27.412   5.977  48.403  1.00  0.00     0.209 C 
ENDBRANCH   1  30
TORSDOF 8
ENDMDL
MODEL 7
REMARK VINA RESULT:      -7.5      3.362      5.725
REMARK  8 active torsions:
REMARK  status: ('A' for Active; 'I' for Inactive)
REMARK    1  A    between atoms: O1_2  and  C2_3 
REMARK    2  A    between atoms: C6_8  and  C7_9 
REMARK    3  A    between atoms: C7_9  and  C8_10 
REMARK    4  A    between atoms: C8_10  and  O2_11 
REMARK    5  A    between atoms: C9_12  and  C10_13 
REMARK    6  A    between atoms: C11_14  and  C12_15 
REMARK    7  A    between atoms: C12_15  and  O3_16 
REMARK    8  A    between atoms: C17_23  and  C18_24 
ROOT
HETATM    1  C2  UNL     1      24.488  -0.405  53.906  1.00  0.00     0.056 C 
HETATM    2  C3  UNL     1      24.697   0.613  53.030  1.00  0.00     0.102 C 
HETATM    3  C4  UNL     1      25.929   1.368  52.607  1.00  0.00     0.021 C 
HETATM    4 CL1  UNL     1      27.719   1.542  52.823  1.00  0.00    -0.088 Cl
HETATM    5  C5  UNL     1      25.478   2.275  51.695  1.00  0.00     0.020 C 
HETATM    6  C6  UNL     1      24.360   2.864  50.931  1.00  0.00     0.135 C 
HETATM    7  N1  UNL     1      23.118   2.117  51.044  1.00  0.00    -0.287 N 
HETATM    8  N2  UNL     1      22.385   1.988  52.243  1.00  0.00    -0.180 NA
HETATM    9  C13 UNL     1      21.871   0.785  52.277  1.00  0.00     0.057 C 
HETATM   10  C14 UNL     1      21.997  -0.274  53.267  1.00  0.00     0.031 C 
HETATM   11  C15 UNL     1      23.067  -0.722  53.897  1.00  0.00     0.035 C 
HETATM   12  C16 UNL     1      21.156   0.944  50.957  1.00  0.00     0.093 C 
HETATM   13  C17 UNL     1      22.313   1.354  50.072  1.00  0.00     0.143 C 
ENDROOT
BRANCH   6  14
HETATM   14  C7  UNL     1      24.169   4.295  51.422  1.00  0.00     0.095 C 
BRANCH  14  15
HETATM   15  C8  UNL     1      24.570   5.192  50.304  1.00  0.00     0.045 C 
HETATM   16  C9  UNL     1      23.822   5.366  49.209  1.00  0.00     0.032 C 
BRANCH  15  17
HETATM   17  O2  UNL     1      25.779   5.868  50.428  1.00  0.00    -0.365 OA
HETATM   18  H9  UNL     1      26.455   5.460  51.078  1.00  0.00     0.217 HD
ENDBRANCH  15  17
BRANCH  16  19
HETATM   19  C10 UNL     1      24.184   6.243  48.085  1.00  0.00     0.000 C 
HETATM   20  C11 UNL     1      23.249   6.838  47.373  1.00  0.00    -0.001 C 
BRANCH  20  21
HETATM   21  C12 UNL     1      23.654   7.720  46.240  1.00  0.00     0.191 C 
BRANCH  21  22
HETATM   22  O3  UNL     1      24.837   8.361  46.670  1.00  0.00    -0.397 OA
HETATM   23  H15 UNL     1      24.667   8.803  47.544  1.00  0.00     0.209 HD
ENDBRANCH  21  22
ENDBRANCH  20  21
ENDBRANCH  16  19
ENDBRANCH  14  15
ENDBRANCH   6  14
BRANCH  13  24
HETATM   24  C18 UNL     1      21.834   2.254  49.012  1.00  0.00    -0.034 A 
HETATM   25  C19 UNL     1      22.439   2.247  47.764  1.00  0.00     0.009 A 
HETATM   26  C20 UNL     1      21.940   3.116  46.813  1.00  0.00     0.001 A 
HETATM   27  C21 UNL     1      20.892   3.992  46.994  1.00  0.00     0.000 A 
HETATM   28  C22 UNL     1      20.321   3.963  48.258  1.00  0.00     0.001 A 
HETATM   29  C23 UNL     1      20.782   3.110  49.248  1.00  0.00     0.009 A 
ENDBRANCH  13  24
BRANCH   1  30
HETATM   30  O1  UNL     1      25.038  -1.325  54.853  1.00  0.00    -0.359 OA
HETATM   31  C1  UNL     1      25.272  -0.887  56.181  1.00  0.00     0.209 C 
ENDBRANCH   1  30
TORSDOF 8
ENDMDL
MODEL 8
REMARK VINA RESULT:      -7.5      2.454      7.822
REMARK  8 active torsions:
REMARK  status: ('A' for Active; 'I' for Inactive)
REMARK    1  A    between atoms: O1_2  and  C2_3 
REMARK    2  A    between atoms: C6_8  and  C7_9 
REMARK    3  A    between atoms: C7_9  and  C8_10 
REMARK    4  A    between atoms: C8_10  and  O2_11 
REMARK    5  A    between atoms: C9_12  and  C10_13 
REMARK    6  A    between atoms: C11_14  and  C12_15 
REMARK    7  A    between atoms: C12_15  and  O3_16 
REMARK    8  A    between atoms: C17_23  and  C18_24 
ROOT
HETATM    1  C2  UNL     1      26.122   2.079  51.962  1.00  0.00     0.056 C 
HETATM    2  C3  UNL     1      24.940   2.521  51.456  1.00  0.00     0.102 C 
HETATM    3  C4  UNL     1      24.587   3.550  50.415  1.00  0.00     0.021 C 
HETATM    4 CL1  UNL     1      25.236   4.768  49.243  1.00  0.00    -0.088 Cl
HETATM    5  C5  UNL     1      23.225   3.528  50.361  1.00  0.00     0.020 C 
HETATM    6  C6  UNL     1      21.941   2.976  50.837  1.00  0.00     0.135 C 
HETATM    7  N1  UNL     1      22.087   1.810  51.692  1.00  0.00    -0.287 N 
HETATM    8  N2  UNL     1      22.681   1.842  52.971  1.00  0.00    -0.180 NA
HETATM    9  C13 UNL     1      23.346   0.728  53.138  1.00  0.00     0.057 C 
HETATM   10  C14 UNL     1      24.747   0.496  53.455  1.00  0.00     0.031 C 
HETATM   11  C15 UNL     1      25.833   1.060  52.959  1.00  0.00     0.035 C 
HETATM   12  C16 UNL     1      22.144  -0.147  52.875  1.00  0.00     0.093 C 
HETATM   13  C17 UNL     1      21.707   0.394  51.531  1.00  0.00     0.143 C 
ENDROOT
BRANCH   6  14
HETATM   14  C7  UNL     1      21.206   4.090  51.575  1.00  0.00     0.095 C 
BRANCH  14  15
HETATM   15  C8  UNL     1      19.835   4.159  50.999  1.00  0.00     0.045 C 
HETATM   16  C9  UNL     1      18.735   3.892  51.711  1.00  0.00     0.032 C 
BRANCH  15  17
HETATM   17  O2  UNL     1      19.720   4.520  49.661  1.00  0.00    -0.365 OA
HETATM   18  H9  UNL     1      20.600   4.640  49.153  1.00  0.00     0.217 HD
ENDBRANCH  15  17
BRANCH  16  19
HETATM   19  C10 UNL     1      17.365   3.950  51.177  1.00  0.00     0.000 C 
HETATM   20  C11 UNL     1      16.343   3.573  51.917  1.00  0.00    -0.001 C 
BRANCH  20  21
HETATM   21  C12 UNL     1      14.968   3.645  51.342  1.00  0.00     0.191 C 
BRANCH  21  22
HETATM   22  O3  UNL     1      14.095   3.546  52.448  1.00  0.00    -0.397 OA
HETATM   23  H15 UNL     1      13.441   2.816  52.281  1.00  0.00     0.209 HD
ENDBRANCH  21  22
ENDBRANCH  20  21
ENDBRANCH  16  19
ENDBRANCH  14  15
ENDBRANCH   6  14
BRANCH  13  24
HETATM   24  C18 UNL     1      20.245   0.286  51.403  1.00  0.00    -0.034 A 
HETATM   25  C19 UNL     1      19.481  -0.142  52.478  1.00  0.00     0.009 A 
HETATM   26  C20 UNL     1      18.114  -0.221  52.292  1.00  0.00     0.001 A 
HETATM   27  C21 UNL     1      17.440   0.088  51.130  1.00  0.00     0.000 A 
HETATM   28  C22 UNL     1      18.249   0.511  50.084  1.00  0.00     0.001 A 
HETATM   29  C23 UNL     1      19.624   0.608  50.217  1.00  0.00     0.009 A 
ENDBRANCH  13  24
BRANCH   1  30
HETATM   30  O1  UNL     1      27.549   2.163  51.961  1.00  0.00    -0.359 OA
HETATM   31  C1  UNL     1      28.247   2.032  53.189  1.00  0.00     0.209 C 
ENDBRANCH   1  30
TORSDOF 8
ENDMDL
MODEL 9
REMARK VINA RESULT:      -7.5      3.019      7.568
REMARK  8 active torsions:
REMARK  status: ('A' for Active; 'I' for Inactive)
REMARK    1  A    between atoms: O1_2  and  C2_3 
REMARK    2  A    between atoms: C6_8  and  C7_9 
REMARK    3  A    between atoms: C7_9  and  C8_10 
REMARK    4  A    between atoms: C8_10  and  O2_11 
REMARK    5  A    between atoms: C9_12  and  C10_13 
REMARK    6  A    between atoms: C11_14  and  C12_15 
REMARK    7  A    between atoms: C12_15  and  O3_16 
REMARK    8  A    between atoms: C17_23  and  C18_24 
ROOT
HETATM    1  C2  UNL     1      26.945   7.498  47.573  1.00  0.00     0.056 C 
HETATM    2  C3  UNL     1      25.713   7.240  48.085  1.00  0.00     0.102 C 
HETATM    3  C4  UNL     1      24.397   7.969  48.013  1.00  0.00     0.021 C 
HETATM    4 CL1  UNL     1      23.530   9.420  47.364  1.00  0.00    -0.088 Cl
HETATM    5  C5  UNL     1      23.539   7.197  48.737  1.00  0.00     0.020 C 
HETATM    6  C6  UNL     1      23.290   5.991  49.553  1.00  0.00     0.135 C 
HETATM    7  N1  UNL     1      24.395   5.046  49.552  1.00  0.00    -0.287 N 
HETATM    8  N2  UNL     1      25.659   5.314  50.120  1.00  0.00    -0.180 NA
HETATM    9  C13 UNL     1      26.570   4.751  49.370  1.00  0.00     0.057 C 
HETATM   10  C14 UNL     1      27.728   5.317  48.695  1.00  0.00     0.031 C 
HETATM   11  C15 UNL     1      27.837   6.423  47.982  1.00  0.00     0.035 C 
HETATM   12  C16 UNL     1      25.956   3.376  49.482  1.00  0.00     0.093 C 
HETATM   13  C17 UNL     1      24.542   3.675  49.032  1.00  0.00     0.143 C 
ENDROOT
BRANCH   6  14
HETATM   14  C7  UNL     1      22.983   6.451  50.974  1.00  0.00     0.095 C 
BRANCH  14  15
HETATM   15  C8  UNL     1      21.976   5.505  51.527  1.00  0.00     0.045 C 
HETATM   16  C9  UNL     1      20.891   5.121  50.845  1.00  0.00     0.032 C 
BRANCH  15  17
HETATM   17  O2  UNL     1      22.195   5.013  52.809  1.00  0.00    -0.365 OA
HETATM   18  H9  UNL     1      21.739   4.125  53.031  1.00  0.00     0.217 HD
ENDBRANCH  15  17
BRANCH  16  19
HETATM   19  C10 UNL     1      19.875   4.189  51.357  1.00  0.00     0.000 C 
HETATM   20  C11 UNL     1      18.948   3.706  50.556  1.00  0.00    -0.001 C 
BRANCH  20  21
HETATM   21  C12 UNL     1      17.933   2.763  51.110  1.00  0.00     0.191 C 
BRANCH  21  22
HETATM   22  O3  UNL     1      17.171   3.528  52.022  1.00  0.00    -0.397 OA
HETATM   23  H15 UNL     1      17.729   4.276  52.363  1.00  0.00     0.209 HD
ENDBRANCH  21  22
ENDBRANCH  20  21
ENDBRANCH  16  19
ENDBRANCH  14  15
ENDBRANCH   6  14
BRANCH  13  24
HETATM   24  C18 UNL     1      23.601   2.780  49.724  1.00  0.00    -0.034 A 
HETATM   25  C19 UNL     1      22.525   2.236  49.038  1.00  0.00     0.009 A 
HETATM   26  C20 UNL     1      21.679   1.403  49.745  1.00  0.00     0.001 A 
HETATM   27  C21 UNL     1      21.809   1.064  51.075  1.00  0.00     0.000 A 
HETATM   28  C22 UNL     1      22.900   1.635  51.717  1.00  0.00     0.001 A 
HETATM   29  C23 UNL     1      23.778   2.476  51.054  1.00  0.00     0.009 A 
ENDBRANCH  13  24
BRANCH   1  30
HETATM   30  O1  UNL     1      27.783   8.362  46.801  1.00  0.00    -0.359 OA
HETATM   31  C1  UNL     1      27.189   9.419  46.066  1.00  0.00     0.209 C 
ENDBRANCH   1  30
TORSDOF 8
ENDMDL
