MODEL 1
REMARK VINA RESULT:      -8.9      0.000      0.000
REMARK  3 active torsions:
REMARK  status: ('A' for Active; 'I' for Inactive)
REMARK    1  A    between atoms: C11_12  and  N2_13 
REMARK    2  A    between atoms: N2_13  and  C12_14 
REMARK    3  A    between atoms: C15_18  and  C16_19 
ROOT
HETATM    1  N2  UNL     1      24.306   2.927  50.191  1.00  0.00    -0.198 N 
HETATM    2  H13 UNL     1      23.372   3.186  49.754  1.00  0.00     0.183 HD
ENDROOT
BRANCH   1   3
HETATM    3  C11 UNL     1      25.511   3.494  49.747  1.00  0.00     0.113 C 
HETATM    4  C10 UNL     1      26.044   4.696  49.609  1.00  0.00    -0.039 C 
HETATM    5  C2  UNL     1      25.188   5.804  50.016  1.00  0.00    -0.072 C 
HETATM    6  C9  UNL     1      27.409   4.679  49.066  1.00  0.00     0.054 C 
HETATM    7  C1  UNL     1      23.926   5.470  50.120  1.00  0.00     0.039 C 
HETATM    8  C3  UNL     1      25.599   7.198  50.305  1.00  0.00     0.040 C 
HETATM    9  C4  UNL     1      26.084   7.782  49.002  1.00  0.00     0.059 C 
HETATM   10  C5  UNL     1      27.366   7.152  48.657  1.00  0.00     0.020 A 
HETATM   11  N1  UNL     1      28.450   7.861  48.830  1.00  0.00    -0.269 NA
HETATM   12  C8  UNL     1      27.692   5.833  48.136  1.00  0.00     0.061 A 
HETATM   13  C6  UNL     1      29.579   7.091  48.446  1.00  0.00     0.113 A 
HETATM   14  C7  UNL     1      29.195   5.899  48.033  1.00  0.00     0.003 A 
ENDBRANCH   1   3
BRANCH   1  15
HETATM   15  C12 UNL     1      24.208   1.961  51.258  1.00  0.00     0.726 A 
HETATM   16  N3  UNL     1      23.070   1.594  51.875  1.00  0.00    -0.075 NA
HETATM   17  C13 UNL     1      23.160   0.675  52.853  1.00  0.00     0.139 A 
HETATM   18  C14 UNL     1      24.341   0.089  53.260  1.00  0.00     0.053 A 
HETATM   19  C15 UNL     1      25.487   0.489  52.604  1.00  0.00     0.089 A 
HETATM   20  N5  UNL     1      25.402   1.407  51.624  1.00  0.00    -0.062 NA
BRANCH  19  21
HETATM   21  C16 UNL     1      26.811  -0.037  52.916  1.00  0.00     0.011 A 
HETATM   22  C17 UNL     1      27.808   0.866  53.217  1.00  0.00     0.017 A 
HETATM   23  C18 UNL     1      29.092   0.401  53.522  1.00  0.00     0.020 A 
HETATM   24  C19 UNL     1      29.345  -0.969  53.516  1.00  0.00     0.116 A 
HETATM   25  N4  UNL     1      28.356  -1.840  53.219  1.00  0.00    -0.272 NA
HETATM   26  C20 UNL     1      27.126  -1.377  52.929  1.00  0.00     0.130 A 
ENDBRANCH  19  21
ENDBRANCH   1  15
TORSDOF 3
ENDMDL
MODEL 2
REMARK VINA RESULT:      -8.8      1.462      7.372
REMARK  3 active torsions:
REMARK  status: ('A' for Active; 'I' for Inactive)
REMARK    1  A    between atoms: C11_12  and  N2_13 
REMARK    2  A    between atoms: N2_13  and  C12_14 
REMARK    3  A    between atoms: C15_18  and  C16_19 
ROOT
HETATM    1  N2  UNL     1      24.714   3.271  50.240  1.00  0.00    -0.198 N 
HETATM    2  H13 UNL     1      23.807   2.722  50.169  1.00  0.00     0.183 HD
ENDROOT
BRANCH   1   3
HETATM    3  C11 UNL     1      25.790   2.822  51.020  1.00  0.00     0.113 C 
HETATM    4  C10 UNL     1      26.037   1.874  51.908  1.00  0.00    -0.039 C 
HETATM    5  C2  UNL     1      24.908   1.005  52.217  1.00  0.00    -0.072 C 
HETATM    6  C9  UNL     1      27.416   1.884  52.416  1.00  0.00     0.054 C 
HETATM    7  C1  UNL     1      23.757   1.503  51.843  1.00  0.00     0.039 C 
HETATM    8  C3  UNL     1      24.949  -0.319  52.881  1.00  0.00     0.040 C 
HETATM    9  C4  UNL     1      25.412  -0.077  54.295  1.00  0.00     0.059 C 
HETATM   10  C5  UNL     1      26.834   0.291  54.263  1.00  0.00     0.020 A 
HETATM   11  N1  UNL     1      27.698  -0.614  54.640  1.00  0.00    -0.269 NA
HETATM   12  C8  UNL     1      27.512   1.519  53.877  1.00  0.00     0.061 A 
HETATM   13  C6  UNL     1      29.009  -0.079  54.542  1.00  0.00     0.113 A 
HETATM   14  C7  UNL     1      28.960   1.162  54.101  1.00  0.00     0.003 A 
ENDBRANCH   1   3
BRANCH   1  15
HETATM   15  C12 UNL     1      24.722   4.492  49.472  1.00  0.00     0.726 A 
HETATM   16  N3  UNL     1      23.642   5.070  48.915  1.00  0.00    -0.075 NA
HETATM   17  C13 UNL     1      23.829   6.212  48.229  1.00  0.00     0.139 A 
HETATM   18  C14 UNL     1      25.055   6.823  48.063  1.00  0.00     0.053 A 
HETATM   19  C15 UNL     1      26.140   6.203  48.648  1.00  0.00     0.089 A 
HETATM   20  N5  UNL     1      25.956   5.061  49.335  1.00  0.00    -0.062 NA
BRANCH  19  21
HETATM   21  C16 UNL     1      27.499   6.724  48.563  1.00  0.00     0.011 A 
HETATM   22  C17 UNL     1      28.506   5.843  48.232  1.00  0.00     0.017 A 
HETATM   23  C18 UNL     1      29.825   6.304  48.142  1.00  0.00     0.020 A 
HETATM   24  C19 UNL     1      30.101   7.648  48.388  1.00  0.00     0.116 A 
HETATM   25  N4  UNL     1      29.100   8.496  48.711  1.00  0.00    -0.272 NA
HETATM   26  C20 UNL     1      27.838   8.038  48.794  1.00  0.00     0.130 A 
ENDBRANCH  19  21
ENDBRANCH   1  15
TORSDOF 3
ENDMDL
MODEL 3
REMARK VINA RESULT:      -8.4      1.741      8.017
REMARK  3 active torsions:
REMARK  status: ('A' for Active; 'I' for Inactive)
REMARK    1  A    between atoms: C11_12  and  N2_13 
REMARK    2  A    between atoms: N2_13  and  C12_14 
REMARK    3  A    between atoms: C15_18  and  C16_19 
ROOT
HETATM    1  N2  UNL     1      24.313   3.364  50.390  1.00  0.00    -0.198 N 
HETATM    2  H13 UNL     1      24.812   3.031  49.512  1.00  0.00     0.183 HD
ENDROOT
BRANCH   1   3
HETATM    3  C11 UNL     1      23.851   2.466  51.363  1.00  0.00     0.113 C 
HETATM    4  C10 UNL     1      24.357   1.627  52.251  1.00  0.00    -0.039 C 
HETATM    5  C2  UNL     1      25.814   1.564  52.284  1.00  0.00    -0.072 C 
HETATM    6  C9  UNL     1      23.341   0.914  53.038  1.00  0.00     0.054 C 
HETATM    7  C1  UNL     1      26.376   2.071  51.216  1.00  0.00     0.039 C 
HETATM    8  C3  UNL     1      26.664   1.007  53.362  1.00  0.00     0.040 C 
HETATM    9  C4  UNL     1      26.395  -0.476  53.399  1.00  0.00     0.059 C 
HETATM   10  C5  UNL     1      25.045  -0.692  53.936  1.00  0.00     0.020 A 
HETATM   11  N1  UNL     1      24.948  -1.125  55.165  1.00  0.00    -0.269 NA
HETATM   12  C8  UNL     1      23.725  -0.511  53.350  1.00  0.00     0.061 A 
HETATM   13  C6  UNL     1      23.577  -1.271  55.503  1.00  0.00     0.113 A 
HETATM   14  C7  UNL     1      22.819  -0.926  54.481  1.00  0.00     0.003 A 
ENDBRANCH   1   3
BRANCH   1  15
HETATM   15  C12 UNL     1      24.166   4.797  50.472  1.00  0.00     0.726 A 
HETATM   16  N3  UNL     1      23.069   5.445  50.906  1.00  0.00    -0.075 NA
HETATM   17  C13 UNL     1      23.102   6.790  50.917  1.00  0.00     0.139 A 
HETATM   18  C14 UNL     1      24.187   7.541  50.513  1.00  0.00     0.053 A 
HETATM   19  C15 UNL     1      25.293   6.844  50.075  1.00  0.00     0.089 A 
HETATM   20  N5  UNL     1      25.265   5.498  50.062  1.00  0.00    -0.062 NA
BRANCH  19  21
HETATM   21  C16 UNL     1      26.516   7.492  49.616  1.00  0.00     0.011 A 
HETATM   22  C17 UNL     1      27.254   6.857  48.640  1.00  0.00     0.017 A 
HETATM   23  C18 UNL     1      28.435   7.447  48.174  1.00  0.00     0.020 A 
HETATM   24  C19 UNL     1      28.848   8.668  48.703  1.00  0.00     0.116 A 
HETATM   25  N4  UNL     1      28.112   9.275  49.660  1.00  0.00    -0.272 NA
HETATM   26  C20 UNL     1      26.979   8.696  50.098  1.00  0.00     0.130 A 
ENDBRANCH  19  21
ENDBRANCH   1  15
TORSDOF 3
ENDMDL
MODEL 4
REMARK VINA RESULT:      -8.3      2.863      7.362
REMARK  3 active torsions:
REMARK  status: ('A' for Active; 'I' for Inactive)
REMARK    1  A    between atoms: C11_12  and  N2_13 
REMARK    2  A    between atoms: N2_13  and  C12_14 
REMARK    3  A    between atoms: C15_18  and  C16_19 
ROOT
HETATM    1  N2  UNL     1      27.823   5.544  48.177  1.00  0.00    -0.198 N 
HETATM    2  H13 UNL     1      27.236   5.886  47.360  1.00  0.00     0.183 HD
ENDROOT
BRANCH   1   3
HETATM    3  C11 UNL     1      27.399   4.493  49.003  1.00  0.00     0.113 C 
HETATM    4  C10 UNL     1      26.272   4.044  49.530  1.00  0.00    -0.039 C 
HETATM    5  C2  UNL     1      25.082   4.821  49.201  1.00  0.00    -0.072 C 
HETATM    6  C9  UNL     1      26.442   2.840  50.354  1.00  0.00     0.054 C 
HETATM    7  C1  UNL     1      25.357   6.014  48.736  1.00  0.00     0.039 C 
HETATM    8  C3  UNL     1      23.668   4.400  49.338  1.00  0.00     0.040 C 
HETATM    9  C4  UNL     1      23.408   4.245  50.815  1.00  0.00     0.059 C 
HETATM   10  C5  UNL     1      24.127   3.056  51.293  1.00  0.00     0.020 A 
HETATM   11  N1  UNL     1      23.420   1.984  51.540  1.00  0.00    -0.269 NA
HETATM   12  C8  UNL     1      25.537   2.814  51.560  1.00  0.00     0.061 A 
HETATM   13  C6  UNL     1      24.282   0.949  51.987  1.00  0.00     0.113 A 
HETATM   14  C7  UNL     1      25.528   1.378  52.018  1.00  0.00     0.003 A 
ENDBRANCH   1   3
BRANCH   1  15
HETATM   15  C12 UNL     1      29.067   6.256  48.344  1.00  0.00     0.726 A 
HETATM   16  N3  UNL     1      29.184   7.565  48.635  1.00  0.00    -0.075 NA
HETATM   17  C13 UNL     1      30.426   8.069  48.755  1.00  0.00     0.139 A 
HETATM   18  C14 UNL     1      31.580   7.329  48.598  1.00  0.00     0.053 A 
HETATM   19  C15 UNL     1      31.422   5.991  48.301  1.00  0.00     0.089 A 
HETATM   20  N5  UNL     1      30.182   5.483  48.180  1.00  0.00    -0.062 NA
BRANCH  19  21
HETATM   21  C16 UNL     1      32.542   5.079  48.107  1.00  0.00     0.011 A 
HETATM   22  C17 UNL     1      32.278   3.845  47.550  1.00  0.00     0.017 A 
HETATM   23  C18 UNL     1      33.327   2.940  47.348  1.00  0.00     0.020 A 
HETATM   24  C19 UNL     1      34.623   3.299  47.713  1.00  0.00     0.116 A 
HETATM   25  N4  UNL     1      34.863   4.512  48.257  1.00  0.00    -0.272 NA
HETATM   26  C20 UNL     1      33.845   5.371  48.445  1.00  0.00     0.130 A 
ENDBRANCH  19  21
ENDBRANCH   1  15
TORSDOF 3
ENDMDL
MODEL 5
REMARK VINA RESULT:      -8.2      2.070      7.285
REMARK  3 active torsions:
REMARK  status: ('A' for Active; 'I' for Inactive)
REMARK    1  A    between atoms: C11_12  and  N2_13 
REMARK    2  A    between atoms: N2_13  and  C12_14 
REMARK    3  A    between atoms: C15_18  and  C16_19 
ROOT
HETATM    1  N2  UNL     1      25.963   4.679  49.115  1.00  0.00    -0.198 N 
HETATM    2  H13 UNL     1      24.954   4.785  48.796  1.00  0.00     0.183 HD
ENDROOT
BRANCH   1   3
HETATM    3  C11 UNL     1      26.366   3.631  49.955  1.00  0.00     0.113 C 
HETATM    4  C10 UNL     1      25.806   2.706  50.717  1.00  0.00    -0.039 C 
HETATM    5  C2  UNL     1      24.348   2.720  50.739  1.00  0.00    -0.072 C 
HETATM    6  C9  UNL     1      26.773   1.837  51.401  1.00  0.00     0.054 C 
HETATM    7  C1  UNL     1      23.837   3.840  50.292  1.00  0.00     0.039 C 
HETATM    8  C3  UNL     1      23.445   1.638  51.196  1.00  0.00     0.040 C 
HETATM    9  C4  UNL     1      23.670   1.490  52.681  1.00  0.00     0.059 C 
HETATM   10  C5  UNL     1      24.995   0.892  52.894  1.00  0.00     0.020 A 
HETATM   11  N1  UNL     1      25.037  -0.366  53.244  1.00  0.00    -0.269 NA
HETATM   12  C8  UNL     1      26.338   1.442  52.790  1.00  0.00     0.061 A 
HETATM   13  C6  UNL     1      26.391  -0.762  53.403  1.00  0.00     0.113 A 
HETATM   14  C7  UNL     1      27.192   0.253  53.150  1.00  0.00     0.003 A 
ENDBRANCH   1   3
BRANCH   1  15
HETATM   15  C12 UNL     1      26.849   5.698  48.605  1.00  0.00     0.726 A 
HETATM   16  N3  UNL     1      26.471   6.913  48.168  1.00  0.00    -0.075 NA
HETATM   17  C13 UNL     1      27.432   7.743  47.725  1.00  0.00     0.139 A 
HETATM   18  C14 UNL     1      28.774   7.426  47.692  1.00  0.00     0.053 A 
HETATM   19  C15 UNL     1      29.125   6.173  48.148  1.00  0.00     0.089 A 
HETATM   20  N5  UNL     1      28.167   5.339  48.593  1.00  0.00    -0.062 NA
BRANCH  19  21
HETATM   21  C16 UNL     1      30.500   5.690  48.179  1.00  0.00     0.011 A 
HETATM   22  C17 UNL     1      30.833   4.640  47.349  1.00  0.00     0.017 A 
HETATM   23  C18 UNL     1      32.143   4.147  47.350  1.00  0.00     0.020 A 
HETATM   24  C19 UNL     1      33.094   4.725  48.189  1.00  0.00     0.116 A 
HETATM   25  N4  UNL     1      32.750   5.754  48.995  1.00  0.00    -0.272 NA
HETATM   26  C20 UNL     1      31.487   6.216  48.983  1.00  0.00     0.130 A 
ENDBRANCH  19  21
ENDBRANCH   1  15
TORSDOF 3
ENDMDL
MODEL 6
REMARK VINA RESULT:      -8.2      3.683      7.449
REMARK  3 active torsions:
REMARK  status: ('A' for Active; 'I' for Inactive)
REMARK    1  A    between atoms: C11_12  and  N2_13 
REMARK    2  A    between atoms: N2_13  and  C12_14 
REMARK    3  A    between atoms: C15_18  and  C16_19 
ROOT
HETATM    1  N2  UNL     1      27.907   5.290  48.965  1.00  0.00    -0.198 N 
HETATM    2  H13 UNL     1      28.238   4.542  49.644  1.00  0.00     0.183 HD
ENDROOT
BRANCH   1   3
HETATM    3  C11 UNL     1      26.550   5.621  48.834  1.00  0.00     0.113 C 
HETATM    4  C10 UNL     1      25.372   5.075  49.086  1.00  0.00    -0.039 C 
HETATM    5  C2  UNL     1      25.421   3.740  49.671  1.00  0.00    -0.072 C 
HETATM    6  C9  UNL     1      24.234   5.930  48.723  1.00  0.00     0.054 C 
HETATM    7  C1  UNL     1      26.586   3.159  49.533  1.00  0.00     0.039 C 
HETATM    8  C3  UNL     1      24.328   3.025  50.370  1.00  0.00     0.040 C 
HETATM    9  C4  UNL     1      23.261   2.757  49.337  1.00  0.00     0.059 C 
HETATM   10  C5  UNL     1      22.618   4.031  48.990  1.00  0.00     0.020 A 
HETATM   11  N1  UNL     1      21.424   4.253  49.473  1.00  0.00    -0.269 NA
HETATM   12  C8  UNL     1      23.061   5.154  48.177  1.00  0.00     0.061 A 
HETATM   13  C6  UNL     1      20.971   5.524  49.032  1.00  0.00     0.113 A 
HETATM   14  C7  UNL     1      21.886   6.093  48.274  1.00  0.00     0.003 A 
ENDBRANCH   1   3
BRANCH   1  15
HETATM   15  C12 UNL     1      28.971   5.912  48.213  1.00  0.00     0.726 A 
HETATM   16  N3  UNL     1      28.869   7.062  47.523  1.00  0.00    -0.075 NA
HETATM   17  C13 UNL     1      29.964   7.500  46.876  1.00  0.00     0.139 A 
HETATM   18  C14 UNL     1      31.179   6.846  46.878  1.00  0.00     0.053 A 
HETATM   19  C15 UNL     1      31.246   5.670  47.597  1.00  0.00     0.089 A 
HETATM   20  N5  UNL     1      30.153   5.228  48.246  1.00  0.00    -0.062 NA
BRANCH  19  21
HETATM   21  C16 UNL     1      32.456   4.864  47.697  1.00  0.00     0.011 A 
HETATM   22  C17 UNL     1      32.381   3.540  47.321  1.00  0.00     0.017 A 
HETATM   23  C18 UNL     1      33.521   2.732  47.403  1.00  0.00     0.020 A 
HETATM   24  C19 UNL     1      34.718   3.278  47.864  1.00  0.00     0.116 A 
HETATM   25  N4  UNL     1      34.773   4.578  48.228  1.00  0.00    -0.272 NA
HETATM   26  C20 UNL     1      33.669   5.342  48.143  1.00  0.00     0.130 A 
ENDBRANCH  19  21
ENDBRANCH   1  15
TORSDOF 3
ENDMDL
MODEL 7
REMARK VINA RESULT:      -8.2      1.453      2.118
REMARK  3 active torsions:
REMARK  status: ('A' for Active; 'I' for Inactive)
REMARK    1  A    between atoms: C11_12  and  N2_13 
REMARK    2  A    between atoms: N2_13  and  C12_14 
REMARK    3  A    between atoms: C15_18  and  C16_19 
ROOT
HETATM    1  N2  UNL     1      25.598   4.350  49.194  1.00  0.00    -0.198 N 
HETATM    2  H13 UNL     1      24.798   4.867  48.720  1.00  0.00     0.183 HD
ENDROOT
BRANCH   1   3
HETATM    3  C11 UNL     1      26.939   4.671  48.938  1.00  0.00     0.113 C 
HETATM    4  C10 UNL     1      27.652   5.730  48.594  1.00  0.00    -0.039 C 
HETATM    5  C2  UNL     1      26.888   6.958  48.410  1.00  0.00    -0.072 C 
HETATM    6  C9  UNL     1      29.090   5.458  48.463  1.00  0.00     0.054 C 
HETATM    7  C1  UNL     1      25.603   6.750  48.270  1.00  0.00     0.039 C 
HETATM    8  C3  UNL     1      27.411   8.344  48.369  1.00  0.00     0.040 C 
HETATM    9  C4  UNL     1      28.263   8.445  47.128  1.00  0.00     0.059 C 
HETATM   10  C5  UNL     1      29.489   7.664  47.340  1.00  0.00     0.020 A 
HETATM   11  N1  UNL     1      30.591   8.326  47.575  1.00  0.00    -0.269 NA
HETATM   12  C8  UNL     1      29.740   6.230  47.342  1.00  0.00     0.061 A 
HETATM   13  C6  UNL     1      31.659   7.407  47.751  1.00  0.00     0.113 A 
HETATM   14  C7  UNL     1      31.219   6.171  47.626  1.00  0.00     0.003 A 
ENDBRANCH   1   3
BRANCH   1  15
HETATM   15  C12 UNL     1      25.169   3.315  50.103  1.00  0.00     0.726 A 
HETATM   16  N3  UNL     1      23.911   2.855  50.224  1.00  0.00    -0.075 NA
HETATM   17  C13 UNL     1      23.686   1.881  51.126  1.00  0.00     0.139 A 
HETATM   18  C14 UNL     1      24.663   1.329  51.929  1.00  0.00     0.053 A 
HETATM   19  C15 UNL     1      25.941   1.825  51.777  1.00  0.00     0.089 A 
HETATM   20  N5  UNL     1      26.170   2.798  50.877  1.00  0.00    -0.062 NA
BRANCH  19  21
HETATM   21  C16 UNL     1      27.080   1.346  52.550  1.00  0.00     0.011 A 
HETATM   22  C17 UNL     1      27.891   2.285  53.152  1.00  0.00     0.017 A 
HETATM   23  C18 UNL     1      28.995   1.865  53.902  1.00  0.00     0.020 A 
HETATM   24  C19 UNL     1      29.260   0.503  54.031  1.00  0.00     0.116 A 
HETATM   25  N4  UNL     1      28.455  -0.403  53.434  1.00  0.00    -0.272 NA
HETATM   26  C20 UNL     1      27.397   0.016  52.717  1.00  0.00     0.130 A 
ENDBRANCH  19  21
ENDBRANCH   1  15
TORSDOF 3
ENDMDL
MODEL 8
REMARK VINA RESULT:      -8.1      2.163      7.538
REMARK  3 active torsions:
REMARK  status: ('A' for Active; 'I' for Inactive)
REMARK    1  A    between atoms: C11_12  and  N2_13 
REMARK    2  A    between atoms: N2_13  and  C12_14 
REMARK    3  A    between atoms: C15_18  and  C16_19 
ROOT
HETATM    1  N2  UNL     1      23.709   2.917  50.823  1.00  0.00    -0.198 N 
HETATM    2  H13 UNL     1      23.135   2.155  50.354  1.00  0.00     0.183 HD
ENDROOT
BRANCH   1   3
HETATM    3  C11 UNL     1      24.972   2.656  51.374  1.00  0.00     0.113 C 
HETATM    4  C10 UNL     1      25.538   1.763  52.168  1.00  0.00    -0.039 C 
HETATM    5  C2  UNL     1      24.648   0.713  52.652  1.00  0.00    -0.072 C 
HETATM    6  C9  UNL     1      26.966   2.006  52.411  1.00  0.00     0.054 C 
HETATM    7  C1  UNL     1      23.380   1.008  52.515  1.00  0.00     0.039 C 
HETATM    8  C3  UNL     1      25.034  -0.586  53.251  1.00  0.00     0.040 C 
HETATM    9  C4  UNL     1      25.709  -0.270  54.562  1.00  0.00     0.059 C 
HETATM   10  C5  UNL     1      27.018   0.334  54.279  1.00  0.00     0.020 A 
HETATM   11  N1  UNL     1      28.076  -0.411  54.458  1.00  0.00    -0.269 NA
HETATM   12  C8  UNL     1      27.396   1.661  53.815  1.00  0.00     0.061 A 
HETATM   13  C6  UNL     1      29.237   0.339  54.136  1.00  0.00     0.113 A 
HETATM   14  C7  UNL     1      28.899   1.555  53.754  1.00  0.00     0.003 A 
ENDBRANCH   1   3
BRANCH   1  15
HETATM   15  C12 UNL     1      23.069   4.210  50.834  1.00  0.00     0.726 A 
HETATM   16  N3  UNL     1      21.796   4.447  51.199  1.00  0.00    -0.075 NA
HETATM   17  C13 UNL     1      21.360   5.719  51.149  1.00  0.00     0.139 A 
HETATM   18  C14 UNL     1      22.134   6.789  50.748  1.00  0.00     0.053 A 
HETATM   19  C15 UNL     1      23.434   6.508  50.382  1.00  0.00     0.089 A 
HETATM   20  N5  UNL     1      23.875   5.237  50.431  1.00  0.00    -0.062 NA
BRANCH  19  21
HETATM   21  C16 UNL     1      24.377   7.527  49.937  1.00  0.00     0.011 A 
HETATM   22  C17 UNL     1      25.678   7.439  50.383  1.00  0.00     0.017 A 
HETATM   23  C18 UNL     1      26.613   8.399  49.979  1.00  0.00     0.020 A 
HETATM   24  C19 UNL     1      26.215   9.431  49.131  1.00  0.00     0.116 A 
HETATM   25  N4  UNL     1      24.935   9.501  48.703  1.00  0.00    -0.272 NA
HETATM   26  C20 UNL     1      24.048   8.570  49.100  1.00  0.00     0.130 A 
ENDBRANCH  19  21
ENDBRANCH   1  15
TORSDOF 3
ENDMDL
MODEL 9
REMARK VINA RESULT:      -8.1      1.620      3.567
REMARK  3 active torsions:
REMARK  status: ('A' for Active; 'I' for Inactive)
REMARK    1  A    between atoms: C11_12  and  N2_13 
REMARK    2  A    between atoms: N2_13  and  C12_14 
REMARK    3  A    between atoms: C15_18  and  C16_19 
ROOT
HETATM    1  N2  UNL     1      25.399   3.298  49.880  1.00  0.00    -0.198 N 
HETATM    2  H13 UNL     1      24.390   3.424  49.569  1.00  0.00     0.183 HD
ENDROOT
BRANCH   1   3
HETATM    3  C11 UNL     1      26.441   4.059  49.330  1.00  0.00     0.113 C 
HETATM    4  C10 UNL     1      26.771   5.333  49.202  1.00  0.00    -0.039 C 
HETATM    5  C2  UNL     1      25.822   6.281  49.775  1.00  0.00    -0.072 C 
HETATM    6  C9  UNL     1      28.044   5.547  48.499  1.00  0.00     0.054 C 
HETATM    7  C1  UNL     1      24.647   5.754  50.010  1.00  0.00     0.039 C 
HETATM    8  C3  UNL     1      26.060   7.707  50.098  1.00  0.00     0.040 C 
HETATM    9  C4  UNL     1      26.284   8.413  48.784  1.00  0.00     0.059 C 
HETATM   10  C5  UNL     1      27.589   8.000  48.250  1.00  0.00     0.020 A 
HETATM   11  N1  UNL     1      28.572   8.858  48.334  1.00  0.00    -0.269 NA
HETATM   12  C8  UNL     1      28.034   6.769  47.614  1.00  0.00     0.061 A 
HETATM   13  C6  UNL     1      29.742   8.285  47.771  1.00  0.00     0.113 A 
HETATM   14  C7  UNL     1      29.486   7.067  47.336  1.00  0.00     0.003 A 
ENDBRANCH   1   3
BRANCH   1  15
HETATM   15  C12 UNL     1      25.578   2.292  50.899  1.00  0.00     0.726 A 
HETATM   16  N3  UNL     1      26.755   1.754  51.264  1.00  0.00    -0.075 NA
HETATM   17  C13 UNL     1      26.741   0.823  52.236  1.00  0.00     0.139 A 
HETATM   18  C14 UNL     1      25.598   0.390  52.876  1.00  0.00     0.053 A 
HETATM   19  C15 UNL     1      24.409   0.964  52.476  1.00  0.00     0.089 A 
HETATM   20  N5  UNL     1      24.419   1.896  51.504  1.00  0.00    -0.062 NA
BRANCH  19  21
HETATM   21  C16 UNL     1      23.118   0.614  53.055  1.00  0.00     0.011 A 
HETATM   22  C17 UNL     1      23.062  -0.483  53.887  1.00  0.00     0.017 A 
HETATM   23  C18 UNL     1      21.841  -0.852  54.463  1.00  0.00     0.020 A 
HETATM   24  C19 UNL     1      20.698  -0.104  54.187  1.00  0.00     0.116 A 
HETATM   25  N4  UNL     1      20.772   0.969  53.368  1.00  0.00    -0.272 NA
HETATM   26  C20 UNL     1      21.953   1.310  52.823  1.00  0.00     0.130 A 
ENDBRANCH  19  21
ENDBRANCH   1  15
TORSDOF 3
ENDMDL
