MODEL 1
REMARK VINA RESULT:      -8.6      0.000      0.000
REMARK  4 active torsions:
REMARK  status: ('A' for Active; 'I' for Inactive)
REMARK    1  A    between atoms: S1_2  and  N1_5 
REMARK    2  A    between atoms: N1_5  and  C2_6 
REMARK    3  A    between atoms: C12_19  and  S2_20 
REMARK    4  A    between atoms: S2_20  and  C13_21 
ROOT
HETATM    1  C2  UNL     1      26.147   0.832  52.216  1.00  0.00     0.043 A 
HETATM    2  C3  UNL     1      24.831   0.812  52.629  1.00  0.00     0.033 A 
HETATM    3  C4  UNL     1      23.938   1.759  52.173  1.00  0.00     0.040 A 
HETATM    4  C5  UNL     1      24.342   2.743  51.295  1.00  0.00     0.086 A 
HETATM    5  C6  UNL     1      25.647   2.808  50.851  1.00  0.00    -0.004 A 
HETATM    6  C7  UNL     1      26.512   1.845  51.329  1.00  0.00     0.041 A 
HETATM    7  C8  UNL     1      26.281   3.771  49.920  1.00  0.00     0.161 C 
HETATM    8  N2  UNL     1      25.945   5.152  50.267  1.00  0.00    -0.380 N 
HETATM    9  C9  UNL     1      24.640   5.724  50.478  1.00  0.00     0.118 A 
HETATM   10  C10 UNL     1      23.460   5.031  50.773  1.00  0.00     0.201 A 
HETATM   11  N3  UNL     1      22.286   5.704  50.949  1.00  0.00    -0.215 NA
HETATM   12  C11 UNL     1      22.291   7.063  50.832  1.00  0.00     0.237 A 
HETATM   13  N4  UNL     1      23.413   7.750  50.550  1.00  0.00    -0.232 NA
HETATM   14  C12 UNL     1      24.598   7.100  50.369  1.00  0.00     0.130 A 
HETATM   15  O3  UNL     1      23.324   3.636  50.918  1.00  0.00    -0.289 OA
HETATM   16  H10 UNL     1      26.685   5.878  50.397  1.00  0.00     0.160 HD
ENDROOT
BRANCH  14  17
HETATM   17  S2  UNL     1      26.150   7.902  49.991  1.00  0.00    -0.068 SA
BRANCH  17  18
HETATM   18  C13 UNL     1      26.238   8.126  48.221  1.00  0.00     0.008 A 
HETATM   19  C14 UNL     1      25.090   8.250  47.472  1.00  0.00     0.019 A 
HETATM   20  C15 UNL     1      25.203   8.421  46.109  1.00  0.00     0.003 A 
HETATM   21  C16 UNL     1      26.486   8.459  45.567  1.00  0.00     0.019 A 
HETATM   22  C17 UNL     1      27.639   8.338  46.289  1.00  0.00     0.012 A 
HETATM   23 BR1  UNL     1      29.303   8.413  45.380  1.00  0.00    -0.051 Br
HETATM   24  C18 UNL     1      27.504   8.166  47.661  1.00  0.00     0.038 A 
ENDBRANCH  17  18
ENDBRANCH  14  17
BRANCH   1  25
HETATM   25  N1  UNL     1      27.196  -0.054  52.578  1.00  0.00    -0.285 N 
HETATM   26  H4  UNL     1      27.398  -0.857  51.912  1.00  0.00     0.178 HD
BRANCH  25  27
HETATM   27  S1  UNL     1      28.143   0.104  54.014  1.00  0.00     0.227 S 
HETATM   28  C1  UNL     1      29.750  -0.581  53.825  1.00  0.00     0.186 C 
HETATM   29  O1  UNL     1      27.412  -0.489  55.170  1.00  0.00    -0.206 OA
HETATM   30  O2  UNL     1      28.340   1.593  54.264  1.00  0.00    -0.206 OA
ENDBRANCH  25  27
ENDBRANCH   1  25
TORSDOF 4
ENDMDL
MODEL 2
REMARK VINA RESULT:      -8.5      2.132      2.804
REMARK  4 active torsions:
REMARK  status: ('A' for Active; 'I' for Inactive)
REMARK    1  A    between atoms: S1_2  and  N1_5 
REMARK    2  A    between atoms: N1_5  and  C2_6 
REMARK    3  A    between atoms: C12_19  and  S2_20 
REMARK    4  A    between atoms: S2_20  and  C13_21 
ROOT
HETATM    1  C2  UNL     1      26.086   1.198  52.393  1.00  0.00     0.043 A 
HETATM    2  C3  UNL     1      25.132   1.845  53.150  1.00  0.00     0.033 A 
HETATM    3  C4  UNL     1      24.553   3.014  52.699  1.00  0.00     0.040 A 
HETATM    4  C5  UNL     1      24.917   3.557  51.484  1.00  0.00     0.086 A 
HETATM    5  C6  UNL     1      25.866   2.948  50.689  1.00  0.00    -0.004 A 
HETATM    6  C7  UNL     1      26.422   1.782  51.172  1.00  0.00     0.041 A 
HETATM    7  C8  UNL     1      26.394   3.359  49.367  1.00  0.00     0.161 C 
HETATM    8  N2  UNL     1      26.761   4.776  49.352  1.00  0.00    -0.380 N 
HETATM    9  C9  UNL     1      25.957   5.906  49.740  1.00  0.00     0.118 A 
HETATM   10  C10 UNL     1      24.821   5.884  50.558  1.00  0.00     0.201 A 
HETATM   11  N3  UNL     1      24.151   7.038  50.846  1.00  0.00    -0.215 NA
HETATM   12  C11 UNL     1      24.615   8.209  50.320  1.00  0.00     0.237 A 
HETATM   13  N4  UNL     1      25.706   8.253  49.532  1.00  0.00    -0.232 NA
HETATM   14  C12 UNL     1      26.391   7.114  49.230  1.00  0.00     0.130 A 
HETATM   15  O3  UNL     1      24.245   4.747  51.158  1.00  0.00    -0.289 OA
HETATM   16  H10 UNL     1      27.704   5.093  49.035  1.00  0.00     0.160 HD
ENDROOT
BRANCH  14  17
HETATM   17  S2  UNL     1      27.848   7.048  48.197  1.00  0.00    -0.068 SA
BRANCH  17  18
HETATM   18  C13 UNL     1      28.895   8.429  48.631  1.00  0.00     0.008 A 
HETATM   19  C14 UNL     1      30.184   8.223  49.066  1.00  0.00     0.019 A 
HETATM   20  C15 UNL     1      30.957   9.317  49.390  1.00  0.00     0.003 A 
HETATM   21  C16 UNL     1      30.381  10.577  49.257  1.00  0.00     0.019 A 
HETATM   22  C17 UNL     1      29.104  10.808  48.828  1.00  0.00     0.012 A 
HETATM   23 BR1  UNL     1      28.486  12.597  48.707  1.00  0.00    -0.051 Br
HETATM   24  C18 UNL     1      28.342   9.692  48.505  1.00  0.00     0.038 A 
ENDBRANCH  17  18
ENDBRANCH  14  17
BRANCH   1  25
HETATM   25  N1  UNL     1      26.781  -0.003  52.695  1.00  0.00    -0.285 N 
HETATM   26  H4  UNL     1      26.537  -0.858  52.114  1.00  0.00     0.178 HD
BRANCH  25  27
HETATM   27  S1  UNL     1      27.979  -0.142  53.931  1.00  0.00     0.227 S 
HETATM   28  C1  UNL     1      29.017   1.275  54.007  1.00  0.00     0.186 C 
HETATM   29  O1  UNL     1      28.758  -1.399  53.743  1.00  0.00    -0.206 OA
HETATM   30  O2  UNL     1      27.247  -0.207  55.265  1.00  0.00    -0.206 OA
ENDBRANCH  25  27
ENDBRANCH   1  25
TORSDOF 4
ENDMDL
MODEL 3
REMARK VINA RESULT:      -8.1      6.100      8.499
REMARK  4 active torsions:
REMARK  status: ('A' for Active; 'I' for Inactive)
REMARK    1  A    between atoms: S1_2  and  N1_5 
REMARK    2  A    between atoms: N1_5  and  C2_6 
REMARK    3  A    between atoms: C12_19  and  S2_20 
REMARK    4  A    between atoms: S2_20  and  C13_21 
ROOT
HETATM    1  C2  UNL     1      26.127   0.480  52.369  1.00  0.00     0.043 A 
HETATM    2  C3  UNL     1      26.165   1.780  51.909  1.00  0.00     0.033 A 
HETATM    3  C4  UNL     1      25.048   2.586  51.993  1.00  0.00     0.040 A 
HETATM    4  C5  UNL     1      23.874   2.108  52.538  1.00  0.00     0.086 A 
HETATM    5  C6  UNL     1      23.784   0.816  53.012  1.00  0.00    -0.004 A 
HETATM    6  C7  UNL     1      24.920   0.039  52.911  1.00  0.00     0.041 A 
HETATM    7  C8  UNL     1      22.634   0.113  53.626  1.00  0.00     0.161 C 
HETATM    8  N2  UNL     1      21.411   0.300  52.844  1.00  0.00    -0.380 N 
HETATM    9  C9  UNL     1      20.825   1.535  52.391  1.00  0.00     0.118 A 
HETATM   10  C10 UNL     1      21.472   2.770  52.263  1.00  0.00     0.201 A 
HETATM   11  N3  UNL     1      20.791   3.866  51.817  1.00  0.00    -0.215 NA
HETATM   12  C11 UNL     1      19.471   3.728  51.501  1.00  0.00     0.237 A 
HETATM   13  N4  UNL     1      18.830   2.550  51.615  1.00  0.00    -0.232 NA
HETATM   14  C12 UNL     1      19.489   1.442  52.058  1.00  0.00     0.130 A 
HETATM   15  O3  UNL     1      22.823   3.041  52.557  1.00  0.00    -0.289 OA
HETATM   16  H10 UNL     1      20.831  -0.513  52.534  1.00  0.00     0.160 HD
ENDROOT
BRANCH  14  17
HETATM   17  S2  UNL     1      18.745  -0.173  52.252  1.00  0.00    -0.068 SA
BRANCH  17  18
HETATM   18  C13 UNL     1      17.169  -0.159  51.411  1.00  0.00     0.008 A 
HETATM   19  C14 UNL     1      17.107  -0.214  50.037  1.00  0.00     0.019 A 
HETATM   20  C15 UNL     1      15.870  -0.201  49.429  1.00  0.00     0.003 A 
HETATM   21  C16 UNL     1      14.747  -0.131  50.250  1.00  0.00     0.019 A 
HETATM   22  C17 UNL     1      14.783  -0.075  51.615  1.00  0.00     0.012 A 
HETATM   23 BR1  UNL     1      13.149   0.017  52.573  1.00  0.00    -0.051 Br
HETATM   24  C18 UNL     1      16.040  -0.090  52.208  1.00  0.00     0.038 A 
ENDBRANCH  17  18
ENDBRANCH  14  17
BRANCH   1  25
HETATM   25  N1  UNL     1      27.170  -0.484  52.364  1.00  0.00    -0.285 N 
HETATM   26  H4  UNL     1      27.222  -1.130  51.523  1.00  0.00     0.178 HD
BRANCH  25  27
HETATM   27  S1  UNL     1      28.335  -0.656  53.628  1.00  0.00     0.227 S 
HETATM   28  C1  UNL     1      29.538   0.626  53.597  1.00  0.00     0.186 C 
HETATM   29  O1  UNL     1      28.955  -2.010  53.565  1.00  0.00    -0.206 OA
HETATM   30  O2  UNL     1      27.592  -0.512  54.950  1.00  0.00    -0.206 OA
ENDBRANCH  25  27
ENDBRANCH   1  25
TORSDOF 4
ENDMDL
MODEL 4
REMARK VINA RESULT:      -8.0      4.508      8.635
REMARK  4 active torsions:
REMARK  status: ('A' for Active; 'I' for Inactive)
REMARK    1  A    between atoms: S1_2  and  N1_5 
REMARK    2  A    between atoms: N1_5  and  C2_6 
REMARK    3  A    between atoms: C12_19  and  S2_20 
REMARK    4  A    between atoms: S2_20  and  C13_21 
ROOT
HETATM    1  C2  UNL     1      27.256   7.627  47.917  1.00  0.00     0.043 A 
HETATM    2  C3  UNL     1      28.391   6.858  48.070  1.00  0.00     0.033 A 
HETATM    3  C4  UNL     1      28.300   5.555  48.515  1.00  0.00     0.040 A 
HETATM    4  C5  UNL     1      27.075   4.997  48.814  1.00  0.00     0.086 A 
HETATM    5  C6  UNL     1      25.910   5.724  48.677  1.00  0.00    -0.004 A 
HETATM    6  C7  UNL     1      26.039   7.022  48.231  1.00  0.00     0.041 A 
HETATM    7  C8  UNL     1      24.509   5.320  48.941  1.00  0.00     0.161 C 
HETATM    8  N2  UNL     1      24.376   4.660  50.240  1.00  0.00    -0.380 N 
HETATM    9  C9  UNL     1      25.131   3.545  50.753  1.00  0.00     0.118 A 
HETATM   10  C10 UNL     1      26.380   3.103  50.302  1.00  0.00     0.201 A 
HETATM   11  N3  UNL     1      26.985   2.026  50.882  1.00  0.00    -0.215 NA
HETATM   12  C11 UNL     1      26.346   1.395  51.910  1.00  0.00     0.237 A 
HETATM   13  N4  UNL     1      25.145   1.805  52.360  1.00  0.00    -0.232 NA
HETATM   14  C12 UNL     1      24.521   2.877  51.795  1.00  0.00     0.130 A 
HETATM   15  O3  UNL     1      27.138   3.664  49.255  1.00  0.00    -0.289 OA
HETATM   16  H10 UNL     1      23.670   4.974  50.943  1.00  0.00     0.160 HD
ENDROOT
BRANCH  14  17
HETATM   17  S2  UNL     1      22.929   3.511  52.305  1.00  0.00    -0.068 SA
BRANCH  17  18
HETATM   18  C13 UNL     1      21.749   2.172  52.221  1.00  0.00     0.008 A 
HETATM   19  C14 UNL     1      20.724   2.198  51.304  1.00  0.00     0.019 A 
HETATM   20  C15 UNL     1      19.835   1.145  51.273  1.00  0.00     0.003 A 
HETATM   21  C16 UNL     1      20.031   0.108  52.182  1.00  0.00     0.019 A 
HETATM   22  C17 UNL     1      21.040   0.060  53.102  1.00  0.00     0.012 A 
HETATM   23 BR1  UNL     1      21.152  -1.435  54.264  1.00  0.00    -0.051 Br
HETATM   24  C18 UNL     1      21.925   1.131  53.117  1.00  0.00     0.038 A 
ENDBRANCH  17  18
ENDBRANCH  14  17
BRANCH   1  25
HETATM   25  N1  UNL     1      27.160   8.973  47.474  1.00  0.00    -0.285 N 
HETATM   26  H4  UNL     1      27.267   9.145  46.431  1.00  0.00     0.178 HD
BRANCH  25  27
HETATM   27  S1  UNL     1      26.883  10.319  48.522  1.00  0.00     0.227 S 
HETATM   28  C1  UNL     1      27.922  11.682  48.135  1.00  0.00     0.186 C 
HETATM   29  O1  UNL     1      27.024   9.891  49.943  1.00  0.00    -0.206 OA
HETATM   30  O2  UNL     1      25.455  10.789  48.286  1.00  0.00    -0.206 OA
ENDBRANCH  25  27
ENDBRANCH   1  25
TORSDOF 4
ENDMDL
MODEL 5
REMARK VINA RESULT:      -8.0      4.446      6.200
REMARK  4 active torsions:
REMARK  status: ('A' for Active; 'I' for Inactive)
REMARK    1  A    between atoms: S1_2  and  N1_5 
REMARK    2  A    between atoms: N1_5  and  C2_6 
REMARK    3  A    between atoms: C12_19  and  S2_20 
REMARK    4  A    between atoms: S2_20  and  C13_21 
ROOT
HETATM    1  C2  UNL     1      25.321   4.348  49.353  1.00  0.00     0.043 A 
HETATM    2  C3  UNL     1      24.567   5.475  49.095  1.00  0.00     0.033 A 
HETATM    3  C4  UNL     1      25.158   6.613  48.586  1.00  0.00     0.040 A 
HETATM    4  C5  UNL     1      26.513   6.646  48.325  1.00  0.00     0.086 A 
HETATM    5  C6  UNL     1      27.311   5.547  48.565  1.00  0.00    -0.004 A 
HETATM    6  C7  UNL     1      26.685   4.428  49.075  1.00  0.00     0.041 A 
HETATM    7  C8  UNL     1      28.768   5.374  48.359  1.00  0.00     0.161 C 
HETATM    8  N2  UNL     1      29.524   6.500  48.907  1.00  0.00    -0.380 N 
HETATM    9  C9  UNL     1      29.331   7.906  48.659  1.00  0.00     0.118 A 
HETATM   10  C10 UNL     1      28.173   8.517  48.164  1.00  0.00     0.201 A 
HETATM   11  N3  UNL     1      28.128   9.869  47.976  1.00  0.00    -0.215 NA
HETATM   12  C11 UNL     1      29.234  10.606  48.284  1.00  0.00     0.237 A 
HETATM   13  N4  UNL     1      30.358  10.039  48.762  1.00  0.00    -0.232 NA
HETATM   14  C12 UNL     1      30.427   8.692  48.957  1.00  0.00     0.130 A 
HETATM   15  O3  UNL     1      26.973   7.870  47.810  1.00  0.00    -0.289 OA
HETATM   16  H10 UNL     1      30.320   6.354  49.568  1.00  0.00     0.160 HD
ENDROOT
BRANCH  14  17
HETATM   17  S2  UNL     1      31.861   7.828  49.584  1.00  0.00    -0.068 SA
BRANCH  17  18
HETATM   18  C13 UNL     1      32.696   7.067  48.200  1.00  0.00     0.008 A 
HETATM   19  C14 UNL     1      32.782   7.717  46.990  1.00  0.00     0.019 A 
HETATM   20  C15 UNL     1      33.434   7.094  45.948  1.00  0.00     0.003 A 
HETATM   21  C16 UNL     1      33.973   5.832  46.185  1.00  0.00     0.019 A 
HETATM   22  C17 UNL     1      33.901   5.167  47.377  1.00  0.00     0.012 A 
HETATM   23 BR1  UNL     1      34.695   3.451  47.519  1.00  0.00    -0.051 Br
HETATM   24  C18 UNL     1      33.239   5.812  48.415  1.00  0.00     0.038 A 
ENDBRANCH  17  18
ENDBRANCH  14  17
BRANCH   1  25
HETATM   25  N1  UNL     1      24.886   3.100  49.872  1.00  0.00    -0.285 N 
HETATM   26  H4  UNL     1      24.591   2.363  49.166  1.00  0.00     0.178 HD
BRANCH  25  27
HETATM   27  S1  UNL     1      24.816   2.725  51.557  1.00  0.00     0.227 S 
HETATM   28  C1  UNL     1      23.850   3.888  52.453  1.00  0.00     0.186 C 
HETATM   29  O1  UNL     1      26.196   2.600  52.105  1.00  0.00    -0.206 OA
HETATM   30  O2  UNL     1      24.105   1.385  51.692  1.00  0.00    -0.206 OA
ENDBRANCH  25  27
ENDBRANCH   1  25
TORSDOF 4
ENDMDL
MODEL 6
REMARK VINA RESULT:      -7.9      4.812      6.921
REMARK  4 active torsions:
REMARK  status: ('A' for Active; 'I' for Inactive)
REMARK    1  A    between atoms: S1_2  and  N1_5 
REMARK    2  A    between atoms: N1_5  and  C2_6 
REMARK    3  A    between atoms: C12_19  and  S2_20 
REMARK    4  A    between atoms: S2_20  and  C13_21 
ROOT
HETATM    1  C2  UNL     1      26.244   2.140  53.020  1.00  0.00     0.043 A 
HETATM    2  C3  UNL     1      26.740   2.063  51.735  1.00  0.00     0.033 A 
HETATM    3  C4  UNL     1      26.065   2.653  50.686  1.00  0.00     0.040 A 
HETATM    4  C5  UNL     1      24.883   3.330  50.901  1.00  0.00     0.086 A 
HETATM    5  C6  UNL     1      24.344   3.436  52.167  1.00  0.00    -0.004 A 
HETATM    6  C7  UNL     1      25.046   2.833  53.190  1.00  0.00     0.041 A 
HETATM    7  C8  UNL     1      23.101   4.109  52.611  1.00  0.00     0.161 C 
HETATM    8  N2  UNL     1      21.965   3.754  51.760  1.00  0.00    -0.380 N 
HETATM    9  C9  UNL     1      21.872   3.827  50.324  1.00  0.00     0.118 A 
HETATM   10  C10 UNL     1      22.938   3.881  49.419  1.00  0.00     0.201 A 
HETATM   11  N3  UNL     1      22.704   3.949  48.075  1.00  0.00    -0.215 NA
HETATM   12  C11 UNL     1      21.411   3.960  47.640  1.00  0.00     0.237 A 
HETATM   13  N4  UNL     1      20.371   3.908  48.493  1.00  0.00    -0.232 NA
HETATM   14  C12 UNL     1      20.580   3.841  49.838  1.00  0.00     0.130 A 
HETATM   15  O3  UNL     1      24.310   3.877  49.741  1.00  0.00    -0.289 OA
HETATM   16  H10 UNL     1      21.071   3.394  52.164  1.00  0.00     0.160 HD
ENDROOT
BRANCH  14  17
HETATM   17  S2  UNL     1      19.282   3.768  51.066  1.00  0.00    -0.068 SA
BRANCH  17  18
HETATM   18  C13 UNL     1      18.937   2.048  51.402  1.00  0.00     0.008 A 
HETATM   19  C14 UNL     1      17.894   1.406  50.772  1.00  0.00     0.019 A 
HETATM   20  C15 UNL     1      17.662   0.078  51.061  1.00  0.00     0.003 A 
HETATM   21  C16 UNL     1      18.505  -0.540  51.981  1.00  0.00     0.019 A 
HETATM   22  C17 UNL     1      19.545   0.075  52.619  1.00  0.00     0.012 A 
HETATM   23 BR1  UNL     1      20.591  -0.925  53.845  1.00  0.00    -0.051 Br
HETATM   24  C18 UNL     1      19.763   1.414  52.314  1.00  0.00     0.038 A 
ENDBRANCH  17  18
ENDBRANCH  14  17
BRANCH   1  25
HETATM   25  N1  UNL     1      26.798   1.598  54.209  1.00  0.00    -0.285 N 
HETATM   26  H4  UNL     1      27.149   2.291  54.934  1.00  0.00     0.178 HD
BRANCH  25  27
HETATM   27  S1  UNL     1      26.928  -0.094  54.534  1.00  0.00     0.227 S 
HETATM   28  C1  UNL     1      26.620  -1.066  53.102  1.00  0.00     0.186 C 
HETATM   29  O1  UNL     1      26.031  -0.462  55.666  1.00  0.00    -0.206 OA
HETATM   30  O2  UNL     1      28.371  -0.368  54.935  1.00  0.00    -0.206 OA
ENDBRANCH  25  27
ENDBRANCH   1  25
TORSDOF 4
ENDMDL
MODEL 7
REMARK VINA RESULT:      -7.9      4.780      7.706
REMARK  4 active torsions:
REMARK  status: ('A' for Active; 'I' for Inactive)
REMARK    1  A    between atoms: S1_2  and  N1_5 
REMARK    2  A    between atoms: N1_5  and  C2_6 
REMARK    3  A    between atoms: C12_19  and  S2_20 
REMARK    4  A    between atoms: S2_20  and  C13_21 
ROOT
HETATM    1  C2  UNL     1      28.221   5.815  48.327  1.00  0.00     0.043 A 
HETATM    2  C3  UNL     1      27.586   7.039  48.291  1.00  0.00     0.033 A 
HETATM    3  C4  UNL     1      26.321   7.189  48.820  1.00  0.00     0.040 A 
HETATM    4  C5  UNL     1      25.667   6.120  49.395  1.00  0.00     0.086 A 
HETATM    5  C6  UNL     1      26.258   4.874  49.457  1.00  0.00    -0.004 A 
HETATM    6  C7  UNL     1      27.522   4.762  48.917  1.00  0.00     0.041 A 
HETATM    7  C8  UNL     1      25.736   3.609  50.023  1.00  0.00     0.161 C 
HETATM    8  N2  UNL     1      24.370   3.342  49.572  1.00  0.00    -0.380 N 
HETATM    9  C9  UNL     1      23.226   4.215  49.636  1.00  0.00     0.118 A 
HETATM   10  C10 UNL     1      23.243   5.608  49.779  1.00  0.00     0.201 A 
HETATM   11  N3  UNL     1      22.076   6.315  49.824  1.00  0.00    -0.215 NA
HETATM   12  C11 UNL     1      20.898   5.634  49.726  1.00  0.00     0.237 A 
HETATM   13  N4  UNL     1      20.858   4.295  49.587  1.00  0.00    -0.232 NA
HETATM   14  C12 UNL     1      22.010   3.568  49.540  1.00  0.00     0.130 A 
HETATM   15  O3  UNL     1      24.387   6.422  49.891  1.00  0.00    -0.289 OA
HETATM   16  H10 UNL     1      24.106   2.429  49.139  1.00  0.00     0.160 HD
ENDROOT
BRANCH  14  17
HETATM   17  S2  UNL     1      22.083   1.791  49.359  1.00  0.00    -0.068 SA
BRANCH  17  18
HETATM   18  C13 UNL     1      21.774   1.060  50.959  1.00  0.00     0.008 A 
HETATM   19  C14 UNL     1      22.765   1.019  51.914  1.00  0.00     0.019 A 
HETATM   20  C15 UNL     1      22.484   0.446  53.136  1.00  0.00     0.003 A 
HETATM   21  C16 UNL     1      21.203  -0.062  53.332  1.00  0.00     0.019 A 
HETATM   22  C17 UNL     1      20.203  -0.034  52.400  1.00  0.00     0.012 A 
HETATM   23 BR1  UNL     1      18.515  -0.776  52.843  1.00  0.00    -0.051 Br
HETATM   24  C18 UNL     1      20.506   0.548  51.175  1.00  0.00     0.038 A 
ENDBRANCH  17  18
ENDBRANCH  14  17
BRANCH   1  25
HETATM   25  N1  UNL     1      29.510   5.479  47.836  1.00  0.00    -0.285 N 
HETATM   26  H4  UNL     1      29.549   4.839  46.988  1.00  0.00     0.178 HD
BRANCH  25  27
HETATM   27  S1  UNL     1      30.987   6.045  48.529  1.00  0.00     0.227 S 
HETATM   28  C1  UNL     1      32.333   5.928  47.404  1.00  0.00     0.186 C 
HETATM   29  O1  UNL     1      31.258   5.323  49.804  1.00  0.00    -0.206 OA
HETATM   30  O2  UNL     1      30.807   7.527  48.828  1.00  0.00    -0.206 OA
ENDBRANCH  25  27
ENDBRANCH   1  25
TORSDOF 4
ENDMDL
MODEL 8
REMARK VINA RESULT:      -7.8      2.175      2.917
REMARK  4 active torsions:
REMARK  status: ('A' for Active; 'I' for Inactive)
REMARK    1  A    between atoms: S1_2  and  N1_5 
REMARK    2  A    between atoms: N1_5  and  C2_6 
REMARK    3  A    between atoms: C12_19  and  S2_20 
REMARK    4  A    between atoms: S2_20  and  C13_21 
ROOT
HETATM    1  C2  UNL     1      24.820   1.821  52.603  1.00  0.00     0.043 A 
HETATM    2  C3  UNL     1      23.932   2.762  53.083  1.00  0.00     0.033 A 
HETATM    3  C4  UNL     1      23.725   3.943  52.400  1.00  0.00     0.040 A 
HETATM    4  C5  UNL     1      24.401   4.206  51.227  1.00  0.00     0.086 A 
HETATM    5  C6  UNL     1      25.300   3.298  50.705  1.00  0.00    -0.004 A 
HETATM    6  C7  UNL     1      25.481   2.129  51.414  1.00  0.00     0.041 A 
HETATM    7  C8  UNL     1      26.121   3.383  49.474  1.00  0.00     0.161 C 
HETATM    8  N2  UNL     1      26.805   4.672  49.374  1.00  0.00    -0.380 N 
HETATM    9  C9  UNL     1      26.236   5.991  49.469  1.00  0.00     0.118 A 
HETATM   10  C10 UNL     1      25.007   6.333  50.046  1.00  0.00     0.201 A 
HETATM   11  N3  UNL     1      24.587   7.631  50.067  1.00  0.00    -0.215 NA
HETATM   12  C11 UNL     1      25.392   8.585  49.515  1.00  0.00     0.237 A 
HETATM   13  N4  UNL     1      26.578   8.279  48.955  1.00  0.00    -0.232 NA
HETATM   14  C12 UNL     1      27.017   6.989  48.922  1.00  0.00     0.130 A 
HETATM   15  O3  UNL     1      24.090   5.446  50.645  1.00  0.00    -0.289 OA
HETATM   16  H10 UNL     1      27.836   4.732  49.214  1.00  0.00     0.160 HD
ENDROOT
BRANCH  14  17
HETATM   17  S2  UNL     1      28.570   6.463  48.207  1.00  0.00    -0.068 SA
BRANCH  17  18
HETATM   18  C13 UNL     1      29.610   7.903  48.026  1.00  0.00     0.008 A 
HETATM   19  C14 UNL     1      30.509   8.248  49.009  1.00  0.00     0.019 A 
HETATM   20  C15 UNL     1      31.292   9.367  48.829  1.00  0.00     0.003 A 
HETATM   21  C16 UNL     1      31.125  10.090  47.651  1.00  0.00     0.019 A 
HETATM   22  C17 UNL     1      30.240   9.770  46.661  1.00  0.00     0.012 A 
HETATM   23 BR1  UNL     1      30.147  10.872  45.121  1.00  0.00    -0.051 Br
HETATM   24  C18 UNL     1      29.460   8.637  46.862  1.00  0.00     0.038 A 
ENDBRANCH  17  18
ENDBRANCH  14  17
BRANCH   1  25
HETATM   25  N1  UNL     1      25.155   0.562  53.167  1.00  0.00    -0.285 N 
HETATM   26  H4  UNL     1      24.493  -0.245  52.969  1.00  0.00     0.178 HD
BRANCH  25  27
HETATM   27  S1  UNL     1      26.557   0.279  54.137  1.00  0.00     0.227 S 
HETATM   28  C1  UNL     1      27.854  -0.473  53.219  1.00  0.00     0.186 C 
HETATM   29  O1  UNL     1      26.187  -0.517  55.341  1.00  0.00    -0.206 OA
HETATM   30  O2  UNL     1      27.080   1.638  54.582  1.00  0.00    -0.206 OA
ENDBRANCH  25  27
ENDBRANCH   1  25
TORSDOF 4
ENDMDL
MODEL 9
REMARK VINA RESULT:      -7.7      4.489      6.696
REMARK  4 active torsions:
REMARK  status: ('A' for Active; 'I' for Inactive)
REMARK    1  A    between atoms: S1_2  and  N1_5 
REMARK    2  A    between atoms: N1_5  and  C2_6 
REMARK    3  A    between atoms: C12_19  and  S2_20 
REMARK    4  A    between atoms: S2_20  and  C13_21 
ROOT
HETATM    1  C2  UNL     1      24.654   4.893  49.702  1.00  0.00     0.043 A 
HETATM    2  C3  UNL     1      24.103   6.075  49.251  1.00  0.00     0.033 A 
HETATM    3  C4  UNL     1      24.868   6.980  48.544  1.00  0.00     0.040 A 
HETATM    4  C5  UNL     1      26.196   6.721  48.273  1.00  0.00     0.086 A 
HETATM    5  C6  UNL     1      26.794   5.554  48.702  1.00  0.00    -0.004 A 
HETATM    6  C7  UNL     1      25.999   4.673  49.407  1.00  0.00     0.041 A 
HETATM    7  C8  UNL     1      28.188   5.086  48.521  1.00  0.00     0.161 C 
HETATM    8  N2  UNL     1      29.153   6.134  48.855  1.00  0.00    -0.380 N 
HETATM    9  C9  UNL     1      29.204   7.486  48.361  1.00  0.00     0.118 A 
HETATM   10  C10 UNL     1      28.155   8.202  47.771  1.00  0.00     0.201 A 
HETATM   11  N3  UNL     1      28.343   9.485  47.346  1.00  0.00    -0.215 NA
HETATM   12  C11 UNL     1      29.574  10.051  47.510  1.00  0.00     0.237 A 
HETATM   13  N4  UNL     1      30.596   9.382  48.076  1.00  0.00    -0.232 NA
HETATM   14  C12 UNL     1      30.432   8.100  48.508  1.00  0.00     0.130 A 
HETATM   15  O3  UNL     1      26.846   7.732  47.546  1.00  0.00    -0.289 OA
HETATM   16  H10 UNL     1      29.935   5.964  49.527  1.00  0.00     0.160 HD
ENDROOT
BRANCH  14  17
HETATM   17  S2  UNL     1      31.713   7.113  49.271  1.00  0.00    -0.068 SA
BRANCH  17  18
HETATM   18  C13 UNL     1      32.499   6.145  47.993  1.00  0.00     0.008 A 
HETATM   19  C14 UNL     1      33.226   6.757  46.996  1.00  0.00     0.019 A 
HETATM   20  C15 UNL     1      33.816   5.972  46.029  1.00  0.00     0.003 A 
HETATM   21  C16 UNL     1      33.640   4.594  46.119  1.00  0.00     0.019 A 
HETATM   22  C17 UNL     1      32.924   3.963  47.097  1.00  0.00     0.012 A 
HETATM   23 BR1  UNL     1      32.790   2.072  47.061  1.00  0.00    -0.051 Br
HETATM   24  C18 UNL     1      32.337   4.772  48.063  1.00  0.00     0.038 A 
ENDBRANCH  17  18
ENDBRANCH  14  17
BRANCH   1  25
HETATM   25  N1  UNL     1      24.025   3.855  50.438  1.00  0.00    -0.285 N 
HETATM   26  H4  UNL     1      24.347   3.713  51.441  1.00  0.00     0.178 HD
BRANCH  25  27
HETATM   27  S1  UNL     1      22.786   2.832  49.802  1.00  0.00     0.227 S 
HETATM   28  C1  UNL     1      21.199   3.582  49.894  1.00  0.00     0.186 C 
HETATM   29  O1  UNL     1      22.822   1.508  50.485  1.00  0.00    -0.206 OA
HETATM   30  O2  UNL     1      23.080   2.634  48.321  1.00  0.00    -0.206 OA
ENDBRANCH  25  27
ENDBRANCH   1  25
TORSDOF 4
ENDMDL
