MODEL 1
REMARK VINA RESULT:      -8.1      0.000      0.000
REMARK  5 active torsions:
REMARK  status: ('A' for Active; 'I' for Inactive)
REMARK    1  A    between atoms: N1_1  and  S1_2 
REMARK    2  A    between atoms: S1_2  and  C1_3 
REMARK    3  A    between atoms: C2_4  and  O1_5 
REMARK    4  A    between atoms: C2_4  and  C3_6 
REMARK    5  A    between atoms: C8_11  and  C9_12 
ROOT
HETATM    1  C3  UNL     1      27.646   0.722  52.930  1.00  0.00     0.008 A 
HETATM    2  C4  UNL     1      28.989   0.961  53.211  1.00  0.00     0.015 A 
HETATM    3  C5  UNL     1      29.853  -0.071  53.511  1.00  0.00     0.001 A 
HETATM    4  C6  UNL     1      29.387  -1.371  53.535  1.00  0.00     0.001 A 
HETATM    5  C7  UNL     1      28.053  -1.554  53.250  1.00  0.00     0.012 A 
HETATM    6  C8  UNL     1      27.187  -0.545  52.954  1.00  0.00    -0.023 A 
ENDROOT
BRANCH   6   7
HETATM    7  C9  UNL     1      25.774  -0.754  52.697  1.00  0.00     0.022 C 
HETATM    8  C10 UNL     1      25.067  -0.692  53.814  1.00  0.00    -0.023 C 
HETATM    9  C11 UNL     1      25.378  -0.463  55.242  1.00  0.00     0.210 C 
HETATM   10  C15 UNL     1      23.609  -0.881  53.837  1.00  0.00     0.003 C 
HETATM   11  O2  UNL     1      24.425  -1.168  55.970  1.00  0.00    -0.352 OA
HETATM   12  C12 UNL     1      23.409  -1.572  55.170  1.00  0.00     0.295 C 
HETATM   13  O3  UNL     1      22.135  -1.167  55.475  1.00  0.00    -0.353 OA
HETATM   14  C13 UNL     1      21.441  -1.337  54.242  1.00  0.00     0.199 C 
HETATM   15  C14 UNL     1      22.405  -0.749  53.248  1.00  0.00     0.012 C 
ENDBRANCH   6   7
BRANCH   1  16
HETATM   16  C2  UNL     1      26.956   1.953  52.623  1.00  0.00     0.084 C 
HETATM   17  C1  UNL     1      26.798   2.383  51.405  1.00  0.00     0.214 C 
BRANCH  17  18
HETATM   18  S1  UNL     1      26.172   3.608  50.314  1.00  0.00    -0.152 SA
BRANCH  18  19
HETATM   19  N1  UNL     1      27.427   4.441  49.392  1.00  0.00    -0.290 NA
HETATM   20  H1  UNL     1      27.094   5.303  48.923  1.00  0.00     0.130 HD
HETATM   21  H2  UNL     1      27.886   3.807  48.695  1.00  0.00     0.130 HD
ENDBRANCH  18  19
ENDBRANCH  17  18
BRANCH  16  22
HETATM   22  O1  UNL     1      26.371   2.854  53.485  1.00  0.00    -0.359 OA
HETATM   23  H4  UNL     1      25.388   2.730  53.723  1.00  0.00     0.217 HD
ENDBRANCH  16  22
ENDBRANCH   1  16
TORSDOF 5
ENDMDL
MODEL 2
REMARK VINA RESULT:      -7.9      1.963      4.853
REMARK  5 active torsions:
REMARK  status: ('A' for Active; 'I' for Inactive)
REMARK    1  A    between atoms: N1_1  and  S1_2 
REMARK    2  A    between atoms: S1_2  and  C1_3 
REMARK    3  A    between atoms: C2_4  and  O1_5 
REMARK    4  A    between atoms: C2_4  and  C3_6 
REMARK    5  A    between atoms: C8_11  and  C9_12 
ROOT
HETATM    1  C3  UNL     1      23.646   1.128  52.770  1.00  0.00     0.008 A 
HETATM    2  C4  UNL     1      22.358   1.557  53.083  1.00  0.00     0.015 A 
HETATM    3  C5  UNL     1      21.432   0.700  53.638  1.00  0.00     0.001 A 
HETATM    4  C6  UNL     1      21.778  -0.612  53.892  1.00  0.00     0.001 A 
HETATM    5  C7  UNL     1      23.061  -0.987  53.565  1.00  0.00     0.012 A 
HETATM    6  C8  UNL     1      23.987  -0.153  53.015  1.00  0.00    -0.023 A 
ENDROOT
BRANCH   6   7
HETATM    7  C9  UNL     1      25.322  -0.577  52.639  1.00  0.00     0.022 C 
HETATM    8  C10 UNL     1      26.192  -0.351  53.612  1.00  0.00    -0.023 C 
HETATM    9  C11 UNL     1      26.119   0.225  54.973  1.00  0.00     0.210 C 
HETATM   10  C15 UNL     1      27.620  -0.677  53.486  1.00  0.00     0.003 C 
HETATM   11  O2  UNL     1      27.354   0.817  55.215  1.00  0.00    -0.352 OA
HETATM   12  C12 UNL     1      28.262   0.437  54.286  1.00  0.00     0.295 C 
HETATM   13  O3  UNL     1      29.409  -0.185  54.708  1.00  0.00    -0.353 OA
HETATM   14  C13 UNL     1      29.865  -0.849  53.532  1.00  0.00     0.199 C 
HETATM   15  C14 UNL     1      28.600  -1.464  53.001  1.00  0.00     0.012 C 
ENDBRANCH   6   7
BRANCH   1  16
HETATM   16  C2  UNL     1      24.433   2.211  52.227  1.00  0.00     0.084 C 
HETATM   17  C1  UNL     1      24.380   2.555  50.974  1.00  0.00     0.214 C 
BRANCH  17  18
HETATM   18  S1  UNL     1      24.932   3.608  49.681  1.00  0.00    -0.152 SA
BRANCH  18  19
HETATM   19  N1  UNL     1      26.008   4.895  50.228  1.00  0.00    -0.290 NA
HETATM   20  H1  UNL     1      25.630   5.848  50.072  1.00  0.00     0.130 HD
HETATM   21  H2  UNL     1      26.963   4.814  49.803  1.00  0.00     0.130 HD
ENDBRANCH  18  19
ENDBRANCH  17  18
BRANCH  16  22
HETATM   22  O1  UNL     1      25.330   3.034  52.871  1.00  0.00    -0.359 OA
HETATM   23  H4  UNL     1      25.182   3.234  53.860  1.00  0.00     0.217 HD
ENDBRANCH  16  22
ENDBRANCH   1  16
TORSDOF 5
ENDMDL
MODEL 3
REMARK VINA RESULT:      -7.5      2.879      5.783
REMARK  5 active torsions:
REMARK  status: ('A' for Active; 'I' for Inactive)
REMARK    1  A    between atoms: N1_1  and  S1_2 
REMARK    2  A    between atoms: S1_2  and  C1_3 
REMARK    3  A    between atoms: C2_4  and  O1_5 
REMARK    4  A    between atoms: C2_4  and  C3_6 
REMARK    5  A    between atoms: C8_11  and  C9_12 
ROOT
HETATM    1  C3  UNL     1      24.781  -0.351  53.739  1.00  0.00     0.008 A 
HETATM    2  C4  UNL     1      24.154  -0.965  54.820  1.00  0.00     0.015 A 
HETATM    3  C5  UNL     1      22.790  -0.874  55.004  1.00  0.00     0.001 A 
HETATM    4  C6  UNL     1      22.023  -0.161  54.104  1.00  0.00     0.001 A 
HETATM    5  C7  UNL     1      22.689   0.427  53.054  1.00  0.00     0.012 A 
HETATM    6  C8  UNL     1      24.036   0.347  52.858  1.00  0.00    -0.023 A 
ENDROOT
BRANCH   6   7
HETATM    7  C9  UNL     1      24.726   1.008  51.768  1.00  0.00     0.022 C 
HETATM    8  C10 UNL     1      24.674   2.325  51.892  1.00  0.00    -0.023 C 
HETATM    9  C11 UNL     1      24.083   3.265  52.870  1.00  0.00     0.210 C 
HETATM   10  C15 UNL     1      25.285   3.235  50.913  1.00  0.00     0.003 C 
HETATM   11  O2  UNL     1      23.753   4.414  52.161  1.00  0.00    -0.352 OA
HETATM   12  C12 UNL     1      24.318   4.401  50.930  1.00  0.00     0.295 C 
HETATM   13  O3  UNL     1      25.157   5.429  50.584  1.00  0.00    -0.353 OA
HETATM   14  C13 UNL     1      25.910   4.880  49.506  1.00  0.00     0.199 C 
HETATM   15  C14 UNL     1      26.260   3.511  50.024  1.00  0.00     0.012 C 
ENDBRANCH   6   7
BRANCH   1  16
HETATM   16  C2  UNL     1      26.202  -0.612  53.750  1.00  0.00     0.084 C 
HETATM   17  C1  UNL     1      27.064   0.230  54.239  1.00  0.00     0.214 C 
BRANCH  17  18
HETATM   18  S1  UNL     1      28.737   0.631  54.593  1.00  0.00    -0.152 SA
BRANCH  18  19
HETATM   19  N1  UNL     1      29.127   2.332  54.327  1.00  0.00    -0.290 NA
HETATM   20  H1  UNL     1      29.438   2.541  53.360  1.00  0.00     0.130 HD
HETATM   21  H2  UNL     1      29.835   2.684  55.015  1.00  0.00     0.130 HD
ENDBRANCH  18  19
ENDBRANCH  17  18
BRANCH  16  22
HETATM   22  O1  UNL     1      26.881  -1.715  53.283  1.00  0.00    -0.359 OA
HETATM   23  H4  UNL     1      27.396  -2.288  53.951  1.00  0.00     0.217 HD
ENDBRANCH  16  22
ENDBRANCH   1  16
TORSDOF 5
ENDMDL
MODEL 4
REMARK VINA RESULT:      -7.4      4.169      7.757
REMARK  5 active torsions:
REMARK  status: ('A' for Active; 'I' for Inactive)
REMARK    1  A    between atoms: N1_1  and  S1_2 
REMARK    2  A    between atoms: S1_2  and  C1_3 
REMARK    3  A    between atoms: C2_4  and  O1_5 
REMARK    4  A    between atoms: C2_4  and  C3_6 
REMARK    5  A    between atoms: C8_11  and  C9_12 
ROOT
HETATM    1  C3  UNL     1      25.563   2.302  51.310  1.00  0.00     0.008 A 
HETATM    2  C4  UNL     1      24.483   1.854  52.068  1.00  0.00     0.015 A 
HETATM    3  C5  UNL     1      23.188   1.973  51.611  1.00  0.00     0.001 A 
HETATM    4  C6  UNL     1      22.945   2.547  50.379  1.00  0.00     0.001 A 
HETATM    5  C7  UNL     1      24.044   2.974  49.669  1.00  0.00     0.012 A 
HETATM    6  C8  UNL     1      25.330   2.864  50.107  1.00  0.00    -0.023 A 
ENDROOT
BRANCH   6   7
HETATM    7  C9  UNL     1      26.473   3.357  49.362  1.00  0.00     0.022 C 
HETATM    8  C10 UNL     1      26.512   4.681  49.360  1.00  0.00    -0.023 C 
HETATM    9  C11 UNL     1      25.673   5.757  49.932  1.00  0.00     0.210 C 
HETATM   10  C15 UNL     1      27.563   5.439  48.666  1.00  0.00     0.003 C 
HETATM   11  O2  UNL     1      25.786   6.843  49.070  1.00  0.00    -0.352 OA
HETATM   12  C12 UNL     1      26.803   6.660  48.194  1.00  0.00     0.295 C 
HETATM   13  O3  UNL     1      27.812   7.588  48.160  1.00  0.00    -0.353 OA
HETATM   14  C13 UNL     1      28.879   6.877  47.539  1.00  0.00     0.199 C 
HETATM   15  C14 UNL     1      28.840   5.553  48.250  1.00  0.00     0.012 C 
ENDBRANCH   6   7
BRANCH   1  16
HETATM   16  C2  UNL     1      26.812   2.044  51.987  1.00  0.00     0.084 C 
HETATM   17  C1  UNL     1      27.097   0.889  52.515  1.00  0.00     0.214 C 
BRANCH  17  18
HETATM   18  S1  UNL     1      28.231  -0.121  53.395  1.00  0.00    -0.152 SA
BRANCH  18  19
HETATM   19  N1  UNL     1      29.825   0.612  53.592  1.00  0.00    -0.290 NA
HETATM   20  H1  UNL     1      30.573  -0.072  53.807  1.00  0.00     0.130 HD
HETATM   21  H2  UNL     1      29.819   1.376  54.310  1.00  0.00     0.130 HD
ENDBRANCH  18  19
ENDBRANCH  17  18
BRANCH  16  22
HETATM   22  O1  UNL     1      27.872   2.897  52.198  1.00  0.00    -0.359 OA
HETATM   23  H4  UNL     1      28.695   2.805  51.603  1.00  0.00     0.217 HD
ENDBRANCH  16  22
ENDBRANCH   1  16
TORSDOF 5
ENDMDL
MODEL 5
REMARK VINA RESULT:      -7.2      2.917      5.453
REMARK  5 active torsions:
REMARK  status: ('A' for Active; 'I' for Inactive)
REMARK    1  A    between atoms: N1_1  and  S1_2 
REMARK    2  A    between atoms: S1_2  and  C1_3 
REMARK    3  A    between atoms: C2_4  and  O1_5 
REMARK    4  A    between atoms: C2_4  and  C3_6 
REMARK    5  A    between atoms: C8_11  and  C9_12 
ROOT
HETATM    1  C3  UNL     1      23.127   1.636  51.676  1.00  0.00     0.008 A 
HETATM    2  C4  UNL     1      21.973   1.004  51.218  1.00  0.00     0.015 A 
HETATM    3  C5  UNL     1      21.441  -0.084  51.878  1.00  0.00     0.001 A 
HETATM    4  C6  UNL     1      22.057  -0.564  53.017  1.00  0.00     0.001 A 
HETATM    5  C7  UNL     1      23.194   0.095  53.428  1.00  0.00     0.012 A 
HETATM    6  C8  UNL     1      23.732   1.170  52.786  1.00  0.00    -0.023 A 
ENDROOT
BRANCH   6   7
HETATM    7  C9  UNL     1      24.954   1.826  53.212  1.00  0.00     0.022 C 
HETATM    8  C10 UNL     1      25.974   0.983  53.223  1.00  0.00    -0.023 C 
HETATM    9  C11 UNL     1      26.156  -0.451  52.908  1.00  0.00     0.210 C 
HETATM   10  C15 UNL     1      27.328   1.388  53.628  1.00  0.00     0.003 C 
HETATM   11  O2  UNL     1      27.184  -0.907  53.725  1.00  0.00    -0.352 OA
HETATM   12  C12 UNL     1      27.838   0.131  54.302  1.00  0.00     0.295 C 
HETATM   13  O3  UNL     1      29.186   0.256  54.083  1.00  0.00    -0.353 OA
HETATM   14  C13 UNL     1      29.434   1.625  54.392  1.00  0.00     0.199 C 
HETATM   15  C14 UNL     1      28.297   2.322  53.696  1.00  0.00     0.012 C 
ENDBRANCH   6   7
BRANCH   1  16
HETATM   16  C2  UNL     1      23.468   2.759  50.834  1.00  0.00     0.084 C 
HETATM   17  C1  UNL     1      22.787   3.867  50.834  1.00  0.00     0.214 C 
BRANCH  17  18
HETATM   18  S1  UNL     1      22.559   5.490  50.204  1.00  0.00    -0.152 SA
BRANCH  18  19
HETATM   19  N1  UNL     1      21.979   6.641  51.411  1.00  0.00    -0.290 NA
HETATM   20  H1  UNL     1      22.441   6.543  52.334  1.00  0.00     0.130 HD
HETATM   21  H2  UNL     1      20.938   6.599  51.524  1.00  0.00     0.130 HD
ENDBRANCH  18  19
ENDBRANCH  17  18
BRANCH  16  22
HETATM   22  O1  UNL     1      24.502   2.879  49.932  1.00  0.00    -0.359 OA
HETATM   23  H4  UNL     1      24.519   2.253  49.128  1.00  0.00     0.217 HD
ENDBRANCH  16  22
ENDBRANCH   1  16
TORSDOF 5
ENDMDL
MODEL 6
REMARK VINA RESULT:      -7.1      3.185      4.720
REMARK  5 active torsions:
REMARK  status: ('A' for Active; 'I' for Inactive)
REMARK    1  A    between atoms: N1_1  and  S1_2 
REMARK    2  A    between atoms: S1_2  and  C1_3 
REMARK    3  A    between atoms: C2_4  and  O1_5 
REMARK    4  A    between atoms: C2_4  and  C3_6 
REMARK    5  A    between atoms: C8_11  and  C9_12 
ROOT
HETATM    1  C3  UNL     1      25.921   2.490  51.226  1.00  0.00     0.008 A 
HETATM    2  C4  UNL     1      26.660   3.059  50.192  1.00  0.00     0.015 A 
HETATM    3  C5  UNL     1      26.158   4.102  49.442  1.00  0.00     0.001 A 
HETATM    4  C6  UNL     1      24.900   4.599  49.714  1.00  0.00     0.001 A 
HETATM    5  C7  UNL     1      24.210   4.003  50.746  1.00  0.00     0.012 A 
HETATM    6  C8  UNL     1      24.691   2.971  51.495  1.00  0.00    -0.023 A 
ENDROOT
BRANCH   6   7
HETATM    7  C9  UNL     1      23.933   2.329  52.551  1.00  0.00     0.022 C 
HETATM    8  C10 UNL     1      22.943   1.600  52.059  1.00  0.00    -0.023 C 
HETATM    9  C11 UNL     1      22.438   1.294  50.702  1.00  0.00     0.210 C 
HETATM   10  C15 UNL     1      22.011   0.852  52.916  1.00  0.00     0.003 C 
HETATM   11  O2  UNL     1      21.069   1.087  50.830  1.00  0.00    -0.352 OA
HETATM   12  C12 UNL     1      20.719   0.957  52.132  1.00  0.00     0.295 C 
HETATM   13  O3  UNL     1      20.090  -0.195  52.529  1.00  0.00    -0.353 OA
HETATM   14  C13 UNL     1      20.308  -0.211  53.937  1.00  0.00     0.199 C 
HETATM   15  C14 UNL     1      21.765   0.151  54.040  1.00  0.00     0.012 C 
ENDBRANCH   6   7
BRANCH   1  16
HETATM   16  C2  UNL     1      26.667   1.437  51.875  1.00  0.00     0.084 C 
HETATM   17  C1  UNL     1      27.616   1.678  52.733  1.00  0.00     0.214 C 
BRANCH  17  18
HETATM   18  S1  UNL     1      28.846   1.061  53.824  1.00  0.00    -0.152 SA
BRANCH  18  19
HETATM   19  N1  UNL     1      29.697   2.325  54.715  1.00  0.00    -0.290 NA
HETATM   20  H1  UNL     1      29.462   2.351  55.725  1.00  0.00     0.130 HD
HETATM   21  H2  UNL     1      29.552   3.271  54.288  1.00  0.00     0.130 HD
ENDBRANCH  18  19
ENDBRANCH  17  18
BRANCH  16  22
HETATM   22  O1  UNL     1      26.540   0.074  51.732  1.00  0.00    -0.359 OA
HETATM   23  H4  UNL     1      27.115  -0.397  51.035  1.00  0.00     0.217 HD
ENDBRANCH  16  22
ENDBRANCH   1  16
TORSDOF 5
ENDMDL
MODEL 7
REMARK VINA RESULT:      -7.0      3.426      5.984
REMARK  5 active torsions:
REMARK  status: ('A' for Active; 'I' for Inactive)
REMARK    1  A    between atoms: N1_1  and  S1_2 
REMARK    2  A    between atoms: S1_2  and  C1_3 
REMARK    3  A    between atoms: C2_4  and  O1_5 
REMARK    4  A    between atoms: C2_4  and  C3_6 
REMARK    5  A    between atoms: C8_11  and  C9_12 
ROOT
HETATM    1  C3  UNL     1      24.923   4.813  49.116  1.00  0.00     0.008 A 
HETATM    2  C4  UNL     1      23.921   5.499  48.433  1.00  0.00     0.015 A 
HETATM    3  C5  UNL     1      22.725   4.890  48.114  1.00  0.00     0.001 A 
HETATM    4  C6  UNL     1      22.507   3.575  48.474  1.00  0.00     0.001 A 
HETATM    5  C7  UNL     1      23.527   2.942  49.146  1.00  0.00     0.012 A 
HETATM    6  C8  UNL     1      24.715   3.528  49.468  1.00  0.00    -0.023 A 
ENDROOT
BRANCH   6   7
HETATM    7  C9  UNL     1      25.794   2.832  50.140  1.00  0.00     0.022 C 
HETATM    8  C10 UNL     1      25.474   2.540  51.392  1.00  0.00    -0.023 C 
HETATM    9  C11 UNL     1      24.288   2.756  52.250  1.00  0.00     0.210 C 
HETATM   10  C15 UNL     1      26.396   1.844  52.301  1.00  0.00     0.003 C 
HETATM   11  O2  UNL     1      24.762   2.874  53.552  1.00  0.00    -0.352 OA
HETATM   12  C12 UNL     1      26.057   2.482  53.632  1.00  0.00     0.295 C 
HETATM   13  O3  UNL     1      26.379   1.462  54.490  1.00  0.00    -0.353 OA
HETATM   14  C13 UNL     1      27.631   1.004  53.987  1.00  0.00     0.199 C 
HETATM   15  C14 UNL     1      27.379   0.946  52.505  1.00  0.00     0.012 C 
ENDBRANCH   6   7
BRANCH   1  16
HETATM   16  C2  UNL     1      26.062   5.667  49.355  1.00  0.00     0.084 C 
HETATM   17  C1  UNL     1      27.102   5.683  48.573  1.00  0.00     0.214 C 
BRANCH  17  18
HETATM   18  S1  UNL     1      28.690   6.333  48.199  1.00  0.00    -0.152 SA
BRANCH  18  19
HETATM   19  N1  UNL     1      29.990   5.614  49.153  1.00  0.00    -0.290 NA
HETATM   20  H1  UNL     1      30.175   4.621  48.923  1.00  0.00     0.130 HD
HETATM   21  H2  UNL     1      29.823   5.719  50.183  1.00  0.00     0.130 HD
ENDBRANCH  18  19
ENDBRANCH  17  18
BRANCH  16  22
HETATM   22  O1  UNL     1      26.267   6.568  50.376  1.00  0.00    -0.359 OA
HETATM   23  H4  UNL     1      27.078   7.183  50.326  1.00  0.00     0.217 HD
ENDBRANCH  16  22
ENDBRANCH   1  16
TORSDOF 5
ENDMDL
MODEL 8
REMARK VINA RESULT:      -6.9      3.365      4.985
REMARK  5 active torsions:
REMARK  status: ('A' for Active; 'I' for Inactive)
REMARK    1  A    between atoms: N1_1  and  S1_2 
REMARK    2  A    between atoms: S1_2  and  C1_3 
REMARK    3  A    between atoms: C2_4  and  O1_5 
REMARK    4  A    between atoms: C2_4  and  C3_6 
REMARK    5  A    between atoms: C8_11  and  C9_12 
ROOT
HETATM    1  C3  UNL     1      24.573   4.137  50.844  1.00  0.00     0.008 A 
HETATM    2  C4  UNL     1      25.048   5.282  50.209  1.00  0.00     0.015 A 
HETATM    3  C5  UNL     1      26.193   5.254  49.441  1.00  0.00     0.001 A 
HETATM    4  C6  UNL     1      26.888   4.071  49.290  1.00  0.00     0.001 A 
HETATM    5  C7  UNL     1      26.378   2.968  49.937  1.00  0.00     0.012 A 
HETATM    6  C8  UNL     1      25.250   2.980  50.701  1.00  0.00    -0.023 A 
ENDROOT
BRANCH   6   7
HETATM    7  C9  UNL     1      24.750   1.817  51.408  1.00  0.00     0.022 C 
HETATM    8  C10 UNL     1      25.352   1.669  52.578  1.00  0.00    -0.023 C 
HETATM    9  C11 UNL     1      26.400   2.404  53.320  1.00  0.00     0.210 C 
HETATM   10  C15 UNL     1      25.041   0.560  53.492  1.00  0.00     0.003 C 
HETATM   11  O2  UNL     1      27.073   1.459  54.089  1.00  0.00    -0.352 OA
HETATM   12  C12 UNL     1      26.392   0.289  54.120  1.00  0.00     0.295 C 
HETATM   13  O3  UNL     1      26.009  -0.212  55.337  1.00  0.00    -0.353 OA
HETATM   14  C13 UNL     1      24.960  -1.115  54.995  1.00  0.00     0.199 C 
HETATM   15  C14 UNL     1      24.155  -0.313  54.010  1.00  0.00     0.012 C 
ENDBRANCH   6   7
BRANCH   1  16
HETATM   16  C2  UNL     1      23.352   4.415  51.564  1.00  0.00     0.084 C 
HETATM   17  C1  UNL     1      22.175   4.185  51.061  1.00  0.00     0.214 C 
BRANCH  17  18
HETATM   18  S1  UNL     1      20.429   4.230  51.243  1.00  0.00    -0.152 SA
BRANCH  18  19
HETATM   19  N1  UNL     1      19.825   3.184  52.530  1.00  0.00    -0.290 NA
HETATM   20  H1  UNL     1      19.006   2.611  52.251  1.00  0.00     0.130 HD
HETATM   21  H2  UNL     1      19.605   3.722  53.402  1.00  0.00     0.130 HD
ENDBRANCH  18  19
ENDBRANCH  17  18
BRANCH  16  22
HETATM   22  O1  UNL     1      23.196   4.939  52.828  1.00  0.00    -0.359 OA
HETATM   23  H4  UNL     1      22.444   5.608  52.987  1.00  0.00     0.217 HD
ENDBRANCH  16  22
ENDBRANCH   1  16
TORSDOF 5
ENDMDL
MODEL 9
REMARK VINA RESULT:      -6.9      3.771      5.610
REMARK  5 active torsions:
REMARK  status: ('A' for Active; 'I' for Inactive)
REMARK    1  A    between atoms: N1_1  and  S1_2 
REMARK    2  A    between atoms: S1_2  and  C1_3 
REMARK    3  A    between atoms: C2_4  and  O1_5 
REMARK    4  A    between atoms: C2_4  and  C3_6 
REMARK    5  A    between atoms: C8_11  and  C9_12 
ROOT
HETATM    1  C3  UNL     1      25.434   5.642  50.100  1.00  0.00     0.008 A 
HETATM    2  C4  UNL     1      26.278   6.579  49.507  1.00  0.00     0.015 A 
HETATM    3  C5  UNL     1      27.360   6.189  48.746  1.00  0.00     0.001 A 
HETATM    4  C6  UNL     1      27.621   4.846  48.563  1.00  0.00     0.001 A 
HETATM    5  C7  UNL     1      26.759   3.960  49.168  1.00  0.00     0.012 A 
HETATM    6  C8  UNL     1      25.686   4.330  49.924  1.00  0.00    -0.023 A 
ENDROOT
BRANCH   6   7
HETATM    7  C9  UNL     1      24.812   3.382  50.589  1.00  0.00     0.022 C 
HETATM    8  C10 UNL     1      25.491   2.592  51.407  1.00  0.00    -0.023 C 
HETATM    9  C11 UNL     1      26.912   2.455  51.794  1.00  0.00     0.210 C 
HETATM   10  C15 UNL     1      24.847   1.533  52.196  1.00  0.00     0.003 C 
HETATM   11  O2  UNL     1      27.107   1.112  52.101  1.00  0.00    -0.352 OA
HETATM   12  C12 UNL     1      25.922   0.466  52.216  1.00  0.00     0.295 C 
HETATM   13  O3  UNL     1      25.632  -0.162  53.400  1.00  0.00    -0.353 OA
HETATM   14  C13 UNL     1      24.213  -0.292  53.354  1.00  0.00     0.199 C 
HETATM   15  C14 UNL     1      23.782   1.068  52.878  1.00  0.00     0.012 C 
ENDBRANCH   6   7
BRANCH   1  16
HETATM   16  C2  UNL     1      24.365   6.293  50.819  1.00  0.00     0.084 C 
HETATM   17  C1  UNL     1      23.265   6.678  50.241  1.00  0.00     0.214 C 
BRANCH  17  18
HETATM   18  S1  UNL     1      21.687   7.438  50.370  1.00  0.00    -0.152 SA
BRANCH  18  19
HETATM   19  N1  UNL     1      20.350   6.367  49.945  1.00  0.00    -0.290 NA
HETATM   20  H1  UNL     1      20.624   5.370  49.871  1.00  0.00     0.130 HD
HETATM   21  H2  UNL     1      19.867   6.673  49.067  1.00  0.00     0.130 HD
ENDBRANCH  18  19
ENDBRANCH  17  18
BRANCH  16  22
HETATM   22  O1  UNL     1      24.295   6.616  52.156  1.00  0.00    -0.359 OA
HETATM   23  H4  UNL     1      23.545   6.211  52.715  1.00  0.00     0.217 HD
ENDBRANCH  16  22
ENDBRANCH   1  16
TORSDOF 5
ENDMDL
