MODEL 1
REMARK VINA RESULT:      -8.4      0.000      0.000
REMARK  5 active torsions:
REMARK  status: ('A' for Active; 'I' for Inactive)
REMARK    1  A    between atoms: C2_3  and  C3_4 
REMARK    2  A    between atoms: C2_3  and  C10_13 
REMARK    3  A    between atoms: C14_18  and  C15_19 
REMARK    4  A    between atoms: C15_19  and  N4_20 
REMARK    5  A    between atoms: N4_20  and  C16_21 
ROOT
HETATM    1  N1  UNL     1      21.362   7.168  50.813  1.00  0.00    -0.196 NA
HETATM    2  C1  UNL     1      22.203   6.434  51.069  1.00  0.00     0.077 C 
HETATM    3  C2  UNL     1      23.235   5.510  51.395  1.00  0.00     0.204 C 
ENDROOT
BRANCH   3   4
HETATM    4  C3  UNL     1      24.475   5.849  50.560  1.00  0.00     0.100 A 
HETATM    5  N2  UNL     1      25.335   5.157  50.147  1.00  0.00    -0.243 NA
HETATM    6  C4  UNL     1      26.376   5.518  49.429  1.00  0.00     0.074 A 
HETATM    7  C5  UNL     1      27.403   4.722  48.933  1.00  0.00     0.033 A 
HETATM    8  C9  UNL     1      26.488   6.853  49.116  1.00  0.00     0.035 A 
HETATM    9  C6  UNL     1      28.417   5.253  48.199  1.00  0.00     0.002 A 
HETATM   10  C7  UNL     1      28.524   6.609  47.882  1.00  0.00     0.002 A 
HETATM   11  C8  UNL     1      27.513   7.432  48.366  1.00  0.00     0.021 A 
HETATM   12  S1  UNL     1      25.033   7.490  49.912  1.00  0.00    -0.071 SA
ENDBRANCH   3   4
BRANCH   3  13
HETATM   13  C10 UNL     1      22.999   4.084  51.102  1.00  0.00     0.066 A 
HETATM   14  N3  UNL     1      22.352   3.773  49.947  1.00  0.00    -0.263 NA
HETATM   15  C11 UNL     1      22.150   2.494  49.563  1.00  0.00     0.117 A 
HETATM   16  C12 UNL     1      22.576   1.454  50.305  1.00  0.00     0.020 A 
HETATM   17  C13 UNL     1      23.247   1.661  51.506  1.00  0.00     0.012 A 
HETATM   18  C14 UNL     1      23.435   2.983  51.863  1.00  0.00    -0.014 A 
BRANCH  18  19
HETATM   19  C15 UNL     1      24.057   3.306  53.161  1.00  0.00     0.162 C 
BRANCH  19  20
HETATM   20  N4  UNL     1      25.216   2.541  53.516  1.00  0.00    -0.368 N 
HETATM   21  H11 UNL     1      25.010   2.833  54.509  1.00  0.00     0.161 HD
BRANCH  20  22
HETATM   22  C16 UNL     1      26.351   1.796  53.897  1.00  0.00     0.160 A 
HETATM   23  N5  UNL     1      26.647   0.927  54.863  1.00  0.00    -0.192 NA
HETATM   24  S2  UNL     1      28.127   0.173  54.967  1.00  0.00     0.001 SA
HETATM   25  C17 UNL     1      29.202   0.641  53.707  1.00  0.00     0.072 A 
HETATM   26  C18 UNL     1      28.618   1.576  52.826  1.00  0.00     0.043 A 
HETATM   27  C19 UNL     1      27.354   2.078  52.927  1.00  0.00     0.094 A 
HETATM   28  N6  UNL     1      27.258   2.925  51.922  1.00  0.00    -0.296 NA
HETATM   29  H14 UNL     1      26.413   3.496  51.728  1.00  0.00     0.187 HD
ENDBRANCH  20  22
ENDBRANCH  19  20
ENDBRANCH  18  19
ENDBRANCH   3  13
TORSDOF 5
ENDMDL
MODEL 2
REMARK VINA RESULT:      -8.1      1.453      1.936
REMARK  5 active torsions:
REMARK  status: ('A' for Active; 'I' for Inactive)
REMARK    1  A    between atoms: C2_3  and  C3_4 
REMARK    2  A    between atoms: C2_3  and  C10_13 
REMARK    3  A    between atoms: C14_18  and  C15_19 
REMARK    4  A    between atoms: C15_19  and  N4_20 
REMARK    5  A    between atoms: N4_20  and  C16_21 
ROOT
HETATM    1  N1  UNL     1      21.495   6.638  51.131  1.00  0.00    -0.196 NA
HETATM    2  C1  UNL     1      22.112   5.673  51.100  1.00  0.00     0.077 C 
HETATM    3  C2  UNL     1      22.862   4.465  51.066  1.00  0.00     0.204 C 
ENDROOT
BRANCH   3   4
HETATM    4  C3  UNL     1      24.199   4.741  50.368  1.00  0.00     0.100 A 
HETATM    5  N2  UNL     1      24.689   5.755  50.023  1.00  0.00    -0.243 NA
HETATM    6  C4  UNL     1      25.850   5.920  49.427  1.00  0.00     0.074 A 
HETATM    7  C5  UNL     1      26.449   7.104  49.011  1.00  0.00     0.033 A 
HETATM    8  C9  UNL     1      26.587   4.787  49.168  1.00  0.00     0.035 A 
HETATM    9  C6  UNL     1      27.665   7.105  48.404  1.00  0.00     0.002 A 
HETATM   10  C7  UNL     1      28.411   5.952  48.146  1.00  0.00     0.002 A 
HETATM   11  C8  UNL     1      27.837   4.751  48.548  1.00  0.00     0.021 A 
HETATM   12  S1  UNL     1      25.504   3.544  49.830  1.00  0.00    -0.071 SA
ENDBRANCH   3   4
BRANCH   3  13
HETATM   13  C10 UNL     1      22.303   3.330  50.307  1.00  0.00     0.066 A 
HETATM   14  N3  UNL     1      21.909   3.557  49.026  1.00  0.00    -0.263 NA
HETATM   15  C11 UNL     1      21.446   2.565  48.235  1.00  0.00     0.117 A 
HETATM   16  C12 UNL     1      21.348   1.295  48.671  1.00  0.00     0.020 A 
HETATM   17  C13 UNL     1      21.723   0.955  49.967  1.00  0.00     0.012 A 
HETATM   18  C14 UNL     1      22.192   1.997  50.745  1.00  0.00    -0.014 A 
BRANCH  18  19
HETATM   19  C15 UNL     1      22.531   1.755  52.160  1.00  0.00     0.162 C 
BRANCH  19  20
HETATM   20  N4  UNL     1      23.865   1.302  52.423  1.00  0.00    -0.368 N 
HETATM   21  H11 UNL     1      23.409   0.500  52.936  1.00  0.00     0.161 HD
BRANCH  20  22
HETATM   22  C16 UNL     1      25.165   0.831  52.698  1.00  0.00     0.160 A 
HETATM   23  N5  UNL     1      25.828  -0.313  52.522  1.00  0.00    -0.192 NA
HETATM   24  S2  UNL     1      27.432  -0.490  52.929  1.00  0.00     0.001 SA
HETATM   25  C17 UNL     1      28.114   0.946  53.590  1.00  0.00     0.072 A 
HETATM   26  C18 UNL     1      27.178   1.999  53.658  1.00  0.00     0.043 A 
HETATM   27  C19 UNL     1      25.875   1.929  53.260  1.00  0.00     0.094 A 
HETATM   28  N6  UNL     1      25.385   3.122  53.535  1.00  0.00    -0.296 NA
HETATM   29  H14 UNL     1      24.397   3.392  53.367  1.00  0.00     0.187 HD
ENDBRANCH  20  22
ENDBRANCH  19  20
ENDBRANCH  18  19
ENDBRANCH   3  13
TORSDOF 5
ENDMDL
MODEL 3
REMARK VINA RESULT:      -8.0      2.703      5.670
REMARK  5 active torsions:
REMARK  status: ('A' for Active; 'I' for Inactive)
REMARK    1  A    between atoms: C2_3  and  C3_4 
REMARK    2  A    between atoms: C2_3  and  C10_13 
REMARK    3  A    between atoms: C14_18  and  C15_19 
REMARK    4  A    between atoms: C15_19  and  N4_20 
REMARK    5  A    between atoms: N4_20  and  C16_21 
ROOT
HETATM    1  N1  UNL     1      19.989   3.031  48.290  1.00  0.00    -0.196 NA
HETATM    2  C1  UNL     1      20.968   2.991  48.882  1.00  0.00     0.077 C 
HETATM    3  C2  UNL     1      22.192   2.955  49.607  1.00  0.00     0.204 C 
ENDROOT
BRANCH   3   4
HETATM    4  C3  UNL     1      21.974   2.147  50.891  1.00  0.00     0.100 A 
HETATM    5  N2  UNL     1      22.630   1.303  51.388  1.00  0.00    -0.243 NA
HETATM    6  C4  UNL     1      22.382   0.648  52.501  1.00  0.00     0.074 A 
HETATM    7  C5  UNL     1      23.138  -0.349  53.105  1.00  0.00     0.033 A 
HETATM    8  C9  UNL     1      21.227   0.974  53.175  1.00  0.00     0.035 A 
HETATM    9  C6  UNL     1      22.741  -0.932  54.268  1.00  0.00     0.002 A 
HETATM   10  C7  UNL     1      21.569  -0.595  54.949  1.00  0.00     0.002 A 
HETATM   11  C8  UNL     1      20.788   0.399  54.368  1.00  0.00     0.021 A 
HETATM   12  S1  UNL     1      20.581   2.238  52.106  1.00  0.00    -0.071 SA
ENDBRANCH   3   4
BRANCH   3  13
HETATM   13  C10 UNL     1      22.742   4.235  50.092  1.00  0.00     0.066 A 
HETATM   14  N3  UNL     1      21.861   5.200  50.470  1.00  0.00    -0.263 NA
HETATM   15  C11 UNL     1      22.271   6.378  50.987  1.00  0.00     0.117 A 
HETATM   16  C12 UNL     1      23.576   6.664  51.157  1.00  0.00     0.020 A 
HETATM   17  C13 UNL     1      24.560   5.747  50.801  1.00  0.00     0.012 A 
HETATM   18  C14 UNL     1      24.100   4.554  50.276  1.00  0.00    -0.014 A 
BRANCH  18  19
HETATM   19  C15 UNL     1      25.066   3.553  49.786  1.00  0.00     0.162 C 
BRANCH  19  20
HETATM   20  N4  UNL     1      25.550   2.613  50.754  1.00  0.00    -0.368 N 
HETATM   21  H11 UNL     1      26.480   2.700  50.261  1.00  0.00     0.161 HD
BRANCH  20  22
HETATM   22  C16 UNL     1      26.056   1.690  51.693  1.00  0.00     0.160 A 
HETATM   23  N5  UNL     1      26.793   0.580  51.645  1.00  0.00    -0.192 NA
HETATM   24  S2  UNL     1      27.265  -0.241  53.013  1.00  0.00     0.001 SA
HETATM   25  C17 UNL     1      26.698   0.497  54.462  1.00  0.00     0.072 A 
HETATM   26  C18 UNL     1      25.941   1.660  54.207  1.00  0.00     0.043 A 
HETATM   27  C19 UNL     1      25.665   2.172  52.973  1.00  0.00     0.094 A 
HETATM   28  N6  UNL     1      24.917   3.229  53.219  1.00  0.00    -0.296 NA
HETATM   29  H14 UNL     1      24.518   3.839  52.479  1.00  0.00     0.187 HD
ENDBRANCH  20  22
ENDBRANCH  19  20
ENDBRANCH  18  19
ENDBRANCH   3  13
TORSDOF 5
ENDMDL
MODEL 4
REMARK VINA RESULT:      -7.7      3.473      6.576
REMARK  5 active torsions:
REMARK  status: ('A' for Active; 'I' for Inactive)
REMARK    1  A    between atoms: C2_3  and  C3_4 
REMARK    2  A    between atoms: C2_3  and  C10_13 
REMARK    3  A    between atoms: C14_18  and  C15_19 
REMARK    4  A    between atoms: C15_19  and  N4_20 
REMARK    5  A    between atoms: N4_20  and  C16_21 
ROOT
HETATM    1  N1  UNL     1      21.345   2.641  47.457  1.00  0.00    -0.196 NA
HETATM    2  C1  UNL     1      21.602   2.232  48.496  1.00  0.00     0.077 C 
HETATM    3  C2  UNL     1      21.937   1.734  49.786  1.00  0.00     0.204 C 
ENDROOT
BRANCH   3   4
HETATM    4  C3  UNL     1      20.674   1.145  50.424  1.00  0.00     0.100 A 
HETATM    5  N2  UNL     1      20.544   0.437  51.358  1.00  0.00    -0.243 NA
HETATM    6  C4  UNL     1      19.421  -0.033  51.855  1.00  0.00     0.074 A 
HETATM    7  C5  UNL     1      19.243  -0.867  52.953  1.00  0.00     0.033 A 
HETATM    8  C9  UNL     1      18.255   0.334  51.223  1.00  0.00     0.035 A 
HETATM    9  C6  UNL     1      18.003  -1.266  53.344  1.00  0.00     0.002 A 
HETATM   10  C7  UNL     1      16.822  -0.888  52.700  1.00  0.00     0.002 A 
HETATM   11  C8  UNL     1      16.967  -0.055  51.596  1.00  0.00     0.021 A 
HETATM   12  S1  UNL     1      18.905   1.358  49.925  1.00  0.00    -0.071 SA
ENDBRANCH   3   4
BRANCH   3  13
HETATM   13  C10 UNL     1      22.414   2.701  50.794  1.00  0.00     0.066 A 
HETATM   14  N3  UNL     1      21.778   3.900  50.873  1.00  0.00    -0.263 NA
HETATM   15  C11 UNL     1      22.103   4.820  51.806  1.00  0.00     0.117 A 
HETATM   16  C12 UNL     1      23.078   4.602  52.710  1.00  0.00     0.020 A 
HETATM   17  C13 UNL     1      23.793   3.409  52.715  1.00  0.00     0.012 A 
HETATM   18  C14 UNL     1      23.430   2.493  51.745  1.00  0.00    -0.014 A 
BRANCH  18  19
HETATM   19  C15 UNL     1      24.188   1.235  51.611  1.00  0.00     0.162 C 
BRANCH  19  20
HETATM   20  N4  UNL     1      25.358   1.110  52.430  1.00  0.00    -0.368 N 
HETATM   21  H11 UNL     1      24.821   0.364  52.950  1.00  0.00     0.161 HD
BRANCH  20  22
HETATM   22  C16 UNL     1      26.494   0.963  53.252  1.00  0.00     0.160 A 
HETATM   23  N5  UNL     1      26.867   0.143  54.236  1.00  0.00    -0.192 NA
HETATM   24  S2  UNL     1      28.364   0.233  54.957  1.00  0.00     0.001 SA
HETATM   25  C17 UNL     1      29.348   1.481  54.298  1.00  0.00     0.072 A 
HETATM   26  C18 UNL     1      28.692   2.190  53.268  1.00  0.00     0.043 A 
HETATM   27  C19 UNL     1      27.427   1.947  52.820  1.00  0.00     0.094 A 
HETATM   28  N6  UNL     1      27.230   2.858  51.887  1.00  0.00    -0.296 NA
HETATM   29  H14 UNL     1      26.344   2.958  51.356  1.00  0.00     0.187 HD
ENDBRANCH  20  22
ENDBRANCH  19  20
ENDBRANCH  18  19
ENDBRANCH   3  13
TORSDOF 5
ENDMDL
MODEL 5
REMARK VINA RESULT:      -7.7      2.755      7.030
REMARK  5 active torsions:
REMARK  status: ('A' for Active; 'I' for Inactive)
REMARK    1  A    between atoms: C2_3  and  C3_4 
REMARK    2  A    between atoms: C2_3  and  C10_13 
REMARK    3  A    between atoms: C14_18  and  C15_19 
REMARK    4  A    between atoms: C15_19  and  N4_20 
REMARK    5  A    between atoms: N4_20  and  C16_21 
ROOT
HETATM    1  N1  UNL     1      26.980   2.399  51.198  1.00  0.00    -0.196 NA
HETATM    2  C1  UNL     1      25.913   2.815  51.228  1.00  0.00     0.077 C 
HETATM    3  C2  UNL     1      24.592   3.345  51.251  1.00  0.00     0.204 C 
ENDROOT
BRANCH   3   4
HETATM    4  C3  UNL     1      23.690   2.371  52.018  1.00  0.00     0.100 A 
HETATM    5  N2  UNL     1      23.947   1.367  52.580  1.00  0.00    -0.243 NA
HETATM    6  C4  UNL     1      23.116   0.576  53.224  1.00  0.00     0.074 A 
HETATM    7  C5  UNL     1      23.394  -0.610  53.892  1.00  0.00     0.033 A 
HETATM    8  C9  UNL     1      21.792   0.949  53.253  1.00  0.00     0.035 A 
HETATM    9  C6  UNL     1      22.415  -1.317  54.516  1.00  0.00     0.002 A 
HETATM   10  C7  UNL     1      21.072  -0.932  54.544  1.00  0.00     0.002 A 
HETATM   11  C8  UNL     1      20.761   0.251  53.882  1.00  0.00     0.021 A 
HETATM   12  S1  UNL     1      21.866   2.458  52.318  1.00  0.00    -0.071 SA
ENDBRANCH   3   4
BRANCH   3  13
HETATM   13  C10 UNL     1      23.898   3.517  49.961  1.00  0.00     0.066 A 
HETATM   14  N3  UNL     1      23.298   2.426  49.414  1.00  0.00    -0.263 NA
HETATM   15  C11 UNL     1      22.585   2.502  48.270  1.00  0.00     0.117 A 
HETATM   16  C12 UNL     1      22.429   3.664  47.605  1.00  0.00     0.020 A 
HETATM   17  C13 UNL     1      23.005   4.839  48.078  1.00  0.00     0.012 A 
HETATM   18  C14 UNL     1      23.725   4.720  49.251  1.00  0.00    -0.014 A 
BRANCH  18  19
HETATM   19  C15 UNL     1      24.446   5.890  49.785  1.00  0.00     0.162 C 
BRANCH  19  20
HETATM   20  N4  UNL     1      25.556   6.360  49.008  1.00  0.00    -0.368 N 
HETATM   21  H11 UNL     1      24.842   6.918  48.467  1.00  0.00     0.161 HD
BRANCH  20  22
HETATM   22  C16 UNL     1      26.626   6.840  48.227  1.00  0.00     0.160 A 
HETATM   23  N5  UNL     1      26.817   7.853  47.381  1.00  0.00    -0.192 NA
HETATM   24  S2  UNL     1      28.289   8.157  46.666  1.00  0.00     0.001 SA
HETATM   25  C17 UNL     1      29.504   7.033  47.137  1.00  0.00     0.072 A 
HETATM   26  C18 UNL     1      29.015   6.067  48.043  1.00  0.00     0.043 A 
HETATM   27  C19 UNL     1      27.737   5.997  48.513  1.00  0.00     0.094 A 
HETATM   28  N6  UNL     1      27.734   4.936  49.295  1.00  0.00    -0.296 NA
HETATM   29  H14 UNL     1      26.895   4.591  49.798  1.00  0.00     0.187 HD
ENDBRANCH  20  22
ENDBRANCH  19  20
ENDBRANCH  18  19
ENDBRANCH   3  13
TORSDOF 5
ENDMDL
MODEL 6
REMARK VINA RESULT:      -7.3      4.267      7.035
REMARK  5 active torsions:
REMARK  status: ('A' for Active; 'I' for Inactive)
REMARK    1  A    between atoms: C2_3  and  C3_4 
REMARK    2  A    between atoms: C2_3  and  C10_13 
REMARK    3  A    between atoms: C14_18  and  C15_19 
REMARK    4  A    between atoms: C15_19  and  N4_20 
REMARK    5  A    between atoms: N4_20  and  C16_21 
ROOT
HETATM    1  N1  UNL     1      23.790   5.743  51.732  1.00  0.00    -0.196 NA
HETATM    2  C1  UNL     1      23.422   4.666  51.861  1.00  0.00     0.077 C 
HETATM    3  C2  UNL     1      22.948   3.332  52.010  1.00  0.00     0.204 C 
ENDROOT
BRANCH   3   4
HETATM    4  C3  UNL     1      24.124   2.440  52.421  1.00  0.00     0.100 A 
HETATM    5  N2  UNL     1      25.280   2.666  52.464  1.00  0.00    -0.243 NA
HETATM    6  C4  UNL     1      26.242   1.847  52.832  1.00  0.00     0.074 A 
HETATM    7  C5  UNL     1      27.609   2.089  52.890  1.00  0.00     0.033 A 
HETATM    8  C9  UNL     1      25.871   0.577  53.212  1.00  0.00     0.035 A 
HETATM    9  C6  UNL     1      28.481   1.128  53.298  1.00  0.00     0.002 A 
HETATM   10  C7  UNL     1      28.099  -0.159  53.685  1.00  0.00     0.002 A 
HETATM   11  C8  UNL     1      26.736  -0.433  53.635  1.00  0.00     0.021 A 
HETATM   12  S1  UNL     1      24.111   0.682  52.998  1.00  0.00    -0.071 SA
ENDBRANCH   3   4
BRANCH   3  13
HETATM   13  C10 UNL     1      22.403   2.658  50.816  1.00  0.00     0.066 A 
HETATM   14  N3  UNL     1      23.019   2.884  49.625  1.00  0.00    -0.263 NA
HETATM   15  C11 UNL     1      22.631   2.261  48.491  1.00  0.00     0.117 A 
HETATM   16  C12 UNL     1      21.611   1.381  48.477  1.00  0.00     0.020 A 
HETATM   17  C13 UNL     1      20.912   1.080  49.642  1.00  0.00     0.012 A 
HETATM   18  C14 UNL     1      21.339   1.738  50.780  1.00  0.00    -0.014 A 
BRANCH  18  19
HETATM   19  C15 UNL     1      20.606   1.554  52.046  1.00  0.00     0.162 C 
BRANCH  19  20
HETATM   20  N4  UNL     1      19.398   0.786  51.973  1.00  0.00    -0.368 N 
HETATM   21  H11 UNL     1      19.002   1.485  52.658  1.00  0.00     0.161 HD
BRANCH  20  22
HETATM   22  C16 UNL     1      18.195   0.052  51.922  1.00  0.00     0.160 A 
HETATM   23  N5  UNL     1      17.090   0.072  51.176  1.00  0.00    -0.192 NA
HETATM   24  S2  UNL     1      15.858  -1.030  51.371  1.00  0.00     0.001 SA
HETATM   25  C17 UNL     1      16.174  -2.168  52.622  1.00  0.00     0.072 A 
HETATM   26  C18 UNL     1      17.422  -1.947  53.243  1.00  0.00     0.043 A 
HETATM   27  C19 UNL     1      18.303  -0.957  52.920  1.00  0.00     0.094 A 
HETATM   28  N6  UNL     1      19.300  -1.117  53.768  1.00  0.00    -0.296 NA
HETATM   29  H14 UNL     1      20.135  -0.502  53.800  1.00  0.00     0.187 HD
ENDBRANCH  20  22
ENDBRANCH  19  20
ENDBRANCH  18  19
ENDBRANCH   3  13
TORSDOF 5
ENDMDL
MODEL 7
REMARK VINA RESULT:      -7.3      2.797      6.715
REMARK  5 active torsions:
REMARK  status: ('A' for Active; 'I' for Inactive)
REMARK    1  A    between atoms: C2_3  and  C3_4 
REMARK    2  A    between atoms: C2_3  and  C10_13 
REMARK    3  A    between atoms: C14_18  and  C15_19 
REMARK    4  A    between atoms: C15_19  and  N4_20 
REMARK    5  A    between atoms: N4_20  and  C16_21 
ROOT
HETATM    1  N1  UNL     1      21.861   3.181  47.279  1.00  0.00    -0.196 NA
HETATM    2  C1  UNL     1      22.690   3.337  48.054  1.00  0.00     0.077 C 
HETATM    3  C2  UNL     1      23.724   3.549  49.008  1.00  0.00     0.204 C 
ENDROOT
BRANCH   3   4
HETATM    4  C3  UNL     1      23.529   2.562  50.165  1.00  0.00     0.100 A 
HETATM    5  N2  UNL     1      24.299   2.133  50.947  1.00  0.00    -0.243 NA
HETATM    6  C4  UNL     1      24.060   1.284  51.922  1.00  0.00     0.074 A 
HETATM    7  C5  UNL     1      24.951   0.763  52.854  1.00  0.00     0.033 A 
HETATM    8  C9  UNL     1      22.766   0.836  52.059  1.00  0.00     0.035 A 
HETATM    9  C6  UNL     1      24.542  -0.112  53.811  1.00  0.00     0.002 A 
HETATM   10  C7  UNL     1      23.226  -0.561  53.947  1.00  0.00     0.002 A 
HETATM   11  C8  UNL     1      22.311  -0.060  53.027  1.00  0.00     0.021 A 
HETATM   12  S1  UNL     1      21.985   1.709  50.724  1.00  0.00    -0.071 SA
ENDBRANCH   3   4
BRANCH   3  13
HETATM   13  C10 UNL     1      23.783   4.861  49.679  1.00  0.00     0.066 A 
HETATM   14  N3  UNL     1      22.623   5.376  50.168  1.00  0.00    -0.263 NA
HETATM   15  C11 UNL     1      22.591   6.539  50.853  1.00  0.00     0.117 A 
HETATM   16  C12 UNL     1      23.706   7.256  51.089  1.00  0.00     0.020 A 
HETATM   17  C13 UNL     1      24.945   6.820  50.630  1.00  0.00     0.012 A 
HETATM   18  C14 UNL     1      24.937   5.626  49.934  1.00  0.00    -0.014 A 
BRANCH  18  19
HETATM   19  C15 UNL     1      26.186   5.125  49.331  1.00  0.00     0.162 C 
BRANCH  19  20
HETATM   20  N4  UNL     1      27.157   6.116  48.971  1.00  0.00    -0.368 N 
HETATM   21  H11 UNL     1      27.072   5.734  47.991  1.00  0.00     0.161 HD
BRANCH  20  22
HETATM   22  C16 UNL     1      28.112   7.080  48.587  1.00  0.00     0.160 A 
HETATM   23  N5  UNL     1      28.169   8.412  48.551  1.00  0.00    -0.192 NA
HETATM   24  S2  UNL     1      29.535   9.237  48.078  1.00  0.00     0.001 SA
HETATM   25  C17 UNL     1      30.831   8.189  47.648  1.00  0.00     0.072 A 
HETATM   26  C18 UNL     1      30.484   6.828  47.782  1.00  0.00     0.043 A 
HETATM   27  C19 UNL     1      29.273   6.355  48.197  1.00  0.00     0.094 A 
HETATM   28  N6  UNL     1      29.397   5.044  48.139  1.00  0.00    -0.296 NA
HETATM   29  H14 UNL     1      28.634   4.382  48.376  1.00  0.00     0.187 HD
ENDBRANCH  20  22
ENDBRANCH  19  20
ENDBRANCH  18  19
ENDBRANCH   3  13
TORSDOF 5
ENDMDL
MODEL 8
REMARK VINA RESULT:      -7.2      2.994      7.054
REMARK  5 active torsions:
REMARK  status: ('A' for Active; 'I' for Inactive)
REMARK    1  A    between atoms: C2_3  and  C3_4 
REMARK    2  A    between atoms: C2_3  and  C10_13 
REMARK    3  A    between atoms: C14_18  and  C15_19 
REMARK    4  A    between atoms: C15_19  and  N4_20 
REMARK    5  A    between atoms: N4_20  and  C16_21 
ROOT
HETATM    1  N1  UNL     1      26.788   2.940  50.383  1.00  0.00    -0.196 NA
HETATM    2  C1  UNL     1      25.694   3.265  50.483  1.00  0.00     0.077 C 
HETATM    3  C2  UNL     1      24.337   3.680  50.590  1.00  0.00     0.204 C 
ENDROOT
BRANCH   3   4
HETATM    4  C3  UNL     1      23.597   2.694  51.501  1.00  0.00     0.100 A 
HETATM    5  N2  UNL     1      23.981   1.734  52.066  1.00  0.00    -0.243 NA
HETATM    6  C4  UNL     1      23.286   0.928  52.839  1.00  0.00     0.074 A 
HETATM    7  C5  UNL     1      23.715  -0.209  53.513  1.00  0.00     0.033 A 
HETATM    8  C9  UNL     1      21.955   1.228  53.019  1.00  0.00     0.035 A 
HETATM    9  C6  UNL     1      22.865  -0.939  54.281  1.00  0.00     0.002 A 
HETATM   10  C7  UNL     1      21.514  -0.628  54.463  1.00  0.00     0.002 A 
HETATM   11  C8  UNL     1      21.053   0.503  53.798  1.00  0.00     0.021 A 
HETATM   12  S1  UNL     1      21.821   2.694  52.023  1.00  0.00    -0.071 SA
ENDBRANCH   3   4
BRANCH   3  13
HETATM   13  C10 UNL     1      23.522   3.694  49.361  1.00  0.00     0.066 A 
HETATM   14  N3  UNL     1      23.286   2.505  48.744  1.00  0.00    -0.263 NA
HETATM   15  C11 UNL     1      22.498   2.412  47.651  1.00  0.00     0.117 A 
HETATM   16  C12 UNL     1      21.904   3.492  47.109  1.00  0.00     0.020 A 
HETATM   17  C13 UNL     1      22.082   4.757  47.661  1.00  0.00     0.012 A 
HETATM   18  C14 UNL     1      22.894   4.810  48.778  1.00  0.00    -0.014 A 
BRANCH  18  19
HETATM   19  C15 UNL     1      23.216   6.116  49.383  1.00  0.00     0.162 C 
BRANCH  19  20
HETATM   20  N4  UNL     1      24.371   6.787  48.865  1.00  0.00    -0.368 N 
HETATM   21  H11 UNL     1      24.421   5.998  48.165  1.00  0.00     0.161 HD
BRANCH  20  22
HETATM   22  C16 UNL     1      25.510   7.424  48.331  1.00  0.00     0.160 A 
HETATM   23  N5  UNL     1      25.924   7.791  47.118  1.00  0.00    -0.192 NA
HETATM   24  S2  UNL     1      27.352   8.609  46.868  1.00  0.00     0.001 SA
HETATM   25  C17 UNL     1      28.209   8.915  48.329  1.00  0.00     0.072 A 
HETATM   26  C18 UNL     1      27.532   8.412  49.461  1.00  0.00     0.043 A 
HETATM   27  C19 UNL     1      26.338   7.753  49.442  1.00  0.00     0.094 A 
HETATM   28  N6  UNL     1      26.112   7.450  50.705  1.00  0.00    -0.296 NA
HETATM   29  H14 UNL     1      25.281   6.921  51.032  1.00  0.00     0.187 HD
ENDBRANCH  20  22
ENDBRANCH  19  20
ENDBRANCH  18  19
ENDBRANCH   3  13
TORSDOF 5
ENDMDL
MODEL 9
REMARK VINA RESULT:      -7.2      2.972      3.677
REMARK  5 active torsions:
REMARK  status: ('A' for Active; 'I' for Inactive)
REMARK    1  A    between atoms: C2_3  and  C3_4 
REMARK    2  A    between atoms: C2_3  and  C10_13 
REMARK    3  A    between atoms: C14_18  and  C15_19 
REMARK    4  A    between atoms: C15_19  and  N4_20 
REMARK    5  A    between atoms: N4_20  and  C16_21 
ROOT
HETATM    1  N1  UNL     1      22.275   7.408  50.862  1.00  0.00    -0.196 NA
HETATM    2  C1  UNL     1      22.905   6.498  50.568  1.00  0.00     0.077 C 
HETATM    3  C2  UNL     1      23.672   5.355  50.207  1.00  0.00     0.204 C 
ENDROOT
BRANCH   3   4
HETATM    4  C3  UNL     1      24.945   5.828  49.496  1.00  0.00     0.100 A 
HETATM    5  N2  UNL     1      25.988   5.297  49.354  1.00  0.00    -0.243 NA
HETATM    6  C4  UNL     1      27.045   5.764  48.726  1.00  0.00     0.074 A 
HETATM    7  C5  UNL     1      28.283   5.158  48.546  1.00  0.00     0.033 A 
HETATM    8  C9  UNL     1      26.937   7.016  48.166  1.00  0.00     0.035 A 
HETATM    9  C6  UNL     1      29.282   5.779  47.864  1.00  0.00     0.002 A 
HETATM   10  C7  UNL     1      29.165   7.049  47.295  1.00  0.00     0.002 A 
HETATM   11  C8  UNL     1      27.939   7.683  47.460  1.00  0.00     0.021 A 
HETATM   12  S1  UNL     1      25.265   7.421  48.610  1.00  0.00    -0.071 SA
ENDBRANCH   3   4
BRANCH   3  13
HETATM   13  C10 UNL     1      23.077   4.401  49.252  1.00  0.00     0.066 A 
HETATM   14  N3  UNL     1      22.449   4.908  48.158  1.00  0.00    -0.263 NA
HETATM   15  C11 UNL     1      21.932   4.111  47.198  1.00  0.00     0.117 A 
HETATM   16  C12 UNL     1      22.008   2.768  47.272  1.00  0.00     0.020 A 
HETATM   17  C13 UNL     1      22.628   2.147  48.352  1.00  0.00     0.012 A 
HETATM   18  C14 UNL     1      23.144   2.996  49.312  1.00  0.00    -0.014 A 
BRANCH  18  19
HETATM   19  C15 UNL     1      23.742   2.434  50.537  1.00  0.00     0.162 C 
BRANCH  19  20
HETATM   20  N4  UNL     1      22.861   1.687  51.386  1.00  0.00    -0.368 N 
HETATM   21  H11 UNL     1      23.041   0.877  50.733  1.00  0.00     0.161 HD
BRANCH  20  22
HETATM   22  C16 UNL     1      21.999   0.926  52.203  1.00  0.00     0.160 A 
HETATM   23  N5  UNL     1      20.684   0.727  52.285  1.00  0.00    -0.192 NA
HETATM   24  S2  UNL     1      20.004  -0.330  53.377  1.00  0.00     0.001 SA
HETATM   25  C17 UNL     1      21.177  -1.115  54.363  1.00  0.00     0.072 A 
HETATM   26  C18 UNL     1      22.492  -0.709  54.053  1.00  0.00     0.043 A 
HETATM   27  C19 UNL     1      22.837   0.198  53.094  1.00  0.00     0.094 A 
HETATM   28  N6  UNL     1      24.150   0.283  53.182  1.00  0.00    -0.296 NA
HETATM   29  H14 UNL     1      24.728   0.912  52.593  1.00  0.00     0.187 HD
ENDBRANCH  20  22
ENDBRANCH  19  20
ENDBRANCH  18  19
ENDBRANCH   3  13
TORSDOF 5
ENDMDL
