MODEL 1
REMARK VINA RESULT:      -8.9      0.000      0.000
REMARK  7 active torsions:
REMARK  status: ('A' for Active; 'I' for Inactive)
REMARK    1  A    between atoms: N1_1  and  C1_2 
REMARK    2  A    between atoms: C1_2  and  C2_3 
REMARK    3  A    between atoms: C6_9  and  C7_10 
REMARK    4  A    between atoms: C15_20  and  O1_21 
REMARK    5  A    between atoms: O1_21  and  C16_22 
REMARK    6  A    between atoms: C16_22  and  C17_23 
REMARK    7  A    between atoms: C17_23  and  N4_24 
ROOT
HETATM    1  C2  UNL     1      22.231   1.446  52.025  1.00  0.00     0.005 A 
HETATM    2  C3  UNL     1      21.816   0.605  53.040  1.00  0.00     0.044 A 
HETATM    3  C4  UNL     1      22.793  -0.042  53.760  1.00  0.00     0.071 A 
HETATM    4  N2  UNL     1      22.535  -0.875  54.779  1.00  0.00    -0.241 NA
HETATM    5  C5  UNL     1      23.465  -1.513  55.507  1.00  0.00     0.234 A 
HETATM    6  N3  UNL     1      24.763  -1.316  55.210  1.00  0.00    -0.240 NA
HETATM    7  C6  UNL     1      25.133  -0.489  54.193  1.00  0.00     0.081 A 
HETATM    8  C13 UNL     1      24.128   0.133  53.491  1.00  0.00     0.025 A 
HETATM    9  C14 UNL     1      24.553   0.969  52.483  1.00  0.00     0.053 A 
HETATM   10  C15 UNL     1      23.590   1.642  51.731  1.00  0.00     0.077 A 
ENDROOT
BRANCH  10  11
HETATM   11  O1  UNL     1      23.854   2.444  50.769  1.00  0.00    -0.349 OA
BRANCH  11  12
HETATM   12  C16 UNL     1      24.118   3.259  49.791  1.00  0.00     0.206 C 
BRANCH  12  13
HETATM   13  C17 UNL     1      24.676   4.634  50.134  1.00  0.00     0.299 C 
BRANCH  13  14
HETATM   14  N4  UNL     1      25.551   5.055  49.066  1.00  0.00     0.090 N 
HETATM   15  C18 UNL     1      26.814   4.434  49.056  1.00  0.00     0.272 C 
HETATM   16  C19 UNL     1      27.948   5.191  48.470  1.00  0.00     0.030 C 
HETATM   17  C20 UNL     1      27.826   6.692  48.532  1.00  0.00     0.003 C 
HETATM   18  C21 UNL     1      26.467   7.006  47.895  1.00  0.00     0.030 C 
HETATM   19  C22 UNL     1      25.464   6.456  48.891  1.00  0.00     0.272 C 
ENDBRANCH  13  14
ENDBRANCH  12  13
ENDBRANCH  11  12
ENDBRANCH  10  11
BRANCH   1  20
HETATM   20  C1  UNL     1      21.181   2.152  51.238  1.00  0.00     0.308 C 
BRANCH  20  21
HETATM   21  N1  UNL     1      20.968   3.485  51.765  1.00  0.00     0.082 N 
HETATM   22  H1  UNL     1      21.802   4.094  51.615  1.00  0.00     0.313 HD
HETATM   23  H2  UNL     1      20.617   3.500  52.738  1.00  0.00     0.313 HD
ENDBRANCH  20  21
ENDBRANCH   1  20
BRANCH   7  24
HETATM   24  C7  UNL     1      26.569  -0.409  54.019  1.00  0.00    -0.005 A 
HETATM   25  C8  UNL     1      27.263  -1.381  53.328  1.00  0.00     0.017 A 
HETATM   26  C9  UNL     1      28.621  -1.383  53.077  1.00  0.00     0.045 A 
HETATM   27  C10 UNL     1      29.291  -0.286  53.589  1.00  0.00     0.138 A 
HETATM   28  F1  UNL     1      30.636  -0.206  53.384  1.00  0.00    -0.204 F 
HETATM   29  C11 UNL     1      28.720   0.749  54.293  1.00  0.00     0.073 A 
HETATM   30 CL1  UNL     1      29.633   2.095  54.904  1.00  0.00    -0.081 Cl
HETATM   31  C12 UNL     1      27.351   0.651  54.489  1.00  0.00     0.041 A 
ENDBRANCH   7  24
TORSDOF 7
ENDMDL
MODEL 2
REMARK VINA RESULT:      -8.6      2.866      6.109
REMARK  7 active torsions:
REMARK  status: ('A' for Active; 'I' for Inactive)
REMARK    1  A    between atoms: N1_1  and  C1_2 
REMARK    2  A    between atoms: C1_2  and  C2_3 
REMARK    3  A    between atoms: C6_9  and  C7_10 
REMARK    4  A    between atoms: C15_20  and  O1_21 
REMARK    5  A    between atoms: O1_21  and  C16_22 
REMARK    6  A    between atoms: C16_22  and  C17_23 
REMARK    7  A    between atoms: C17_23  and  N4_24 
ROOT
HETATM    1  C2  UNL     1      21.676   0.333  53.842  1.00  0.00     0.005 A 
HETATM    2  C3  UNL     1      20.559   1.063  53.481  1.00  0.00     0.044 A 
HETATM    3  C4  UNL     1      20.749   2.125  52.629  1.00  0.00     0.071 A 
HETATM    4  N2  UNL     1      19.755   2.909  52.188  1.00  0.00    -0.241 NA
HETATM    5  C5  UNL     1      19.905   3.945  51.348  1.00  0.00     0.234 A 
HETATM    6  N3  UNL     1      21.141   4.239  50.902  1.00  0.00    -0.240 NA
HETATM    7  C6  UNL     1      22.220   3.505  51.290  1.00  0.00     0.081 A 
HETATM    8  C13 UNL     1      21.992   2.456  52.149  1.00  0.00     0.025 A 
HETATM    9  C14 UNL     1      23.112   1.736  52.500  1.00  0.00     0.053 A 
HETATM   10  C15 UNL     1      22.958   0.652  53.363  1.00  0.00     0.077 A 
ENDROOT
BRANCH  10  11
HETATM   11  O1  UNL     1      23.917  -0.095  53.765  1.00  0.00    -0.349 OA
BRANCH  11  12
HETATM   12  C16 UNL     1      24.891  -0.851  54.178  1.00  0.00     0.206 C 
BRANCH  12  13
HETATM   13  C17 UNL     1      25.987  -0.212  55.021  1.00  0.00     0.299 C 
BRANCH  13  14
HETATM   14  N4  UNL     1      27.026   0.265  54.140  1.00  0.00     0.090 N 
HETATM   15  C18 UNL     1      28.333   0.133  54.644  1.00  0.00     0.272 C 
HETATM   16  C19 UNL     1      29.353   1.104  54.174  1.00  0.00     0.030 C 
HETATM   17  C20 UNL     1      28.820   2.449  53.750  1.00  0.00     0.003 C 
HETATM   18  C21 UNL     1      27.729   2.136  52.719  1.00  0.00     0.030 C 
HETATM   19  C22 UNL     1      26.632   1.482  53.538  1.00  0.00     0.272 C 
ENDBRANCH  13  14
ENDBRANCH  12  13
ENDBRANCH  11  12
ENDBRANCH  10  11
BRANCH   1  20
HETATM   20  C1  UNL     1      21.483  -0.820  54.765  1.00  0.00     0.308 C 
BRANCH  20  21
HETATM   21  N1  UNL     1      20.323  -1.593  54.368  1.00  0.00     0.082 N 
HETATM   22  H1  UNL     1      20.262  -2.491  54.895  1.00  0.00     0.313 HD
HETATM   23  H2  UNL     1      20.226  -1.707  53.345  1.00  0.00     0.313 HD
ENDBRANCH  20  21
ENDBRANCH   1  20
BRANCH   7  24
HETATM   24  C7  UNL     1      23.465   3.974  50.714  1.00  0.00    -0.005 A 
HETATM   25  C8  UNL     1      24.266   3.140  49.961  1.00  0.00     0.017 A 
HETATM   26  C9  UNL     1      25.448   3.495  49.342  1.00  0.00     0.045 A 
HETATM   27  C10 UNL     1      25.810   4.817  49.531  1.00  0.00     0.138 A 
HETATM   28  F1  UNL     1      26.963   5.254  48.952  1.00  0.00    -0.204 F 
HETATM   29  C11 UNL     1      25.103   5.749  50.256  1.00  0.00     0.073 A 
HETATM   30 CL1  UNL     1      25.625   7.395  50.447  1.00  0.00    -0.081 Cl
HETATM   31  C12 UNL     1      23.931   5.287  50.836  1.00  0.00     0.041 A 
ENDBRANCH   7  24
TORSDOF 7
ENDMDL
MODEL 3
REMARK VINA RESULT:      -8.4      3.067      5.378
REMARK  7 active torsions:
REMARK  status: ('A' for Active; 'I' for Inactive)
REMARK    1  A    between atoms: N1_1  and  C1_2 
REMARK    2  A    between atoms: C1_2  and  C2_3 
REMARK    3  A    between atoms: C6_9  and  C7_10 
REMARK    4  A    between atoms: C15_20  and  O1_21 
REMARK    5  A    between atoms: O1_21  and  C16_22 
REMARK    6  A    between atoms: C16_22  and  C17_23 
REMARK    7  A    between atoms: C17_23  and  N4_24 
ROOT
HETATM    1  C2  UNL     1      22.810  -0.682  53.600  1.00  0.00     0.005 A 
HETATM    2  C3  UNL     1      24.036  -0.819  54.223  1.00  0.00     0.044 A 
HETATM    3  C4  UNL     1      25.040   0.036  53.833  1.00  0.00     0.071 A 
HETATM    4  N2  UNL     1      26.272   0.022  54.362  1.00  0.00    -0.241 NA
HETATM    5  C5  UNL     1      27.270   0.849  54.011  1.00  0.00     0.234 A 
HETATM    6  N3  UNL     1      27.038   1.770  53.057  1.00  0.00    -0.240 NA
HETATM    7  C6  UNL     1      25.821   1.867  52.456  1.00  0.00     0.081 A 
HETATM    8  C13 UNL     1      24.845   0.990  52.866  1.00  0.00     0.025 A 
HETATM    9  C14 UNL     1      23.628   1.137  52.239  1.00  0.00     0.053 A 
HETATM   10  C15 UNL     1      22.586   0.288  52.608  1.00  0.00     0.077 A 
ENDROOT
BRANCH  10  11
HETATM   11  O1  UNL     1      21.410   0.322  52.102  1.00  0.00    -0.349 OA
BRANCH  11  12
HETATM   12  C16 UNL     1      20.216   0.361  51.589  1.00  0.00     0.206 C 
BRANCH  12  13
HETATM   13  C17 UNL     1      19.631   1.723  51.240  1.00  0.00     0.299 C 
BRANCH  13  14
HETATM   14  N4  UNL     1      20.227   2.178  50.007  1.00  0.00     0.090 N 
HETATM   15  C18 UNL     1      20.689   1.153  49.160  1.00  0.00     0.272 C 
HETATM   16  C19 UNL     1      21.820   1.468  48.253  1.00  0.00     0.030 C 
HETATM   17  C20 UNL     1      22.751   2.553  48.730  1.00  0.00     0.003 C 
HETATM   18  C21 UNL     1      21.842   3.749  49.037  1.00  0.00     0.030 C 
HETATM   19  C22 UNL     1      21.051   3.302  50.251  1.00  0.00     0.272 C 
ENDBRANCH  13  14
ENDBRANCH  12  13
ENDBRANCH  11  12
ENDBRANCH  10  11
BRANCH   1  20
HETATM   20  C1  UNL     1      21.715  -1.602  54.014  1.00  0.00     0.308 C 
BRANCH  20  21
HETATM   21  N1  UNL     1      20.709  -0.881  54.767  1.00  0.00     0.082 N 
HETATM   22  H1  UNL     1      19.749  -1.231  54.558  1.00  0.00     0.313 HD
HETATM   23  H2  UNL     1      20.796   0.148  54.704  1.00  0.00     0.313 HD
ENDBRANCH  20  21
ENDBRANCH   1  20
BRANCH   7  24
HETATM   24  C7  UNL     1      25.764   2.909  51.450  1.00  0.00    -0.005 A 
HETATM   25  C8  UNL     1      26.562   2.866  50.326  1.00  0.00     0.017 A 
HETATM   26  C9  UNL     1      26.561   3.787  49.297  1.00  0.00     0.045 A 
HETATM   27  C10 UNL     1      25.658   4.822  49.465  1.00  0.00     0.138 A 
HETATM   28  F1  UNL     1      25.590   5.774  48.493  1.00  0.00    -0.204 F 
HETATM   29  C11 UNL     1      24.808   4.981  50.535  1.00  0.00     0.073 A 
HETATM   30 CL1  UNL     1      23.699   6.312  50.672  1.00  0.00    -0.081 Cl
HETATM   31  C12 UNL     1      24.890   4.001  51.512  1.00  0.00     0.041 A 
ENDBRANCH   7  24
TORSDOF 7
ENDMDL
MODEL 4
REMARK VINA RESULT:      -8.3      3.810      8.622
REMARK  7 active torsions:
REMARK  status: ('A' for Active; 'I' for Inactive)
REMARK    1  A    between atoms: N1_1  and  C1_2 
REMARK    2  A    between atoms: C1_2  and  C2_3 
REMARK    3  A    between atoms: C6_9  and  C7_10 
REMARK    4  A    between atoms: C15_20  and  O1_21 
REMARK    5  A    between atoms: O1_21  and  C16_22 
REMARK    6  A    between atoms: C16_22  and  C17_23 
REMARK    7  A    between atoms: C17_23  and  N4_24 
ROOT
HETATM    1  C2  UNL     1      26.440   5.860  48.735  1.00  0.00     0.005 A 
HETATM    2  C3  UNL     1      26.744   7.075  48.150  1.00  0.00     0.044 A 
HETATM    3  C4  UNL     1      28.040   7.265  47.731  1.00  0.00     0.071 A 
HETATM    4  N2  UNL     1      28.470   8.388  47.138  1.00  0.00    -0.241 NA
HETATM    5  C5  UNL     1      29.724   8.600  46.709  1.00  0.00     0.234 A 
HETATM    6  N3  UNL     1      30.637   7.625  46.877  1.00  0.00    -0.240 NA
HETATM    7  C6  UNL     1      30.303   6.446  47.470  1.00  0.00     0.081 A 
HETATM    8  C13 UNL     1      29.001   6.296  47.882  1.00  0.00     0.025 A 
HETATM    9  C14 UNL     1      28.709   5.081  48.462  1.00  0.00     0.053 A 
HETATM   10  C15 UNL     1      27.405   4.853  48.899  1.00  0.00     0.077 A 
ENDROOT
BRANCH  10  11
HETATM   11  O1  UNL     1      27.007   3.769  49.453  1.00  0.00    -0.349 OA
BRANCH  11  12
HETATM   12  C16 UNL     1      26.604   2.671  50.020  1.00  0.00     0.206 C 
BRANCH  12  13
HETATM   13  C17 UNL     1      26.441   2.664  51.535  1.00  0.00     0.299 C 
BRANCH  13  14
HETATM   14  N4  UNL     1      27.314   1.657  52.088  1.00  0.00     0.090 N 
HETATM   15  C18 UNL     1      26.715   0.399  52.286  1.00  0.00     0.272 C 
HETATM   16  C19 UNL     1      27.257  -0.458  53.368  1.00  0.00     0.030 C 
HETATM   17  C20 UNL     1      27.907   0.276  54.513  1.00  0.00     0.003 C 
HETATM   18  C21 UNL     1      28.948   1.192  53.857  1.00  0.00     0.030 C 
HETATM   19  C22 UNL     1      28.112   2.216  53.113  1.00  0.00     0.272 C 
ENDBRANCH  13  14
ENDBRANCH  12  13
ENDBRANCH  11  12
ENDBRANCH  10  11
BRANCH   1  20
HETATM   20  C1  UNL     1      25.039   5.643  49.192  1.00  0.00     0.308 C 
BRANCH  20  21
HETATM   21  N1  UNL     1      24.935   5.870  50.620  1.00  0.00     0.082 N 
HETATM   22  H1  UNL     1      25.185   6.851  50.871  1.00  0.00     0.313 HD
HETATM   23  H2  UNL     1      25.422   5.160  51.193  1.00  0.00     0.313 HD
ENDBRANCH  20  21
ENDBRANCH   1  20
BRANCH   7  24
HETATM   24  C7  UNL     1      31.417   5.524  47.570  1.00  0.00    -0.005 A 
HETATM   25  C8  UNL     1      31.371   4.277  46.982  1.00  0.00     0.017 A 
HETATM   26  C9  UNL     1      32.385   3.340  46.989  1.00  0.00     0.045 A 
HETATM   27  C10 UNL     1      33.524   3.745  47.663  1.00  0.00     0.138 A 
HETATM   28  F1  UNL     1      34.576   2.882  47.717  1.00  0.00    -0.204 F 
HETATM   29  C11 UNL     1      33.698   4.957  48.290  1.00  0.00     0.073 A 
HETATM   30 CL1  UNL     1      35.163   5.393  49.117  1.00  0.00    -0.081 Cl
HETATM   31  C12 UNL     1      32.617   5.824  48.222  1.00  0.00     0.041 A 
ENDBRANCH   7  24
TORSDOF 7
ENDMDL
MODEL 5
REMARK VINA RESULT:      -8.3      3.486      5.426
REMARK  7 active torsions:
REMARK  status: ('A' for Active; 'I' for Inactive)
REMARK    1  A    between atoms: N1_1  and  C1_2 
REMARK    2  A    between atoms: C1_2  and  C2_3 
REMARK    3  A    between atoms: C6_9  and  C7_10 
REMARK    4  A    between atoms: C15_20  and  O1_21 
REMARK    5  A    between atoms: O1_21  and  C16_22 
REMARK    6  A    between atoms: C16_22  and  C17_23 
REMARK    7  A    between atoms: C17_23  and  N4_24 
ROOT
HETATM    1  C2  UNL     1      26.576   1.001  53.155  1.00  0.00     0.005 A 
HETATM    2  C3  UNL     1      26.348   0.187  54.250  1.00  0.00     0.044 A 
HETATM    3  C4  UNL     1      25.072  -0.297  54.420  1.00  0.00     0.071 A 
HETATM    4  N2  UNL     1      24.715  -1.105  55.429  1.00  0.00    -0.241 NA
HETATM    5  C5  UNL     1      23.482  -1.602  55.617  1.00  0.00     0.234 A 
HETATM    6  N3  UNL     1      22.515  -1.278  54.738  1.00  0.00    -0.240 NA
HETATM    7  C6  UNL     1      22.774  -0.463  53.678  1.00  0.00     0.081 A 
HETATM    8  C13 UNL     1      24.059   0.008  53.546  1.00  0.00     0.025 A 
HETATM    9  C14 UNL     1      24.274   0.816  52.452  1.00  0.00     0.053 A 
HETATM   10  C15 UNL     1      25.556   1.326  52.247  1.00  0.00     0.077 A 
ENDROOT
BRANCH  10  11
HETATM   11  O1  UNL     1      25.884   2.087  51.271  1.00  0.00    -0.349 OA
BRANCH  11  12
HETATM   12  C16 UNL     1      26.214   2.862  50.281  1.00  0.00     0.206 C 
BRANCH  12  13
HETATM   13  C17 UNL     1      25.683   4.289  50.281  1.00  0.00     0.299 C 
BRANCH  13  14
HETATM   14  N4  UNL     1      26.221   4.981  49.135  1.00  0.00     0.090 N 
HETATM   15  C18 UNL     1      27.560   4.669  48.832  1.00  0.00     0.272 C 
HETATM   16  C19 UNL     1      28.371   5.709  48.151  1.00  0.00     0.030 C 
HETATM   17  C20 UNL     1      27.949   7.133  48.411  1.00  0.00     0.003 C 
HETATM   18  C21 UNL     1      26.457   7.174  48.062  1.00  0.00     0.030 C 
HETATM   19  C22 UNL     1      25.808   6.333  49.144  1.00  0.00     0.272 C 
ENDBRANCH  13  14
ENDBRANCH  12  13
ENDBRANCH  11  12
ENDBRANCH  10  11
BRANCH   1  20
HETATM   20  C1  UNL     1      27.954   1.531  52.961  1.00  0.00     0.308 C 
BRANCH  20  21
HETATM   21  N1  UNL     1      28.202   2.634  53.868  1.00  0.00     0.082 N 
HETATM   22  H1  UNL     1      28.324   3.533  53.354  1.00  0.00     0.313 HD
HETATM   23  H2  UNL     1      28.949   2.449  54.559  1.00  0.00     0.313 HD
ENDBRANCH  20  21
ENDBRANCH   1  20
BRANCH   7  24
HETATM   24  C7  UNL     1      21.611  -0.221  52.848  1.00  0.00    -0.005 A 
HETATM   25  C8  UNL     1      20.334  -0.430  53.325  1.00  0.00     0.017 A 
HETATM   26  C9  UNL     1      19.162  -0.199  52.632  1.00  0.00     0.045 A 
HETATM   27  C10 UNL     1      19.351   0.283  51.348  1.00  0.00     0.138 A 
HETATM   28  F1  UNL     1      18.247   0.541  50.593  1.00  0.00    -0.204 F 
HETATM   29  C11 UNL     1      20.567   0.533  50.754  1.00  0.00     0.073 A 
HETATM   30 CL1  UNL     1      20.721   1.141  49.134  1.00  0.00    -0.081 Cl
HETATM   31  C12 UNL     1      21.679   0.268  51.539  1.00  0.00     0.041 A 
ENDBRANCH   7  24
TORSDOF 7
ENDMDL
MODEL 6
REMARK VINA RESULT:      -8.3      3.946      6.151
REMARK  7 active torsions:
REMARK  status: ('A' for Active; 'I' for Inactive)
REMARK    1  A    between atoms: N1_1  and  C1_2 
REMARK    2  A    between atoms: C1_2  and  C2_3 
REMARK    3  A    between atoms: C6_9  and  C7_10 
REMARK    4  A    between atoms: C15_20  and  O1_21 
REMARK    5  A    between atoms: O1_21  and  C16_22 
REMARK    6  A    between atoms: C16_22  and  C17_23 
REMARK    7  A    between atoms: C17_23  and  N4_24 
ROOT
HETATM    1  C2  UNL     1      25.425  -0.051  53.827  1.00  0.00     0.005 A 
HETATM    2  C3  UNL     1      24.576  -0.847  54.572  1.00  0.00     0.044 A 
HETATM    3  C4  UNL     1      23.239  -0.813  54.252  1.00  0.00     0.071 A 
HETATM    4  N2  UNL     1      22.306  -1.541  54.883  1.00  0.00    -0.241 NA
HETATM    5  C5  UNL     1      20.997  -1.539  54.588  1.00  0.00     0.234 A 
HETATM    6  N3  UNL     1      20.564  -0.752  53.584  1.00  0.00    -0.240 NA
HETATM    7  C6  UNL     1      21.430   0.028  52.880  1.00  0.00     0.081 A 
HETATM    8  C13 UNL     1      22.756  -0.026  53.235  1.00  0.00     0.025 A 
HETATM    9  C14 UNL     1      23.594   0.768  52.485  1.00  0.00     0.053 A 
HETATM   10  C15 UNL     1      24.956   0.761  52.781  1.00  0.00     0.077 A 
ENDROOT
BRANCH  10  11
HETATM   11  O1  UNL     1      25.836   1.453  52.160  1.00  0.00    -0.349 OA
BRANCH  11  12
HETATM   12  C16 UNL     1      26.727   2.155  51.526  1.00  0.00     0.206 C 
BRANCH  12  13
HETATM   13  C17 UNL     1      26.249   3.339  50.695  1.00  0.00     0.299 C 
BRANCH  13  14
HETATM   14  N4  UNL     1      24.814   3.261  50.566  1.00  0.00     0.090 N 
HETATM   15  C18 UNL     1      24.347   3.090  49.249  1.00  0.00     0.272 C 
HETATM   16  C19 UNL     1      22.999   3.617  48.923  1.00  0.00     0.030 C 
HETATM   17  C20 UNL     1      22.540   4.784  49.760  1.00  0.00     0.003 C 
HETATM   18  C21 UNL     1      22.697   4.317  51.212  1.00  0.00     0.030 C 
HETATM   19  C22 UNL     1      24.198   4.221  51.402  1.00  0.00     0.272 C 
ENDBRANCH  13  14
ENDBRANCH  12  13
ENDBRANCH  11  12
ENDBRANCH  10  11
BRANCH   1  20
HETATM   20  C1  UNL     1      26.876  -0.080  54.165  1.00  0.00     0.308 C 
BRANCH  20  21
HETATM   21  N1  UNL     1      27.239   1.101  54.923  1.00  0.00     0.082 N 
HETATM   22  H1  UNL     1      26.695   1.936  54.616  1.00  0.00     0.313 HD
HETATM   23  H2  UNL     1      28.259   1.268  54.975  1.00  0.00     0.313 HD
ENDBRANCH  20  21
ENDBRANCH   1  20
BRANCH   7  24
HETATM   24  C7  UNL     1      20.780   0.810  51.847  1.00  0.00    -0.005 A 
HETATM   25  C8  UNL     1      20.976   0.533  50.509  1.00  0.00     0.017 A 
HETATM   26  C9  UNL     1      20.381   1.192  49.451  1.00  0.00     0.045 A 
HETATM   27  C10 UNL     1      19.524   2.211  49.829  1.00  0.00     0.138 A 
HETATM   28  F1  UNL     1      18.892   2.912  48.847  1.00  0.00    -0.204 F 
HETATM   29  C11 UNL     1      19.243   2.586  51.123  1.00  0.00     0.073 A 
HETATM   30 CL1  UNL     1      18.151   3.879  51.517  1.00  0.00    -0.081 Cl
HETATM   31  C12 UNL     1      19.893   1.859  52.109  1.00  0.00     0.041 A 
ENDBRANCH   7  24
TORSDOF 7
ENDMDL
MODEL 7
REMARK VINA RESULT:      -8.3      3.580      5.845
REMARK  7 active torsions:
REMARK  status: ('A' for Active; 'I' for Inactive)
REMARK    1  A    between atoms: N1_1  and  C1_2 
REMARK    2  A    between atoms: C1_2  and  C2_3 
REMARK    3  A    between atoms: C6_9  and  C7_10 
REMARK    4  A    between atoms: C15_20  and  O1_21 
REMARK    5  A    between atoms: O1_21  and  C16_22 
REMARK    6  A    between atoms: C16_22  and  C17_23 
REMARK    7  A    between atoms: C17_23  and  N4_24 
ROOT
HETATM    1  C2  UNL     1      26.703   0.860  53.357  1.00  0.00     0.005 A 
HETATM    2  C3  UNL     1      26.445   0.023  54.426  1.00  0.00     0.044 A 
HETATM    3  C4  UNL     1      25.158  -0.440  54.567  1.00  0.00     0.071 A 
HETATM    4  N2  UNL     1      24.771  -1.268  55.549  1.00  0.00    -0.241 NA
HETATM    5  C5  UNL     1      23.527  -1.745  55.708  1.00  0.00     0.234 A 
HETATM    6  N3  UNL     1      22.578  -1.379  54.825  1.00  0.00    -0.240 NA
HETATM    7  C6  UNL     1      22.867  -0.542  53.791  1.00  0.00     0.081 A 
HETATM    8  C13 UNL     1      24.162  -0.093  53.688  1.00  0.00     0.025 A 
HETATM    9  C14 UNL     1      24.407   0.739  52.619  1.00  0.00     0.053 A 
HETATM   10  C15 UNL     1      25.701   1.229  52.444  1.00  0.00     0.077 A 
ENDROOT
BRANCH  10  11
HETATM   11  O1  UNL     1      26.057   2.009  51.493  1.00  0.00    -0.349 OA
BRANCH  11  12
HETATM   12  C16 UNL     1      26.418   2.804  50.530  1.00  0.00     0.206 C 
BRANCH  12  13
HETATM   13  C17 UNL     1      25.663   4.116  50.365  1.00  0.00     0.299 C 
BRANCH  13  14
HETATM   14  N4  UNL     1      24.246   3.841  50.398  1.00  0.00     0.090 N 
HETATM   15  C18 UNL     1      23.567   4.090  49.191  1.00  0.00     0.272 C 
HETATM   16  C19 UNL     1      22.131   4.454  49.272  1.00  0.00     0.030 C 
HETATM   17  C20 UNL     1      21.705   5.127  50.552  1.00  0.00     0.003 C 
HETATM   18  C21 UNL     1      22.179   4.191  51.669  1.00  0.00     0.030 C 
HETATM   19  C22 UNL     1      23.691   4.297  51.615  1.00  0.00     0.272 C 
ENDBRANCH  13  14
ENDBRANCH  12  13
ENDBRANCH  11  12
ENDBRANCH  10  11
BRANCH   1  20
HETATM   20  C1  UNL     1      28.094   1.368  53.195  1.00  0.00     0.308 C 
BRANCH  20  21
HETATM   21  N1  UNL     1      28.230   2.669  53.820  1.00  0.00     0.082 N 
HETATM   22  H1  UNL     1      27.468   3.317  53.526  1.00  0.00     0.313 HD
HETATM   23  H2  UNL     1      29.177   3.078  53.733  1.00  0.00     0.313 HD
ENDBRANCH  20  21
ENDBRANCH   1  20
BRANCH   7  24
HETATM   24  C7  UNL     1      21.720  -0.256  52.953  1.00  0.00    -0.005 A 
HETATM   25  C8  UNL     1      20.432  -0.418  53.420  1.00  0.00     0.017 A 
HETATM   26  C9  UNL     1      19.275  -0.142  52.718  1.00  0.00     0.045 A 
HETATM   27  C10 UNL     1      19.492   0.334  51.437  1.00  0.00     0.138 A 
HETATM   28  F1  UNL     1      18.404   0.634  50.674  1.00  0.00    -0.204 F 
HETATM   29  C11 UNL     1      20.720   0.541  50.853  1.00  0.00     0.073 A 
HETATM   30 CL1  UNL     1      20.910   1.145  49.234  1.00  0.00    -0.081 Cl
HETATM   31  C12 UNL     1      21.816   0.232  51.645  1.00  0.00     0.041 A 
ENDBRANCH   7  24
TORSDOF 7
ENDMDL
MODEL 8
REMARK VINA RESULT:      -8.1      1.969      6.005
REMARK  7 active torsions:
REMARK  status: ('A' for Active; 'I' for Inactive)
REMARK    1  A    between atoms: N1_1  and  C1_2 
REMARK    2  A    between atoms: C1_2  and  C2_3 
REMARK    3  A    between atoms: C6_9  and  C7_10 
REMARK    4  A    between atoms: C15_20  and  O1_21 
REMARK    5  A    between atoms: O1_21  and  C16_22 
REMARK    6  A    between atoms: C16_22  and  C17_23 
REMARK    7  A    between atoms: C17_23  and  N4_24 
ROOT
HETATM    1  C2  UNL     1      22.311   4.544  50.363  1.00  0.00     0.005 A 
HETATM    2  C3  UNL     1      23.272   5.115  49.551  1.00  0.00     0.044 A 
HETATM    3  C4  UNL     1      24.558   4.642  49.667  1.00  0.00     0.071 A 
HETATM    4  N2  UNL     1      25.585   5.096  48.933  1.00  0.00    -0.241 NA
HETATM    5  C5  UNL     1      26.847   4.647  49.015  1.00  0.00     0.234 A 
HETATM    6  N3  UNL     1      27.128   3.667  49.895  1.00  0.00    -0.240 NA
HETATM    7  C6  UNL     1      26.157   3.137  50.688  1.00  0.00     0.081 A 
HETATM    8  C13 UNL     1      24.886   3.642  50.549  1.00  0.00     0.025 A 
HETATM    9  C14 UNL     1      23.937   3.064  51.362  1.00  0.00     0.053 A 
HETATM   10  C15 UNL     1      22.622   3.519  51.273  1.00  0.00     0.077 A 
ENDROOT
BRANCH  10  11
HETATM   11  O1  UNL     1      21.650   3.066  51.972  1.00  0.00    -0.349 OA
BRANCH  11  12
HETATM   12  C16 UNL     1      20.664   2.610  52.686  1.00  0.00     0.206 C 
BRANCH  12  13
HETATM   13  C17 UNL     1      19.965   1.342  52.214  1.00  0.00     0.299 C 
BRANCH  13  14
HETATM   14  N4  UNL     1      20.600   0.206  52.838  1.00  0.00     0.090 N 
HETATM   15  C18 UNL     1      20.585   0.220  54.245  1.00  0.00     0.272 C 
HETATM   16  C19 UNL     1      21.685  -0.481  54.952  1.00  0.00     0.030 C 
HETATM   17  C20 UNL     1      22.985  -0.576  54.195  1.00  0.00     0.003 C 
HETATM   18  C21 UNL     1      22.612  -1.196  52.843  1.00  0.00     0.030 C 
HETATM   19  C22 UNL     1      21.799  -0.114  52.159  1.00  0.00     0.272 C 
ENDBRANCH  13  14
ENDBRANCH  12  13
ENDBRANCH  11  12
ENDBRANCH  10  11
BRANCH   1  20
HETATM   20  C1  UNL     1      20.915   5.049  50.246  1.00  0.00     0.308 C 
BRANCH  20  21
HETATM   21  N1  UNL     1      20.111   4.131  49.465  1.00  0.00     0.082 N 
HETATM   22  H1  UNL     1      19.095   4.352  49.540  1.00  0.00     0.313 HD
HETATM   23  H2  UNL     1      20.330   3.134  49.635  1.00  0.00     0.313 HD
ENDBRANCH  20  21
ENDBRANCH   1  20
BRANCH   7  24
HETATM   24  C7  UNL     1      26.648   2.101  51.574  1.00  0.00    -0.005 A 
HETATM   25  C8  UNL     1      26.198   0.800  51.475  1.00  0.00     0.017 A 
HETATM   26  C9  UNL     1      26.625  -0.265  52.244  1.00  0.00     0.045 A 
HETATM   27  C10 UNL     1      27.589   0.065  53.180  1.00  0.00     0.138 A 
HETATM   28  F1  UNL     1      28.069  -0.928  53.980  1.00  0.00    -0.204 F 
HETATM   29  C11 UNL     1      28.121   1.318  53.380  1.00  0.00     0.073 A 
HETATM   30 CL1  UNL     1      29.334   1.651  54.579  1.00  0.00    -0.081 Cl
HETATM   31  C12 UNL     1      27.623   2.315  52.554  1.00  0.00     0.041 A 
ENDBRANCH   7  24
TORSDOF 7
ENDMDL
MODEL 9
REMARK VINA RESULT:      -8.1      3.488      5.791
REMARK  7 active torsions:
REMARK  status: ('A' for Active; 'I' for Inactive)
REMARK    1  A    between atoms: N1_1  and  C1_2 
REMARK    2  A    between atoms: C1_2  and  C2_3 
REMARK    3  A    between atoms: C6_9  and  C7_10 
REMARK    4  A    between atoms: C15_20  and  O1_21 
REMARK    5  A    between atoms: O1_21  and  C16_22 
REMARK    6  A    between atoms: C16_22  and  C17_23 
REMARK    7  A    between atoms: C17_23  and  N4_24 
ROOT
HETATM    1  C2  UNL     1      26.029   2.961  50.532  1.00  0.00     0.005 A 
HETATM    2  C3  UNL     1      26.874   2.391  51.465  1.00  0.00     0.044 A 
HETATM    3  C4  UNL     1      26.318   1.508  52.361  1.00  0.00     0.071 A 
HETATM    4  N2  UNL     1      27.021   0.873  53.310  1.00  0.00    -0.241 NA
HETATM    5  C5  UNL     1      26.511  -0.002  54.191  1.00  0.00     0.234 A 
HETATM    6  N3  UNL     1      25.194  -0.277  54.137  1.00  0.00    -0.240 NA
HETATM    7  C6  UNL     1      24.390   0.314  53.211  1.00  0.00     0.081 A 
HETATM    8  C13 UNL     1      24.981   1.197  52.338  1.00  0.00     0.025 A 
HETATM    9  C14 UNL     1      24.130   1.758  51.412  1.00  0.00     0.053 A 
HETATM   10  C15 UNL     1      24.659   2.659  50.488  1.00  0.00     0.077 A 
ENDROOT
BRANCH  10  11
HETATM   11  O1  UNL     1      23.975   3.248  49.579  1.00  0.00    -0.349 OA
BRANCH  11  12
HETATM   12  C16 UNL     1      23.285   3.848  48.655  1.00  0.00     0.206 C 
BRANCH  12  13
HETATM   13  C17 UNL     1      22.846   5.284  48.908  1.00  0.00     0.299 C 
BRANCH  13  14
HETATM   14  N4  UNL     1      21.956   5.300  50.044  1.00  0.00     0.090 N 
HETATM   15  C18 UNL     1      22.592   5.449  51.291  1.00  0.00     0.272 C 
HETATM   16  C19 UNL     1      21.922   4.864  52.479  1.00  0.00     0.030 C 
HETATM   17  C20 UNL     1      21.031   3.680  52.202  1.00  0.00     0.003 C 
HETATM   18  C21 UNL     1      20.066   4.157  51.110  1.00  0.00     0.030 C 
HETATM   19  C22 UNL     1      20.952   4.317  49.889  1.00  0.00     0.272 C 
ENDBRANCH  13  14
ENDBRANCH  12  13
ENDBRANCH  11  12
ENDBRANCH  10  11
BRANCH   1  20
HETATM   20  C1  UNL     1      26.621   3.920  49.557  1.00  0.00     0.308 C 
BRANCH  20  21
HETATM   21  N1  UNL     1      26.334   5.284  49.955  1.00  0.00     0.082 N 
HETATM   22  H1  UNL     1      25.464   5.639  49.504  1.00  0.00     0.313 HD
HETATM   23  H2  UNL     1      27.140   5.925  49.860  1.00  0.00     0.313 HD
ENDBRANCH  20  21
ENDBRANCH   1  20
BRANCH   7  24
HETATM   24  C7  UNL     1      23.005  -0.099  53.311  1.00  0.00    -0.005 A 
HETATM   25  C8  UNL     1      22.552  -0.834  54.387  1.00  0.00     0.017 A 
HETATM   26  C9  UNL     1      21.251  -1.248  54.596  1.00  0.00     0.045 A 
HETATM   27  C10 UNL     1      20.370  -0.862  53.601  1.00  0.00     0.138 A 
HETATM   28  F1  UNL     1      19.063  -1.226  53.728  1.00  0.00    -0.204 F 
HETATM   29  C11 UNL     1      20.691  -0.131  52.481  1.00  0.00     0.073 A 
HETATM   30 CL1  UNL     1      19.523   0.316  51.275  1.00  0.00    -0.081 Cl
HETATM   31  C12 UNL     1      22.025   0.233  52.370  1.00  0.00     0.041 A 
ENDBRANCH   7  24
TORSDOF 7
ENDMDL
