MODEL 1
REMARK VINA RESULT:      -7.9      0.000      0.000
REMARK  2 active torsions:
REMARK  status: ('A' for Active; 'I' for Inactive)
REMARK    1  A    between atoms: C6_7  and  C7_8 
REMARK    2  A    between atoms: N4_12  and  C9_13 
ROOT
HETATM    1  C7  UNL     1      21.097   0.818  51.288  1.00  0.00     0.090 C 
HETATM    2  N2  UNL     1      22.001  -0.044  51.579  1.00  0.00    -0.149 NA
HETATM    3  N3  UNL     1      22.380  -0.276  52.883  1.00  0.00    -0.144 NA
HETATM    4  C8  UNL     1      23.455   0.207  53.345  1.00  0.00     0.238 C 
HETATM    5  N4  UNL     1      24.325   1.016  52.532  1.00  0.00    -0.319 N 
HETATM    6  C14 UNL     1      23.649   1.886  51.675  1.00  0.00     0.098 C 
HETATM    7  C15 UNL     1      23.210   1.944  50.460  1.00  0.00     0.019 C 
HETATM    8  C16 UNL     1      22.658   2.189  49.164  1.00  0.00     0.013 C 
HETATM    9  C17 UNL     1      21.664   1.381  48.797  1.00  0.00    -0.024 C 
HETATM   10  C18 UNL     1      21.108   0.701  49.797  1.00  0.00     0.046 C 
ENDROOT
BRANCH   1  11
HETATM   11  C6  UNL     1      20.070   1.842  51.403  1.00  0.00     0.003 A 
HETATM   12  C2  UNL     1      18.793   1.319  51.495  1.00  0.00    -0.032 A 
HETATM   13  C1  UNL     1      18.461  -0.139  51.458  1.00  0.00     0.050 C 
HETATM   14  C3  UNL     1      17.683   2.134  51.636  1.00  0.00     0.123 A 
HETATM   15  N1  UNL     1      17.903   3.450  51.682  1.00  0.00    -0.273 NA
HETATM   16  C4  UNL     1      19.156   3.909  51.591  1.00  0.00     0.117 A 
HETATM   17  C5  UNL     1      20.306   3.181  51.449  1.00  0.00     0.033 A 
ENDBRANCH   1  11
BRANCH   5  18
HETATM   18  C9  UNL     1      25.514   0.526  52.989  1.00  0.00     0.022 A 
HETATM   19  C10 UNL     1      25.883   0.867  54.210  1.00  0.00     0.027 A 
HETATM   20  C11 UNL     1      27.168   0.297  54.618  1.00  0.00     0.022 A 
HETATM   21  C12 UNL     1      27.563  -0.422  53.551  1.00  0.00     0.017 A 
HETATM   22 CL1  UNL     1      28.968  -1.430  53.156  1.00  0.00    -0.089 Cl
HETATM   23  C13 UNL     1      26.547  -0.343  52.439  1.00  0.00     0.108 A 
ENDBRANCH   5  18
TORSDOF 2
ENDMDL
MODEL 2
REMARK VINA RESULT:      -7.7      4.043      5.962
REMARK  2 active torsions:
REMARK  status: ('A' for Active; 'I' for Inactive)
REMARK    1  A    between atoms: C6_7  and  C7_8 
REMARK    2  A    between atoms: N4_12  and  C9_13 
ROOT
HETATM    1  C7  UNL     1      24.050   5.100  50.691  1.00  0.00     0.090 C 
HETATM    2  N2  UNL     1      23.330   4.523  51.582  1.00  0.00    -0.149 NA
HETATM    3  N3  UNL     1      23.883   4.030  52.744  1.00  0.00    -0.144 NA
HETATM    4  C8  UNL     1      24.097   2.792  52.890  1.00  0.00     0.238 C 
HETATM    5  N4  UNL     1      23.775   1.847  51.853  1.00  0.00    -0.319 N 
HETATM    6  C14 UNL     1      24.045   2.309  50.564  1.00  0.00     0.098 C 
HETATM    7  C15 UNL     1      23.458   2.903  49.576  1.00  0.00     0.019 C 
HETATM    8  C16 UNL     1      22.984   3.548  48.392  1.00  0.00     0.013 C 
HETATM    9  C17 UNL     1      22.586   4.811  48.542  1.00  0.00    -0.024 C 
HETATM   10  C18 UNL     1      22.998   5.390  49.667  1.00  0.00     0.046 C 
ENDROOT
BRANCH   1  11
HETATM   11  C6  UNL     1      25.186   5.662  49.977  1.00  0.00     0.003 A 
HETATM   12  C2  UNL     1      25.283   7.035  50.112  1.00  0.00    -0.032 A 
HETATM   13  C1  UNL     1      24.326   7.889  50.881  1.00  0.00     0.050 C 
HETATM   14  C3  UNL     1      26.314   7.750  49.527  1.00  0.00     0.123 A 
HETATM   15  N1  UNL     1      27.211   7.053  48.827  1.00  0.00    -0.273 NA
HETATM   16  C4  UNL     1      27.077   5.726  48.726  1.00  0.00     0.117 A 
HETATM   17  C5  UNL     1      26.095   4.941  49.267  1.00  0.00     0.033 A 
ENDBRANCH   1  11
BRANCH   5  18
HETATM   18  C9  UNL     1      23.302   0.848  52.653  1.00  0.00     0.022 A 
HETATM   19  C10 UNL     1      24.178   0.200  53.398  1.00  0.00     0.027 A 
HETATM   20  C11 UNL     1      23.584  -0.853  54.224  1.00  0.00     0.022 A 
HETATM   21  C12 UNL     1      22.272  -0.802  53.929  1.00  0.00     0.017 A 
HETATM   22 CL1  UNL     1      20.825  -1.689  54.447  1.00  0.00    -0.089 Cl
HETATM   23  C13 UNL     1      21.985   0.281  52.920  1.00  0.00     0.108 A 
ENDBRANCH   5  18
TORSDOF 2
ENDMDL
MODEL 3
REMARK VINA RESULT:      -7.5      2.660      4.180
REMARK  2 active torsions:
REMARK  status: ('A' for Active; 'I' for Inactive)
REMARK    1  A    between atoms: C6_7  and  C7_8 
REMARK    2  A    between atoms: N4_12  and  C9_13 
ROOT
HETATM    1  C7  UNL     1      23.913   3.814  50.279  1.00  0.00     0.090 C 
HETATM    2  N2  UNL     1      24.915   3.778  51.078  1.00  0.00    -0.149 NA
HETATM    3  N3  UNL     1      26.110   3.201  50.707  1.00  0.00    -0.144 NA
HETATM    4  C8  UNL     1      26.431   2.048  51.116  1.00  0.00     0.238 C 
HETATM    5  N4  UNL     1      25.566   1.290  51.983  1.00  0.00    -0.319 N 
HETATM    6  C14 UNL     1      24.210   1.412  51.674  1.00  0.00     0.098 C 
HETATM    7  C15 UNL     1      23.174   2.111  52.004  1.00  0.00     0.019 C 
HETATM    8  C16 UNL     1      21.930   2.777  52.234  1.00  0.00     0.013 C 
HETATM    9  C17 UNL     1      21.905   4.076  51.936  1.00  0.00    -0.024 C 
HETATM   10  C18 UNL     1      22.909   4.484  51.163  1.00  0.00     0.046 C 
ENDROOT
BRANCH   1  11
HETATM   11  C6  UNL     1      23.067   3.645  49.106  1.00  0.00     0.003 A 
HETATM   12  C2  UNL     1      23.055   4.758  48.285  1.00  0.00    -0.032 A 
HETATM   13  C1  UNL     1      23.797   6.028  48.554  1.00  0.00     0.050 C 
HETATM   14  C3  UNL     1      22.329   4.782  47.107  1.00  0.00     0.123 A 
HETATM   15  N1  UNL     1      21.643   3.679  46.798  1.00  0.00    -0.273 NA
HETATM   16  C4  UNL     1      21.688   2.627  47.622  1.00  0.00     0.117 A 
HETATM   17  C5  UNL     1      22.373   2.516  48.802  1.00  0.00     0.033 A 
ENDBRANCH   1  11
BRANCH   5  18
HETATM   18  C9  UNL     1      26.531   0.759  52.789  1.00  0.00     0.022 A 
HETATM   19  C10 UNL     1      26.353   0.855  54.093  1.00  0.00     0.027 A 
HETATM   20  C11 UNL     1      27.433   0.258  54.880  1.00  0.00     0.022 A 
HETATM   21  C12 UNL     1      28.291  -0.214  53.958  1.00  0.00     0.017 A 
HETATM   22 CL1  UNL     1      29.843  -1.072  53.996  1.00  0.00    -0.089 Cl
HETATM   23  C13 UNL     1      27.788   0.056  52.561  1.00  0.00     0.108 A 
ENDBRANCH   5  18
TORSDOF 2
ENDMDL
MODEL 4
REMARK VINA RESULT:      -7.5      1.879      3.020
REMARK  2 active torsions:
REMARK  status: ('A' for Active; 'I' for Inactive)
REMARK    1  A    between atoms: C6_7  and  C7_8 
REMARK    2  A    between atoms: N4_12  and  C9_13 
ROOT
HETATM    1  C7  UNL     1      22.233   1.958  52.401  1.00  0.00     0.090 C 
HETATM    2  N2  UNL     1      23.273   2.145  53.128  1.00  0.00    -0.149 NA
HETATM    3  N3  UNL     1      24.492   2.462  52.569  1.00  0.00    -0.144 NA
HETATM    4  C8  UNL     1      25.399   1.589  52.446  1.00  0.00     0.238 C 
HETATM    5  N4  UNL     1      25.198   0.231  52.879  1.00  0.00    -0.319 N 
HETATM    6  C14 UNL     1      23.916  -0.260  52.624  1.00  0.00     0.098 C 
HETATM    7  C15 UNL     1      22.766  -0.385  53.201  1.00  0.00     0.019 C 
HETATM    8  C16 UNL     1      21.433  -0.606  53.669  1.00  0.00     0.013 C 
HETATM    9  C17 UNL     1      20.735   0.490  53.963  1.00  0.00    -0.024 C 
HETATM   10  C18 UNL     1      21.239   1.616  53.466  1.00  0.00     0.046 C 
ENDROOT
BRANCH   1  11
HETATM   11  C6  UNL     1      21.347   1.839  51.253  1.00  0.00     0.003 A 
HETATM   12  C2  UNL     1      20.735   3.033  50.916  1.00  0.00    -0.032 A 
HETATM   13  C1  UNL     1      20.920   4.325  51.646  1.00  0.00     0.050 C 
HETATM   14  C3  UNL     1      19.876   3.128  49.835  1.00  0.00     0.123 A 
HETATM   15  N1  UNL     1      19.665   2.013  49.131  1.00  0.00    -0.273 NA
HETATM   16  C4  UNL     1      20.281   0.883  49.494  1.00  0.00     0.117 A 
HETATM   17  C5  UNL     1      21.141   0.697  50.542  1.00  0.00     0.033 A 
ENDBRANCH   1  11
BRANCH   5  18
HETATM   18  C9  UNL     1      26.443   0.015  53.397  1.00  0.00     0.022 A 
HETATM   19  C10 UNL     1      26.698   0.512  54.592  1.00  0.00     0.027 A 
HETATM   20  C11 UNL     1      28.053   0.233  55.069  1.00  0.00     0.022 A 
HETATM   21  C12 UNL     1      28.613  -0.476  54.072  1.00  0.00     0.017 A 
HETATM   22 CL1  UNL     1      30.197  -1.223  53.787  1.00  0.00    -0.089 Cl
HETATM   23  C13 UNL     1      27.640  -0.679  52.938  1.00  0.00     0.108 A 
ENDBRANCH   5  18
TORSDOF 2
ENDMDL
MODEL 5
REMARK VINA RESULT:      -7.4      3.685      5.905
REMARK  2 active torsions:
REMARK  status: ('A' for Active; 'I' for Inactive)
REMARK    1  A    between atoms: C6_7  and  C7_8 
REMARK    2  A    between atoms: N4_12  and  C9_13 
ROOT
HETATM    1  C7  UNL     1      22.826   1.196  51.988  1.00  0.00     0.090 C 
HETATM    2  N2  UNL     1      23.393   2.054  51.222  1.00  0.00    -0.149 NA
HETATM    3  N3  UNL     1      24.343   2.929  51.704  1.00  0.00    -0.144 NA
HETATM    4  C8  UNL     1      24.053   4.137  51.943  1.00  0.00     0.238 C 
HETATM    5  N4  UNL     1      22.725   4.649  51.726  1.00  0.00    -0.319 N 
HETATM    6  C14 UNL     1      21.712   3.755  52.077  1.00  0.00     0.098 C 
HETATM    7  C15 UNL     1      20.958   2.848  51.546  1.00  0.00     0.019 C 
HETATM    8  C16 UNL     1      20.048   1.822  51.141  1.00  0.00     0.013 C 
HETATM    9  C17 UNL     1      20.607   0.697  50.696  1.00  0.00    -0.024 C 
HETATM   10  C18 UNL     1      21.893   0.560  51.006  1.00  0.00     0.046 C 
ENDROOT
BRANCH   1  11
HETATM   11  C6  UNL     1      22.452   0.413  53.157  1.00  0.00     0.003 A 
HETATM   12  C2  UNL     1      23.490  -0.361  53.643  1.00  0.00    -0.032 A 
HETATM   13  C1  UNL     1      24.858  -0.434  53.043  1.00  0.00     0.050 C 
HETATM   14  C3  UNL     1      23.338  -1.156  54.766  1.00  0.00     0.123 A 
HETATM   15  N1  UNL     1      22.142  -1.140  55.359  1.00  0.00    -0.273 NA
HETATM   16  C4  UNL     1      21.170  -0.373  54.854  1.00  0.00     0.117 A 
HETATM   17  C5  UNL     1      21.230   0.439  53.754  1.00  0.00     0.033 A 
ENDBRANCH   1  11
BRANCH   5  18
HETATM   18  C9  UNL     1      23.076   5.869  51.225  1.00  0.00     0.022 A 
HETATM   19  C10 UNL     1      22.103   6.657  50.808  1.00  0.00     0.027 A 
HETATM   20  C11 UNL     1      22.568   7.944  50.289  1.00  0.00     0.022 A 
HETATM   21  C12 UNL     1      23.906   7.887  50.420  1.00  0.00     0.017 A 
HETATM   22 CL1  UNL     1      25.259   8.976  50.058  1.00  0.00    -0.089 Cl
HETATM   23  C13 UNL     1      24.336   6.576  51.030  1.00  0.00     0.108 A 
ENDBRANCH   5  18
TORSDOF 2
ENDMDL
MODEL 6
REMARK VINA RESULT:      -7.3      3.931      4.910
REMARK  2 active torsions:
REMARK  status: ('A' for Active; 'I' for Inactive)
REMARK    1  A    between atoms: C6_7  and  C7_8 
REMARK    2  A    between atoms: N4_12  and  C9_13 
ROOT
HETATM    1  C7  UNL     1      22.836   2.622  50.246  1.00  0.00     0.090 C 
HETATM    2  N2  UNL     1      24.091   2.574  49.984  1.00  0.00    -0.149 NA
HETATM    3  N3  UNL     1      25.014   3.227  50.772  1.00  0.00    -0.144 NA
HETATM    4  C8  UNL     1      25.528   4.322  50.401  1.00  0.00     0.238 C 
HETATM    5  N4  UNL     1      25.172   4.932  49.147  1.00  0.00    -0.319 N 
HETATM    6  C14 UNL     1      23.818   4.819  48.828  1.00  0.00     0.098 C 
HETATM    7  C15 UNL     1      23.013   4.055  48.165  1.00  0.00     0.019 C 
HETATM    8  C16 UNL     1      21.979   3.333  47.492  1.00  0.00     0.013 C 
HETATM    9  C17 UNL     1      21.774   2.087  47.916  1.00  0.00    -0.024 C 
HETATM   10  C18 UNL     1      22.309   1.813  49.103  1.00  0.00     0.046 C 
ENDROOT
BRANCH   1  11
HETATM   11  C6  UNL     1      21.562   2.926  50.881  1.00  0.00     0.003 A 
HETATM   12  C2  UNL     1      21.179   1.972  51.807  1.00  0.00    -0.032 A 
HETATM   13  C1  UNL     1      21.952   0.733  52.129  1.00  0.00     0.050 C 
HETATM   14  C3  UNL     1      20.009   2.098  52.535  1.00  0.00     0.123 A 
HETATM   15  N1  UNL     1      19.267   3.183  52.304  1.00  0.00    -0.273 NA
HETATM   16  C4  UNL     1      19.680   4.080  51.401  1.00  0.00     0.117 A 
HETATM   17  C5  UNL     1      20.815   4.037  50.638  1.00  0.00     0.033 A 
ENDBRANCH   1  11
BRANCH   5  18
HETATM   18  C9  UNL     1      26.415   5.375  48.797  1.00  0.00     0.022 A 
HETATM   19  C10 UNL     1      26.548   6.658  48.521  1.00  0.00     0.027 A 
HETATM   20  C11 UNL     1      27.911   7.045  48.156  1.00  0.00     0.022 A 
HETATM   21  C12 UNL     1      28.610   5.897  48.229  1.00  0.00     0.017 A 
HETATM   22 CL1  UNL     1      30.299   5.425  47.963  1.00  0.00    -0.089 Cl
HETATM   23  C13 UNL     1      27.724   4.750  48.648  1.00  0.00     0.108 A 
ENDBRANCH   5  18
TORSDOF 2
ENDMDL
MODEL 7
REMARK VINA RESULT:      -7.3     10.344     13.145
REMARK  2 active torsions:
REMARK  status: ('A' for Active; 'I' for Inactive)
REMARK    1  A    between atoms: C6_7  and  C7_8 
REMARK    2  A    between atoms: N4_12  and  C9_13 
ROOT
HETATM    1  C7  UNL     1      32.892   5.580  47.756  1.00  0.00     0.090 C 
HETATM    2  N2  UNL     1      31.994   5.695  48.665  1.00  0.00    -0.149 NA
HETATM    3  N3  UNL     1      30.708   5.244  48.464  1.00  0.00    -0.144 NA
HETATM    4  C8  UNL     1      29.770   6.049  48.194  1.00  0.00     0.238 C 
HETATM    5  N4  UNL     1      30.003   7.465  48.084  1.00  0.00    -0.319 N 
HETATM    6  C14 UNL     1      31.211   7.791  47.464  1.00  0.00     0.098 C 
HETATM    7  C15 UNL     1      32.438   8.072  47.761  1.00  0.00     0.019 C 
HETATM    8  C16 UNL     1      33.823   8.398  47.894  1.00  0.00     0.013 C 
HETATM    9  C17 UNL     1      34.591   7.451  48.433  1.00  0.00    -0.024 C 
HETATM   10  C18 UNL     1      34.041   6.240  48.453  1.00  0.00     0.046 C 
ENDROOT
BRANCH   1  11
HETATM   11  C6  UNL     1      33.571   5.260  46.509  1.00  0.00     0.003 A 
HETATM   12  C2  UNL     1      34.409   4.165  46.616  1.00  0.00    -0.032 A 
HETATM   13  C1  UNL     1      34.640   3.382  47.869  1.00  0.00     0.050 C 
HETATM   14  C3  UNL     1      35.122   3.689  45.529  1.00  0.00     0.123 A 
HETATM   15  N1  UNL     1      34.963   4.336  44.372  1.00  0.00    -0.273 NA
HETATM   16  C4  UNL     1      34.139   5.389  44.318  1.00  0.00     0.117 A 
HETATM   17  C5  UNL     1      33.400   5.926  45.336  1.00  0.00     0.033 A 
ENDBRANCH   1  11
BRANCH   5  18
HETATM   18  C9  UNL     1      28.858   7.890  48.692  1.00  0.00     0.022 A 
HETATM   19  C10 UNL     1      28.911   9.025  49.362  1.00  0.00     0.027 A 
HETATM   20  C11 UNL     1      27.639   9.406  49.979  1.00  0.00     0.022 A 
HETATM   21  C12 UNL     1      26.798   8.413  49.637  1.00  0.00     0.017 A 
HETATM   22 CL1  UNL     1      25.088   8.047  49.935  1.00  0.00    -0.089 Cl
HETATM   23  C13 UNL     1      27.495   7.379  48.789  1.00  0.00     0.108 A 
ENDBRANCH   5  18
TORSDOF 2
ENDMDL
MODEL 8
REMARK VINA RESULT:      -7.3      4.627      6.176
REMARK  2 active torsions:
REMARK  status: ('A' for Active; 'I' for Inactive)
REMARK    1  A    between atoms: C6_7  and  C7_8 
REMARK    2  A    between atoms: N4_12  and  C9_13 
ROOT
HETATM    1  C7  UNL     1      23.692   3.534  51.359  1.00  0.00     0.090 C 
HETATM    2  N2  UNL     1      24.316   4.640  51.181  1.00  0.00    -0.149 NA
HETATM    3  N3  UNL     1      24.153   5.379  50.029  1.00  0.00    -0.144 NA
HETATM    4  C8  UNL     1      25.026   5.361  49.114  1.00  0.00     0.238 C 
HETATM    5  N4  UNL     1      26.223   4.572  49.234  1.00  0.00    -0.319 N 
HETATM    6  C14 UNL     1      26.021   3.326  49.832  1.00  0.00     0.098 C 
HETATM    7  C15 UNL     1      26.076   2.760  50.993  1.00  0.00     0.019 C 
HETATM    8  C16 UNL     1      26.078   1.968  52.184  1.00  0.00     0.013 C 
HETATM    9  C17 UNL     1      25.206   2.334  53.123  1.00  0.00    -0.024 C 
HETATM   10  C18 UNL     1      24.243   3.146  52.695  1.00  0.00     0.046 C 
ENDROOT
BRANCH   1  11
HETATM   11  C6  UNL     1      22.822   2.384  51.160  1.00  0.00     0.003 A 
HETATM   12  C2  UNL     1      22.504   2.172  49.830  1.00  0.00    -0.032 A 
HETATM   13  C1  UNL     1      22.965   3.027  48.693  1.00  0.00     0.050 C 
HETATM   14  C3  UNL     1      21.708   1.111  49.435  1.00  0.00     0.123 A 
HETATM   15  N1  UNL     1      21.262   0.300  50.398  1.00  0.00    -0.273 NA
HETATM   16  C4  UNL     1      21.598   0.544  51.669  1.00  0.00     0.117 A 
HETATM   17  C5  UNL     1      22.374   1.564  52.148  1.00  0.00     0.033 A 
ENDBRANCH   1  11
BRANCH   5  18
HETATM   18  C9  UNL     1      27.092   5.465  48.677  1.00  0.00     0.022 A 
HETATM   19  C10 UNL     1      28.335   5.065  48.484  1.00  0.00     0.027 A 
HETATM   20  C11 UNL     1      29.195   6.084  47.882  1.00  0.00     0.022 A 
HETATM   21  C12 UNL     1      28.384   7.145  47.719  1.00  0.00     0.017 A 
HETATM   22 CL1  UNL     1      28.566   8.788  47.074  1.00  0.00    -0.089 Cl
HETATM   23  C13 UNL     1      26.987   6.838  48.199  1.00  0.00     0.108 A 
ENDBRANCH   5  18
TORSDOF 2
ENDMDL
MODEL 9
REMARK VINA RESULT:      -7.2      2.835      3.682
REMARK  2 active torsions:
REMARK  status: ('A' for Active; 'I' for Inactive)
REMARK    1  A    between atoms: C6_7  and  C7_8 
REMARK    2  A    between atoms: N4_12  and  C9_13 
ROOT
HETATM    1  C7  UNL     1      23.477   3.726  51.569  1.00  0.00     0.090 C 
HETATM    2  N2  UNL     1      23.880   2.656  52.149  1.00  0.00    -0.149 NA
HETATM    3  N3  UNL     1      24.535   2.699  53.361  1.00  0.00    -0.144 NA
HETATM    4  C8  UNL     1      25.791   2.565  53.427  1.00  0.00     0.238 C 
HETATM    5  N4  UNL     1      26.589   2.363  52.246  1.00  0.00    -0.319 N 
HETATM    6  C14 UNL     1      26.169   3.113  51.146  1.00  0.00     0.098 C 
HETATM    7  C15 UNL     1      25.413   3.009  50.102  1.00  0.00     0.019 C 
HETATM    8  C16 UNL     1      24.630   3.081  48.908  1.00  0.00     0.013 C 
HETATM    9  C17 UNL     1      23.313   2.962  49.072  1.00  0.00    -0.024 C 
HETATM   10  C18 UNL     1      22.895   3.134  50.324  1.00  0.00     0.046 C 
ENDROOT
BRANCH   1  11
HETATM   11  C6  UNL     1      23.199   5.124  51.275  1.00  0.00     0.003 A 
HETATM   12  C2  UNL     1      21.847   5.417  51.273  1.00  0.00    -0.032 A 
HETATM   13  C1  UNL     1      20.755   4.424  51.518  1.00  0.00     0.050 C 
HETATM   14  C3  UNL     1      21.383   6.700  51.040  1.00  0.00     0.123 A 
HETATM   15  N1  UNL     1      22.301   7.643  50.818  1.00  0.00    -0.273 NA
HETATM   16  C4  UNL     1      23.597   7.312  50.832  1.00  0.00     0.117 A 
HETATM   17  C5  UNL     1      24.143   6.077  51.051  1.00  0.00     0.033 A 
ENDBRANCH   1  11
BRANCH   5  18
HETATM   18  C9  UNL     1      27.461   1.450  52.765  1.00  0.00     0.022 A 
HETATM   19  C10 UNL     1      28.332   1.881  53.658  1.00  0.00     0.027 A 
HETATM   20  C11 UNL     1      29.226   0.837  54.161  1.00  0.00     0.022 A 
HETATM   21  C12 UNL     1      28.837  -0.273  53.507  1.00  0.00     0.017 A 
HETATM   22 CL1  UNL     1      29.345  -1.972  53.488  1.00  0.00    -0.089 Cl
HETATM   23  C13 UNL     1      27.685   0.021  52.579  1.00  0.00     0.108 A 
ENDBRANCH   5  18
TORSDOF 2
ENDMDL
