MODEL 1
REMARK VINA RESULT:      -8.4      0.000      0.000
REMARK  3 active torsions:
REMARK  status: ('A' for Active; 'I' for Inactive)
REMARK    1  A    between atoms: C5_6  and  C6_7 
REMARK    2  A    between atoms: C6_7  and  O1_8 
REMARK    3  A    between atoms: O1_8  and  C7_9 
ROOT
HETATM    1  C7  UNL     1      23.579  -0.010  53.481  1.00  0.00     0.069 A 
HETATM    2  C8  UNL     1      23.094  -0.688  54.604  1.00  0.00     0.039 A 
HETATM    3  C9  UNL     1      21.765  -1.104  54.669  1.00  0.00     0.032 A 
HETATM    4  C10 UNL     1      20.945  -0.823  53.584  1.00  0.00     0.035 A 
HETATM    5  C11 UNL     1      21.427  -0.155  52.477  1.00  0.00    -0.026 A 
HETATM    6  C12 UNL     1      22.735   0.251  52.422  1.00  0.00     0.046 A 
HETATM    7  C13 UNL     1      20.671   0.212  51.251  1.00  0.00     0.068 C 
HETATM    8  C14 UNL     1      19.350   0.771  51.720  1.00  0.00    -0.024 C 
HETATM    9  C15 UNL     1      18.395   0.232  52.468  1.00  0.00    -0.011 C 
HETATM   10  C16 UNL     1      18.404  -1.143  53.056  1.00  0.00     0.147 C 
HETATM   11  N1  UNL     1      19.625  -1.306  53.791  1.00  0.00    -0.386 N 
HETATM   12  H15 UNL     1      19.554  -1.899  54.667  1.00  0.00     0.160 HD
ENDROOT
BRANCH   1  13
HETATM   13  O1  UNL     1      24.907   0.337  53.560  1.00  0.00    -0.347 OA
BRANCH  13  14
HETATM   14  C6  UNL     1      25.827   0.401  52.517  1.00  0.00     0.214 C 
BRANCH  14  15
HETATM   15  C5  UNL     1      27.195  -0.015  52.912  1.00  0.00    -0.031 A 
HETATM   16  C4  UNL     1      28.082   0.961  53.275  1.00  0.00     0.009 A 
HETATM   17  C3  UNL     1      29.365   0.669  53.653  1.00  0.00     0.004 A 
HETATM   18  C2  UNL     1      29.777  -0.638  53.671  1.00  0.00     0.042 A 
HETATM   19  C1  UNL     1      28.901  -1.668  53.308  1.00  0.00     0.117 A 
HETATM   20  F1  UNL     1      29.260  -2.975  53.308  1.00  0.00    -0.206 F 
HETATM   21  C17 UNL     1      27.619  -1.337  52.932  1.00  0.00     0.051 A 
ENDBRANCH  14  15
ENDBRANCH  13  14
ENDBRANCH   1  13
TORSDOF 3
ENDMDL
MODEL 2
REMARK VINA RESULT:      -8.3      1.221      2.245
REMARK  3 active torsions:
REMARK  status: ('A' for Active; 'I' for Inactive)
REMARK    1  A    between atoms: C5_6  and  C6_7 
REMARK    2  A    between atoms: C6_7  and  O1_8 
REMARK    3  A    between atoms: O1_8  and  C7_9 
ROOT
HETATM    1  C7  UNL     1      24.381   1.030  52.331  1.00  0.00     0.069 A 
HETATM    2  C8  UNL     1      23.507   1.455  51.325  1.00  0.00     0.039 A 
HETATM    3  C9  UNL     1      22.139   1.202  51.412  1.00  0.00     0.032 A 
HETATM    4  C10 UNL     1      21.678   0.515  52.528  1.00  0.00     0.035 A 
HETATM    5  C11 UNL     1      22.543   0.098  53.519  1.00  0.00    -0.026 A 
HETATM    6  C12 UNL     1      23.886   0.351  53.425  1.00  0.00     0.046 A 
HETATM    7  C13 UNL     1      22.194  -0.641  54.761  1.00  0.00     0.068 C 
HETATM    8  C14 UNL     1      21.235  -1.732  54.349  1.00  0.00    -0.024 C 
HETATM    9  C15 UNL     1      20.057  -1.667  53.741  1.00  0.00    -0.011 C 
HETATM   10  C16 UNL     1      19.360  -0.422  53.293  1.00  0.00     0.147 C 
HETATM   11  N1  UNL     1      20.270   0.331  52.480  1.00  0.00    -0.386 N 
HETATM   12  H15 UNL     1      19.829   0.864  51.676  1.00  0.00     0.160 HD
ENDROOT
BRANCH   1  13
HETATM   13  O1  UNL     1      25.699   1.351  52.108  1.00  0.00    -0.347 OA
BRANCH  13  14
HETATM   14  C6  UNL     1      26.681   1.600  53.063  1.00  0.00     0.214 C 
BRANCH  14  15
HETATM   15  C5  UNL     1      27.693   0.520  53.163  1.00  0.00    -0.031 A 
HETATM   16  C4  UNL     1      28.965   0.866  53.528  1.00  0.00     0.009 A 
HETATM   17  C3  UNL     1      29.963  -0.065  53.645  1.00  0.00     0.004 A 
HETATM   18  C2  UNL     1      29.682  -1.382  53.391  1.00  0.00     0.042 A 
HETATM   19  C1  UNL     1      28.394  -1.779  53.017  1.00  0.00     0.117 A 
HETATM   20  F1  UNL     1      28.066  -3.068  52.754  1.00  0.00    -0.206 F 
HETATM   21  C17 UNL     1      27.416  -0.816  52.908  1.00  0.00     0.051 A 
ENDBRANCH  14  15
ENDBRANCH  13  14
ENDBRANCH   1  13
TORSDOF 3
ENDMDL
MODEL 3
REMARK VINA RESULT:      -8.2      1.847      2.597
REMARK  3 active torsions:
REMARK  status: ('A' for Active; 'I' for Inactive)
REMARK    1  A    between atoms: C5_6  and  C6_7 
REMARK    2  A    between atoms: C6_7  and  O1_8 
REMARK    3  A    between atoms: O1_8  and  C7_9 
ROOT
HETATM    1  C7  UNL     1      23.969  -0.110  53.315  1.00  0.00     0.069 A 
HETATM    2  C8  UNL     1      24.126   0.912  52.373  1.00  0.00     0.039 A 
HETATM    3  C9  UNL     1      23.025   1.621  51.896  1.00  0.00     0.032 A 
HETATM    4  C10 UNL     1      21.772   1.277  52.388  1.00  0.00     0.035 A 
HETATM    5  C11 UNL     1      21.620   0.269  53.317  1.00  0.00    -0.026 A 
HETATM    6  C12 UNL     1      22.709  -0.423  53.781  1.00  0.00     0.046 A 
HETATM    7  C13 UNL     1      20.350  -0.205  53.929  1.00  0.00     0.068 C 
HETATM    8  C14 UNL     1      19.355  -0.321  52.799  1.00  0.00    -0.024 C 
HETATM    9  C15 UNL     1      18.911   0.586  51.937  1.00  0.00    -0.011 C 
HETATM   10  C16 UNL     1      19.318   2.023  51.878  1.00  0.00     0.147 C 
HETATM   11  N1  UNL     1      20.750   2.080  51.815  1.00  0.00    -0.386 N 
HETATM   12  H15 UNL     1      21.149   2.869  51.229  1.00  0.00     0.160 HD
ENDROOT
BRANCH   1  13
HETATM   13  O1  UNL     1      25.143  -0.717  53.691  1.00  0.00    -0.347 OA
BRANCH  13  14
HETATM   14  C6  UNL     1      26.167  -1.164  52.859  1.00  0.00     0.214 C 
BRANCH  14  15
HETATM   15  C5  UNL     1      27.480  -0.538  53.153  1.00  0.00    -0.031 A 
HETATM   16  C4  UNL     1      28.571  -1.356  53.256  1.00  0.00     0.009 A 
HETATM   17  C3  UNL     1      29.821  -0.866  53.524  1.00  0.00     0.004 A 
HETATM   18  C2  UNL     1      29.988   0.484  53.693  1.00  0.00     0.042 A 
HETATM   19  C1  UNL     1      28.899   1.357  53.595  1.00  0.00     0.117 A 
HETATM   20  F1  UNL     1      29.012   2.698  53.755  1.00  0.00    -0.206 F 
HETATM   21  C17 UNL     1      27.657   0.828  53.325  1.00  0.00     0.051 A 
ENDBRANCH  14  15
ENDBRANCH  13  14
ENDBRANCH   1  13
TORSDOF 3
ENDMDL
MODEL 4
REMARK VINA RESULT:      -8.2      3.569      7.939
REMARK  3 active torsions:
REMARK  status: ('A' for Active; 'I' for Inactive)
REMARK    1  A    between atoms: C5_6  and  C6_7 
REMARK    2  A    between atoms: C6_7  and  O1_8 
REMARK    3  A    between atoms: O1_8  and  C7_9 
ROOT
HETATM    1  C7  UNL     1      24.322  -0.103  53.207  1.00  0.00     0.069 A 
HETATM    2  C8  UNL     1      24.153   1.277  53.368  1.00  0.00     0.039 A 
HETATM    3  C9  UNL     1      25.256   2.122  53.485  1.00  0.00     0.032 A 
HETATM    4  C10 UNL     1      26.520   1.548  53.436  1.00  0.00     0.035 A 
HETATM    5  C11 UNL     1      26.682   0.188  53.277  1.00  0.00    -0.026 A 
HETATM    6  C12 UNL     1      25.593  -0.637  53.163  1.00  0.00     0.046 A 
HETATM    7  C13 UNL     1      27.964  -0.561  53.208  1.00  0.00     0.068 C 
HETATM    8  C14 UNL     1      28.835  -0.012  54.313  1.00  0.00    -0.024 C 
HETATM    9  C15 UNL     1      29.262   1.223  54.549  1.00  0.00    -0.011 C 
HETATM   10  C16 UNL     1      28.963   2.434  53.725  1.00  0.00     0.147 C 
HETATM   11  N1  UNL     1      27.541   2.528  53.568  1.00  0.00    -0.386 N 
HETATM   12  H15 UNL     1      27.149   3.513  53.543  1.00  0.00     0.160 HD
ENDROOT
BRANCH   1  13
HETATM   13  O1  UNL     1      23.146  -0.807  53.105  1.00  0.00    -0.347 OA
BRANCH  13  14
HETATM   14  C6  UNL     1      22.001  -0.656  53.883  1.00  0.00     0.214 C 
BRANCH  14  15
HETATM   15  C5  UNL     1      20.771  -0.431  53.084  1.00  0.00    -0.031 A 
HETATM   16  C4  UNL     1      20.896   0.210  51.882  1.00  0.00     0.009 A 
HETATM   17  C3  UNL     1      19.815   0.460  51.079  1.00  0.00     0.004 A 
HETATM   18  C2  UNL     1      18.571   0.056  51.487  1.00  0.00     0.042 A 
HETATM   19  C1  UNL     1      18.399  -0.603  52.709  1.00  0.00     0.117 A 
HETATM   20  F1  UNL     1      17.189  -1.021  53.157  1.00  0.00    -0.206 F 
HETATM   21  C17 UNL     1      19.507  -0.837  53.491  1.00  0.00     0.051 A 
ENDBRANCH  14  15
ENDBRANCH  13  14
ENDBRANCH   1  13
TORSDOF 3
ENDMDL
MODEL 5
REMARK VINA RESULT:      -8.2      2.058      2.625
REMARK  3 active torsions:
REMARK  status: ('A' for Active; 'I' for Inactive)
REMARK    1  A    between atoms: C5_6  and  C6_7 
REMARK    2  A    between atoms: C6_7  and  O1_8 
REMARK    3  A    between atoms: O1_8  and  C7_9 
ROOT
HETATM    1  C7  UNL     1      24.024  -0.180  53.448  1.00  0.00     0.069 A 
HETATM    2  C8  UNL     1      22.889  -0.655  54.113  1.00  0.00     0.039 A 
HETATM    3  C9  UNL     1      21.632  -0.104  53.865  1.00  0.00     0.032 A 
HETATM    4  C10 UNL     1      21.549   0.928  52.938  1.00  0.00     0.035 A 
HETATM    5  C11 UNL     1      22.671   1.394  52.284  1.00  0.00    -0.026 A 
HETATM    6  C12 UNL     1      23.903   0.847  52.534  1.00  0.00     0.046 A 
HETATM    7  C13 UNL     1      22.734   2.484  51.275  1.00  0.00     0.068 C 
HETATM    8  C14 UNL     1      21.884   3.609  51.815  1.00  0.00    -0.024 C 
HETATM    9  C15 UNL     1      20.603   3.641  52.160  1.00  0.00    -0.011 C 
HETATM   10  C16 UNL     1      19.640   2.500  52.089  1.00  0.00     0.147 C 
HETATM   11  N1  UNL     1      20.213   1.387  52.790  1.00  0.00    -0.386 N 
HETATM   12  H15 UNL     1      19.523   0.771  53.309  1.00  0.00     0.160 HD
ENDROOT
BRANCH   1  13
HETATM   13  O1  UNL     1      25.190  -0.819  53.795  1.00  0.00    -0.347 OA
BRANCH  13  14
HETATM   14  C6  UNL     1      26.207  -1.241  52.943  1.00  0.00     0.214 C 
BRANCH  14  15
HETATM   15  C5  UNL     1      27.507  -0.575  53.201  1.00  0.00    -0.031 A 
HETATM   16  C4  UNL     1      28.626  -1.360  53.276  1.00  0.00     0.009 A 
HETATM   17  C3  UNL     1      29.866  -0.830  53.511  1.00  0.00     0.004 A 
HETATM   18  C2  UNL     1      29.996   0.524  53.675  1.00  0.00     0.042 A 
HETATM   19  C1  UNL     1      28.879   1.363  53.606  1.00  0.00     0.117 A 
HETATM   20  F1  UNL     1      28.954   2.707  53.762  1.00  0.00    -0.206 F 
HETATM   21  C17 UNL     1      27.647   0.796  53.369  1.00  0.00     0.051 A 
ENDBRANCH  14  15
ENDBRANCH  13  14
ENDBRANCH   1  13
TORSDOF 3
ENDMDL
MODEL 6
REMARK VINA RESULT:      -8.2      4.136      5.585
REMARK  3 active torsions:
REMARK  status: ('A' for Active; 'I' for Inactive)
REMARK    1  A    between atoms: C5_6  and  C6_7 
REMARK    2  A    between atoms: C6_7  and  O1_8 
REMARK    3  A    between atoms: O1_8  and  C7_9 
ROOT
HETATM    1  C7  UNL     1      25.144   2.153  52.569  1.00  0.00     0.069 A 
HETATM    2  C8  UNL     1      24.144   3.094  52.834  1.00  0.00     0.039 A 
HETATM    3  C9  UNL     1      23.888   4.136  51.944  1.00  0.00     0.032 A 
HETATM    4  C10 UNL     1      24.659   4.205  50.790  1.00  0.00     0.035 A 
HETATM    5  C11 UNL     1      25.644   3.274  50.531  1.00  0.00    -0.026 A 
HETATM    6  C12 UNL     1      25.889   2.253  51.412  1.00  0.00     0.046 A 
HETATM    7  C13 UNL     1      26.540   3.223  49.346  1.00  0.00     0.068 C 
HETATM    8  C14 UNL     1      27.021   4.636  49.117  1.00  0.00    -0.024 C 
HETATM    9  C15 UNL     1      26.346   5.756  48.889  1.00  0.00    -0.011 C 
HETATM   10  C16 UNL     1      24.859   5.889  48.800  1.00  0.00     0.147 C 
HETATM   11  N1  UNL     1      24.287   5.313  49.982  1.00  0.00    -0.386 N 
HETATM   12  H15 UNL     1      23.413   5.791  50.345  1.00  0.00     0.160 HD
ENDROOT
BRANCH   1  13
HETATM   13  O1  UNL     1      25.280   1.186  53.536  1.00  0.00    -0.347 OA
BRANCH  13  14
HETATM   14  C6  UNL     1      26.386   0.954  54.349  1.00  0.00     0.214 C 
BRANCH  14  15
HETATM   15  C5  UNL     1      27.250  -0.152  53.869  1.00  0.00    -0.031 A 
HETATM   16  C4  UNL     1      26.666  -1.148  53.135  1.00  0.00     0.009 A 
HETATM   17  C3  UNL     1      27.386  -2.208  52.652  1.00  0.00     0.004 A 
HETATM   18  C2  UNL     1      28.731  -2.276  52.907  1.00  0.00     0.042 A 
HETATM   19  C1  UNL     1      29.368  -1.278  53.652  1.00  0.00     0.117 A 
HETATM   20  F1  UNL     1      30.694  -1.299  53.933  1.00  0.00    -0.206 F 
HETATM   21  C17 UNL     1      28.612  -0.228  54.124  1.00  0.00     0.051 A 
ENDBRANCH  14  15
ENDBRANCH  13  14
ENDBRANCH   1  13
TORSDOF 3
ENDMDL
MODEL 7
REMARK VINA RESULT:      -8.1      3.289      7.617
REMARK  3 active torsions:
REMARK  status: ('A' for Active; 'I' for Inactive)
REMARK    1  A    between atoms: C5_6  and  C6_7 
REMARK    2  A    between atoms: C6_7  and  O1_8 
REMARK    3  A    between atoms: O1_8  and  C7_9 
ROOT
HETATM    1  C7  UNL     1      22.558  -0.890  53.967  1.00  0.00     0.069 A 
HETATM    2  C8  UNL     1      23.044  -1.349  55.196  1.00  0.00     0.039 A 
HETATM    3  C9  UNL     1      24.383  -1.177  55.544  1.00  0.00     0.032 A 
HETATM    4  C10 UNL     1      25.212  -0.537  54.632  1.00  0.00     0.035 A 
HETATM    5  C11 UNL     1      24.729  -0.085  53.422  1.00  0.00    -0.026 A 
HETATM    6  C12 UNL     1      23.412  -0.258  53.086  1.00  0.00     0.046 A 
HETATM    7  C13 UNL     1      25.495   0.613  52.355  1.00  0.00     0.068 C 
HETATM    8  C14 UNL     1      26.792  -0.144  52.201  1.00  0.00    -0.024 C 
HETATM    9  C15 UNL     1      27.750  -0.412  53.081  1.00  0.00    -0.011 C 
HETATM   10  C16 UNL     1      27.769  -0.003  54.518  1.00  0.00     0.147 C 
HETATM   11  N1  UNL     1      26.542  -0.434  55.122  1.00  0.00    -0.386 N 
HETATM   12  H15 UNL     1      26.615  -0.742  56.135  1.00  0.00     0.160 HD
ENDROOT
BRANCH   1  13
HETATM   13  O1  UNL     1      21.220  -1.130  53.763  1.00  0.00    -0.347 OA
BRANCH  13  14
HETATM   14  C6  UNL     1      20.176  -0.213  53.842  1.00  0.00     0.214 C 
BRANCH  14  15
HETATM   15  C5  UNL     1      19.453  -0.031  52.559  1.00  0.00    -0.031 A 
HETATM   16  C4  UNL     1      18.179  -0.521  52.467  1.00  0.00     0.009 A 
HETATM   17  C3  UNL     1      17.438  -0.398  51.322  1.00  0.00     0.004 A 
HETATM   18  C2  UNL     1      17.984   0.234  50.235  1.00  0.00     0.042 A 
HETATM   19  C1  UNL     1      19.283   0.749  50.287  1.00  0.00     0.117 A 
HETATM   20  F1  UNL     1      19.869   1.381  49.240  1.00  0.00    -0.206 F 
HETATM   21  C17 UNL     1      20.000   0.607  51.454  1.00  0.00     0.051 A 
ENDBRANCH  14  15
ENDBRANCH  13  14
ENDBRANCH   1  13
TORSDOF 3
ENDMDL
MODEL 8
REMARK VINA RESULT:      -8.0      2.736      3.709
REMARK  3 active torsions:
REMARK  status: ('A' for Active; 'I' for Inactive)
REMARK    1  A    between atoms: C5_6  and  C6_7 
REMARK    2  A    between atoms: C6_7  and  O1_8 
REMARK    3  A    between atoms: O1_8  and  C7_9 
ROOT
HETATM    1  C7  UNL     1      25.269   2.155  52.509  1.00  0.00     0.069 A 
HETATM    2  C8  UNL     1      25.755   2.818  51.378  1.00  0.00     0.039 A 
HETATM    3  C9  UNL     1      24.943   3.021  50.264  1.00  0.00     0.032 A 
HETATM    4  C10 UNL     1      23.639   2.544  50.318  1.00  0.00     0.035 A 
HETATM    5  C11 UNL     1      23.163   1.891  51.435  1.00  0.00    -0.026 A 
HETATM    6  C12 UNL     1      23.968   1.694  52.526  1.00  0.00     0.046 A 
HETATM    7  C13 UNL     1      21.800   1.330  51.633  1.00  0.00     0.068 C 
HETATM    8  C14 UNL     1      21.454   0.599  50.358  1.00  0.00    -0.024 C 
HETATM    9  C15 UNL     1      21.383   1.027  49.104  1.00  0.00    -0.011 C 
HETATM   10  C16 UNL     1      21.645   2.421  48.630  1.00  0.00     0.147 C 
HETATM   11  N1  UNL     1      22.934   2.823  49.116  1.00  0.00    -0.386 N 
HETATM   12  H15 UNL     1      23.489   3.453  48.469  1.00  0.00     0.160 HD
ENDROOT
BRANCH   1  13
HETATM   13  O1  UNL     1      26.183   2.029  53.528  1.00  0.00    -0.347 OA
BRANCH  13  14
HETATM   14  C6  UNL     1      27.570   1.978  53.416  1.00  0.00     0.214 C 
BRANCH  14  15
HETATM   15  C5  UNL     1      28.105   0.596  53.340  1.00  0.00    -0.031 A 
HETATM   16  C4  UNL     1      29.398   0.387  53.732  1.00  0.00     0.009 A 
HETATM   17  C3  UNL     1      29.974  -0.855  53.696  1.00  0.00     0.004 A 
HETATM   18  C2  UNL     1      29.236  -1.923  53.255  1.00  0.00     0.042 A 
HETATM   19  C1  UNL     1      27.909  -1.753  52.845  1.00  0.00     0.117 A 
HETATM   20  F1  UNL     1      27.138  -2.775  52.399  1.00  0.00    -0.206 F 
HETATM   21  C17 UNL     1      27.363  -0.490  52.894  1.00  0.00     0.051 A 
ENDBRANCH  14  15
ENDBRANCH  13  14
ENDBRANCH   1  13
TORSDOF 3
ENDMDL
MODEL 9
REMARK VINA RESULT:      -7.9      4.540      5.495
REMARK  3 active torsions:
REMARK  status: ('A' for Active; 'I' for Inactive)
REMARK    1  A    between atoms: C5_6  and  C6_7 
REMARK    2  A    between atoms: C6_7  and  O1_8 
REMARK    3  A    between atoms: O1_8  and  C7_9 
ROOT
HETATM    1  C7  UNL     1      24.832   1.883  51.481  1.00  0.00     0.069 A 
HETATM    2  C8  UNL     1      25.698   1.248  52.378  1.00  0.00     0.039 A 
HETATM    3  C9  UNL     1      25.215   0.331  53.310  1.00  0.00     0.032 A 
HETATM    4  C10 UNL     1      23.850   0.073  53.316  1.00  0.00     0.035 A 
HETATM    5  C11 UNL     1      22.999   0.701  52.430  1.00  0.00    -0.026 A 
HETATM    6  C12 UNL     1      23.482   1.601  51.517  1.00  0.00     0.046 A 
HETATM    7  C13 UNL     1      21.527   0.524  52.321  1.00  0.00     0.068 C 
HETATM    8  C14 UNL     1      20.992   0.547  53.733  1.00  0.00    -0.024 C 
HETATM    9  C15 UNL     1      21.274  -0.218  54.781  1.00  0.00    -0.011 C 
HETATM   10  C16 UNL     1      22.246  -1.354  54.810  1.00  0.00     0.147 C 
HETATM   11  N1  UNL     1      23.505  -0.877  54.315  1.00  0.00    -0.386 N 
HETATM   12  H15 UNL     1      24.364  -1.302  54.769  1.00  0.00     0.160 HD
ENDROOT
BRANCH   1  13
HETATM   13  O1  UNL     1      25.452   2.760  50.622  1.00  0.00    -0.347 OA
BRANCH  13  14
HETATM   14  C6  UNL     1      24.872   3.825  49.939  1.00  0.00     0.214 C 
BRANCH  14  15
HETATM   15  C5  UNL     1      25.864   4.749  49.338  1.00  0.00    -0.031 A 
HETATM   16  C4  UNL     1      25.489   6.050  49.139  1.00  0.00     0.009 A 
HETATM   17  C3  UNL     1      26.339   6.972  48.589  1.00  0.00     0.004 A 
HETATM   18  C2  UNL     1      27.604   6.586  48.228  1.00  0.00     0.042 A 
HETATM   19  C1  UNL     1      28.028   5.266  48.415  1.00  0.00     0.117 A 
HETATM   20  F1  UNL     1      29.267   4.833  48.074  1.00  0.00    -0.206 F 
HETATM   21  C17 UNL     1      27.146   4.365  48.969  1.00  0.00     0.051 A 
ENDBRANCH  14  15
ENDBRANCH  13  14
ENDBRANCH   1  13
TORSDOF 3
ENDMDL
