MODEL 1
REMARK VINA RESULT:      -8.0      0.000      0.000
REMARK  7 active torsions:
REMARK  status: ('A' for Active; 'I' for Inactive)
REMARK    1  A    between atoms: C2_2  and  C3_3 
REMARK    2  A    between atoms: C4_4  and  O1_5 
REMARK    3  A    between atoms: O1_5  and  C5_6 
REMARK    4  A    between atoms: C5_6  and  N1_7 
REMARK    5  A    between atoms: C5_6  and  C6_8 
REMARK    6  A    between atoms: C6_8  and  C7_9 
REMARK    7  A    between atoms: C12_14  and  N2_15 
ROOT
HETATM    1  O1  UNL     1      23.551   2.954  51.449  1.00  0.00    -0.320 OA
ENDROOT
BRANCH   1   2
HETATM    2  C4  UNL     1      22.468   2.170  51.808  1.00  0.00     0.054 C 
HETATM    3  C3  UNL     1      22.380   0.750  51.314  1.00  0.00     0.073 C 
HETATM    4  C18 UNL     1      21.884  -0.005  52.507  1.00  0.00    -0.044 A 
HETATM    5  C15 UNL     1      20.454   0.288  52.789  1.00  0.00     0.134 A 
HETATM    6  C17 UNL     1      22.705  -0.812  53.159  1.00  0.00     0.027 A 
HETATM    7  C14 UNL     1      20.305   1.764  52.972  1.00  0.00     0.061 C 
HETATM    8  N3  UNL     1      20.051  -0.483  53.964  1.00  0.00    -0.305 N 
HETATM    9  C13 UNL     1      21.474   2.562  52.567  1.00  0.00     0.008 C 
HETATM   10  N4  UNL     1      20.887  -1.361  54.700  1.00  0.00    -0.191 NA
HETATM   11  H22 UNL     1      19.053  -0.312  54.211  1.00  0.00     0.183 HD
HETATM   12  C16 UNL     1      22.106  -1.489  54.301  1.00  0.00     0.138 A 
BRANCH   3  13
HETATM   13  C2  UNL     1      21.377   0.753  50.185  1.00  0.00     0.011 C 
HETATM   14  C1  UNL     1      21.914   1.436  48.950  1.00  0.00     0.006 C 
ENDBRANCH   3  13
ENDBRANCH   1   2
BRANCH   1  15
HETATM   15  C5  UNL     1      24.876   2.453  51.471  1.00  0.00     0.363 C 
BRANCH  15  16
HETATM   16  N1  UNL     1      25.794   3.468  50.974  1.00  0.00     0.107 N 
HETATM   17  H8  UNL     1      25.319   4.396  51.143  1.00  0.00     0.316 HD
HETATM   18  H9  UNL     1      25.874   3.386  49.922  1.00  0.00     0.316 HD
ENDBRANCH  15  16
BRANCH  15  19
HETATM   19  C6  UNL     1      25.209   2.102  52.907  1.00  0.00     0.105 C 
BRANCH  19  20
HETATM   20  C7  UNL     1      26.277   1.059  53.002  1.00  0.00    -0.028 A 
HETATM   21  C8  UNL     1      26.042  -0.223  52.544  1.00  0.00     0.009 A 
HETATM   22  C9  UNL     1      27.061  -1.146  52.654  1.00  0.00     0.001 A 
HETATM   23  C10 UNL     1      28.315  -0.871  53.197  1.00  0.00     0.002 A 
HETATM   24  C11 UNL     1      28.535   0.410  53.649  1.00  0.00     0.029 A 
HETATM   25  C12 UNL     1      27.510   1.355  53.543  1.00  0.00     0.032 A 
BRANCH  25  26
HETATM   26  N2  UNL     1      27.745   2.664  54.008  1.00  0.00    -0.399 N 
HETATM   27  H16 UNL     1      28.015   3.249  54.838  1.00  0.00     0.156 HD
HETATM   28  H17 UNL     1      27.681   3.574  53.472  1.00  0.00     0.156 HD
ENDBRANCH  25  26
ENDBRANCH  19  20
ENDBRANCH  15  19
ENDBRANCH   1  15
TORSDOF 7
ENDMDL
MODEL 2
REMARK VINA RESULT:      -7.9      2.394      3.656
REMARK  7 active torsions:
REMARK  status: ('A' for Active; 'I' for Inactive)
REMARK    1  A    between atoms: C2_2  and  C3_3 
REMARK    2  A    between atoms: C4_4  and  O1_5 
REMARK    3  A    between atoms: O1_5  and  C5_6 
REMARK    4  A    between atoms: C5_6  and  N1_7 
REMARK    5  A    between atoms: C5_6  and  C6_8 
REMARK    6  A    between atoms: C6_8  and  C7_9 
REMARK    7  A    between atoms: C12_14  and  N2_15 
ROOT
HETATM    1  O1  UNL     1      23.815  -0.930  53.264  1.00  0.00    -0.320 OA
ENDROOT
BRANCH   1   2
HETATM    2  C4  UNL     1      22.858   0.048  53.052  1.00  0.00     0.054 C 
HETATM    3  C3  UNL     1      23.129   1.153  52.065  1.00  0.00     0.073 C 
HETATM    4  C18 UNL     1      21.822   1.313  51.353  1.00  0.00    -0.044 A 
HETATM    5  C15 UNL     1      20.797   1.950  52.220  1.00  0.00     0.134 A 
HETATM    6  C17 UNL     1      21.705   0.903  50.101  1.00  0.00     0.027 A 
HETATM    7  C14 UNL     1      20.651   1.124  53.457  1.00  0.00     0.061 C 
HETATM    8  N3  UNL     1      19.557   2.066  51.455  1.00  0.00    -0.305 N 
HETATM    9  C13 UNL     1      21.695   0.105  53.653  1.00  0.00     0.008 C 
HETATM   10  N4  UNL     1      19.373   1.645  50.113  1.00  0.00    -0.191 NA
HETATM   11  H22 UNL     1      18.797   2.505  52.018  1.00  0.00     0.183 HD
HETATM   12  C16 UNL     1      20.385   1.112  49.518  1.00  0.00     0.138 A 
BRANCH   3  13
HETATM   13  C2  UNL     1      23.487   2.374  52.878  1.00  0.00     0.011 C 
HETATM   14  C1  UNL     1      24.895   2.846  52.605  1.00  0.00     0.006 C 
ENDBRANCH   3  13
ENDBRANCH   1   2
BRANCH   1  15
HETATM   15  C5  UNL     1      25.107  -0.617  53.754  1.00  0.00     0.363 C 
BRANCH  15  16
HETATM   16  N1  UNL     1      25.269  -1.158  55.097  1.00  0.00     0.107 N 
HETATM   17  H8  UNL     1      25.645  -2.138  54.971  1.00  0.00     0.316 HD
HETATM   18  H9  UNL     1      24.318  -1.283  55.543  1.00  0.00     0.316 HD
ENDBRANCH  15  16
BRANCH  15  19
HETATM   19  C6  UNL     1      26.117  -1.241  52.812  1.00  0.00     0.105 C 
BRANCH  19  20
HETATM   20  C7  UNL     1      27.514  -0.789  53.101  1.00  0.00    -0.028 A 
HETATM   21  C8  UNL     1      27.794   0.555  53.256  1.00  0.00     0.009 A 
HETATM   22  C9  UNL     1      29.098   0.917  53.521  1.00  0.00     0.001 A 
HETATM   23  C10 UNL     1      30.154   0.016  53.644  1.00  0.00     0.002 A 
HETATM   24  C11 UNL     1      29.861  -1.319  53.486  1.00  0.00     0.029 A 
HETATM   25  C12 UNL     1      28.542  -1.700  53.216  1.00  0.00     0.032 A 
BRANCH  25  26
HETATM   26  N2  UNL     1      28.252  -3.069  53.057  1.00  0.00    -0.399 N 
HETATM   27  H16 UNL     1      27.488  -3.786  52.977  1.00  0.00     0.156 HD
HETATM   28  H17 UNL     1      28.929  -3.877  52.959  1.00  0.00     0.156 HD
ENDBRANCH  25  26
ENDBRANCH  19  20
ENDBRANCH  15  19
ENDBRANCH   1  15
TORSDOF 7
ENDMDL
MODEL 3
REMARK VINA RESULT:      -7.5      2.706      4.553
REMARK  7 active torsions:
REMARK  status: ('A' for Active; 'I' for Inactive)
REMARK    1  A    between atoms: C2_2  and  C3_3 
REMARK    2  A    between atoms: C4_4  and  O1_5 
REMARK    3  A    between atoms: O1_5  and  C5_6 
REMARK    4  A    between atoms: C5_6  and  N1_7 
REMARK    5  A    between atoms: C5_6  and  C6_8 
REMARK    6  A    between atoms: C6_8  and  C7_9 
REMARK    7  A    between atoms: C12_14  and  N2_15 
ROOT
HETATM    1  O1  UNL     1      24.235   0.705  52.126  1.00  0.00    -0.320 OA
ENDROOT
BRANCH   1   2
HETATM    2  C4  UNL     1      24.172   2.086  52.049  1.00  0.00     0.054 C 
HETATM    3  C3  UNL     1      24.439   2.772  50.734  1.00  0.00     0.073 C 
HETATM    4  C18 UNL     1      23.402   3.849  50.685  1.00  0.00    -0.044 A 
HETATM    5  C15 UNL     1      23.701   4.945  51.644  1.00  0.00     0.134 A 
HETATM    6  C17 UNL     1      22.382   3.739  49.849  1.00  0.00     0.027 A 
HETATM    7  C14 UNL     1      23.814   4.353  53.012  1.00  0.00     0.061 C 
HETATM    8  N3  UNL     1      22.644   5.950  51.536  1.00  0.00    -0.305 N 
HETATM    9  C13 UNL     1      23.892   2.883  53.050  1.00  0.00     0.008 C 
HETATM   10  N4  UNL     1      21.531   5.884  50.660  1.00  0.00    -0.191 NA
HETATM   11  H22 UNL     1      22.802   6.744  52.192  1.00  0.00     0.183 HD
HETATM   12  C16 UNL     1      21.441   4.850  49.896  1.00  0.00     0.138 A 
BRANCH   3  13
HETATM   13  C2  UNL     1      25.839   3.332  50.821  1.00  0.00     0.011 C 
HETATM   14  C1  UNL     1      26.546   3.305  49.487  1.00  0.00     0.006 C 
ENDBRANCH   3  13
ENDBRANCH   1   2
BRANCH   1  15
HETATM   15  C5  UNL     1      24.848   0.046  53.221  1.00  0.00     0.363 C 
BRANCH  15  16
HETATM   16  N1  UNL     1      23.839  -0.666  53.993  1.00  0.00     0.107 N 
HETATM   17  H8  UNL     1      22.957  -0.641  53.411  1.00  0.00     0.316 HD
HETATM   18  H9  UNL     1      23.609  -0.113  54.866  1.00  0.00     0.316 HD
ENDBRANCH  15  16
BRANCH  15  19
HETATM   19  C6  UNL     1      25.861  -0.930  52.658  1.00  0.00     0.105 C 
BRANCH  19  20
HETATM   20  C7  UNL     1      27.267  -0.541  52.992  1.00  0.00    -0.028 A 
HETATM   21  C8  UNL     1      27.603   0.790  53.152  1.00  0.00     0.009 A 
HETATM   22  C9  UNL     1      28.912   1.094  53.460  1.00  0.00     0.001 A 
HETATM   23  C10 UNL     1      29.921   0.146  53.622  1.00  0.00     0.002 A 
HETATM   24  C11 UNL     1      29.573  -1.175  53.458  1.00  0.00     0.029 A 
HETATM   25  C12 UNL     1      28.248  -1.497  53.146  1.00  0.00     0.032 A 
BRANCH  25  26
HETATM   26  N2  UNL     1      27.901  -2.852  52.982  1.00  0.00    -0.399 N 
HETATM   27  H16 UNL     1      27.109  -3.541  52.939  1.00  0.00     0.156 HD
HETATM   28  H17 UNL     1      28.542  -3.680  52.825  1.00  0.00     0.156 HD
ENDBRANCH  25  26
ENDBRANCH  19  20
ENDBRANCH  15  19
ENDBRANCH   1  15
TORSDOF 7
ENDMDL
MODEL 4
REMARK VINA RESULT:      -7.5      1.927      3.046
REMARK  7 active torsions:
REMARK  status: ('A' for Active; 'I' for Inactive)
REMARK    1  A    between atoms: C2_2  and  C3_3 
REMARK    2  A    between atoms: C4_4  and  O1_5 
REMARK    3  A    between atoms: O1_5  and  C5_6 
REMARK    4  A    between atoms: C5_6  and  N1_7 
REMARK    5  A    between atoms: C5_6  and  C6_8 
REMARK    6  A    between atoms: C6_8  and  C7_9 
REMARK    7  A    between atoms: C12_14  and  N2_15 
ROOT
HETATM    1  O1  UNL     1      24.685   2.786  52.282  1.00  0.00    -0.320 OA
ENDROOT
BRANCH   1   2
HETATM    2  C4  UNL     1      23.555   2.232  51.706  1.00  0.00     0.054 C 
HETATM    3  C3  UNL     1      22.453   1.701  52.586  1.00  0.00     0.073 C 
HETATM    4  C18 UNL     1      21.206   2.155  51.896  1.00  0.00    -0.044 A 
HETATM    5  C15 UNL     1      20.961   1.394  50.643  1.00  0.00     0.134 A 
HETATM    6  C17 UNL     1      20.479   3.125  52.427  1.00  0.00     0.027 A 
HETATM    7  C14 UNL     1      22.160   1.542  49.763  1.00  0.00     0.061 C 
HETATM    8  N3  UNL     1      19.731   1.898  50.033  1.00  0.00    -0.305 N 
HETATM    9  C13 UNL     1      23.344   2.123  50.417  1.00  0.00     0.008 C 
HETATM   10  N4  UNL     1      18.915   2.932  50.556  1.00  0.00    -0.191 NA
HETATM   11  H22 UNL     1      19.512   1.399  49.144  1.00  0.00     0.183 HD
HETATM   12  C16 UNL     1      19.290   3.477  51.663  1.00  0.00     0.138 A 
BRANCH   3  13
HETATM   13  C2  UNL     1      22.592   0.197  52.582  1.00  0.00     0.011 C 
HETATM   14  C1  UNL     1      23.490  -0.294  53.692  1.00  0.00     0.006 C 
ENDBRANCH   3  13
ENDBRANCH   1   2
BRANCH   1  15
HETATM   15  C5  UNL     1      25.979   2.260  52.043  1.00  0.00     0.363 C 
BRANCH  15  16
HETATM   16  N1  UNL     1      26.751   3.199  51.240  1.00  0.00     0.107 N 
HETATM   17  H8  UNL     1      26.878   4.058  51.841  1.00  0.00     0.316 HD
HETATM   18  H9  UNL     1      26.167   3.521  50.418  1.00  0.00     0.316 HD
ENDBRANCH  15  16
BRANCH  15  19
HETATM   19  C6  UNL     1      26.644   2.052  53.389  1.00  0.00     0.105 C 
BRANCH  19  20
HETATM   20  C7  UNL     1      27.575   0.881  53.384  1.00  0.00    -0.028 A 
HETATM   21  C8  UNL     1      27.136  -0.358  52.959  1.00  0.00     0.009 A 
HETATM   22  C9  UNL     1      28.035  -1.403  52.974  1.00  0.00     0.001 A 
HETATM   23  C10 UNL     1      29.361  -1.293  53.390  1.00  0.00     0.002 A 
HETATM   24  C11 UNL     1      29.784  -0.054  53.812  1.00  0.00     0.029 A 
HETATM   25  C12 UNL     1      28.882   1.015  53.801  1.00  0.00     0.032 A 
BRANCH  25  26
HETATM   26  N2  UNL     1      29.326   2.279  54.234  1.00  0.00    -0.399 N 
HETATM   27  H16 UNL     1      30.062   3.021  54.122  1.00  0.00     0.156 HD
HETATM   28  H17 UNL     1      28.891   2.916  54.959  1.00  0.00     0.156 HD
ENDBRANCH  25  26
ENDBRANCH  19  20
ENDBRANCH  15  19
ENDBRANCH   1  15
TORSDOF 7
ENDMDL
MODEL 5
REMARK VINA RESULT:      -7.3      2.773      5.815
REMARK  7 active torsions:
REMARK  status: ('A' for Active; 'I' for Inactive)
REMARK    1  A    between atoms: C2_2  and  C3_3 
REMARK    2  A    between atoms: C4_4  and  O1_5 
REMARK    3  A    between atoms: O1_5  and  C5_6 
REMARK    4  A    between atoms: C5_6  and  N1_7 
REMARK    5  A    between atoms: C5_6  and  C6_8 
REMARK    6  A    between atoms: C6_8  and  C7_9 
REMARK    7  A    between atoms: C12_14  and  N2_15 
ROOT
HETATM    1  O1  UNL     1      26.213   2.687  50.221  1.00  0.00    -0.320 OA
ENDROOT
BRANCH   1   2
HETATM    2  C4  UNL     1      26.478   2.120  51.456  1.00  0.00     0.054 C 
HETATM    3  C3  UNL     1      25.596   1.012  51.971  1.00  0.00     0.073 C 
HETATM    4  C18 UNL     1      26.566   0.051  52.583  1.00  0.00    -0.044 A 
HETATM    5  C15 UNL     1      27.136   0.576  53.852  1.00  0.00     0.134 A 
HETATM    6  C17 UNL     1      26.812  -1.102  51.983  1.00  0.00     0.027 A 
HETATM    7  C14 UNL     1      27.777   1.896  53.567  1.00  0.00     0.061 C 
HETATM    8  N3  UNL     1      28.070  -0.417  54.380  1.00  0.00    -0.305 N 
HETATM    9  C13 UNL     1      27.460   2.470  52.249  1.00  0.00     0.008 C 
HETATM   10  N4  UNL     1      28.371  -1.666  53.781  1.00  0.00    -0.191 NA
HETATM   11  H22 UNL     1      28.505  -0.098  55.273  1.00  0.00     0.183 HD
HETATM   12  C16 UNL     1      27.773  -1.950  52.675  1.00  0.00     0.138 A 
BRANCH   3  13
HETATM   13  C2  UNL     1      24.686   1.636  53.002  1.00  0.00     0.011 C 
HETATM   14  C1  UNL     1      23.431   0.823  53.218  1.00  0.00     0.006 C 
ENDBRANCH   3  13
ENDBRANCH   1   2
BRANCH   1  15
HETATM   15  C5  UNL     1      26.087   4.089  50.054  1.00  0.00     0.363 C 
BRANCH  15  16
HETATM   16  N1  UNL     1      27.162   4.582  49.204  1.00  0.00     0.107 N 
HETATM   17  H8  UNL     1      28.059   4.378  49.724  1.00  0.00     0.316 HD
HETATM   18  H9  UNL     1      27.110   5.637  49.148  1.00  0.00     0.316 HD
ENDBRANCH  15  16
BRANCH  15  19
HETATM   19  C6  UNL     1      24.743   4.353  49.405  1.00  0.00     0.105 C 
BRANCH  19  20
HETATM   20  C7  UNL     1      23.607   4.166  50.361  1.00  0.00    -0.028 A 
HETATM   21  C8  UNL     1      23.540   4.916  51.519  1.00  0.00     0.009 A 
HETATM   22  C9  UNL     1      22.472   4.705  52.365  1.00  0.00     0.001 A 
HETATM   23  C10 UNL     1      21.453   3.784  52.129  1.00  0.00     0.002 A 
HETATM   24  C11 UNL     1      21.533   3.043  50.972  1.00  0.00     0.029 A 
HETATM   25  C12 UNL     1      22.612   3.248  50.105  1.00  0.00     0.032 A 
BRANCH  25  26
HETATM   26  N2  UNL     1      22.684   2.486  48.923  1.00  0.00    -0.399 N 
HETATM   27  H16 UNL     1      22.227   1.729  48.354  1.00  0.00     0.156 HD
HETATM   28  H17 UNL     1      23.412   2.530  48.156  1.00  0.00     0.156 HD
ENDBRANCH  25  26
ENDBRANCH  19  20
ENDBRANCH  15  19
ENDBRANCH   1  15
TORSDOF 7
ENDMDL
MODEL 6
REMARK VINA RESULT:      -7.3      2.447      4.590
REMARK  7 active torsions:
REMARK  status: ('A' for Active; 'I' for Inactive)
REMARK    1  A    between atoms: C2_2  and  C3_3 
REMARK    2  A    between atoms: C4_4  and  O1_5 
REMARK    3  A    between atoms: O1_5  and  C5_6 
REMARK    4  A    between atoms: C5_6  and  N1_7 
REMARK    5  A    between atoms: C5_6  and  C6_8 
REMARK    6  A    between atoms: C6_8  and  C7_9 
REMARK    7  A    between atoms: C12_14  and  N2_15 
ROOT
HETATM    1  O1  UNL     1      26.080   1.635  52.363  1.00  0.00    -0.320 OA
ENDROOT
BRANCH   1   2
HETATM    2  C4  UNL     1      25.092   2.544  52.025  1.00  0.00     0.054 C 
HETATM    3  C3  UNL     1      24.723   2.740  50.577  1.00  0.00     0.073 C 
HETATM    4  C18 UNL     1      23.231   2.843  50.608  1.00  0.00    -0.044 A 
HETATM    5  C15 UNL     1      22.779   4.132  51.194  1.00  0.00     0.134 A 
HETATM    6  C17 UNL     1      22.497   1.847  50.140  1.00  0.00     0.027 A 
HETATM    7  C14 UNL     1      23.366   4.255  52.563  1.00  0.00     0.061 C 
HETATM    8  N3  UNL     1      21.317   4.151  51.189  1.00  0.00    -0.305 N 
HETATM    9  C13 UNL     1      24.422   3.278  52.878  1.00  0.00     0.008 C 
HETATM   10  N4  UNL     1      20.481   3.114  50.702  1.00  0.00    -0.191 NA
HETATM   11  H22 UNL     1      20.944   5.035  51.595  1.00  0.00     0.183 HD
HETATM   12  C16 UNL     1      21.059   2.065  50.225  1.00  0.00     0.138 A 
BRANCH   3  13
HETATM   13  C2  UNL     1      25.375   4.032  50.143  1.00  0.00     0.011 C 
HETATM   14  C1  UNL     1      26.704   3.799  49.466  1.00  0.00     0.006 C 
ENDBRANCH   3  13
ENDBRANCH   1   2
BRANCH   1  15
HETATM   15  C5  UNL     1      25.819   0.244  52.444  1.00  0.00     0.363 C 
BRANCH  15  16
HETATM   16  N1  UNL     1      27.004  -0.503  52.046  1.00  0.00     0.107 N 
HETATM   17  H8  UNL     1      26.650  -1.397  51.609  1.00  0.00     0.316 HD
HETATM   18  H9  UNL     1      27.534  -0.808  52.910  1.00  0.00     0.316 HD
ENDBRANCH  15  16
BRANCH  15  19
HETATM   19  C6  UNL     1      25.459  -0.071  53.882  1.00  0.00     0.105 C 
BRANCH  19  20
HETATM   20  C7  UNL     1      24.040  -0.524  54.023  1.00  0.00    -0.028 A 
HETATM   21  C8  UNL     1      23.111  -0.224  53.045  1.00  0.00     0.009 A 
HETATM   22  C9  UNL     1      21.818  -0.665  53.224  1.00  0.00     0.001 A 
HETATM   23  C10 UNL     1      21.383  -1.397  54.328  1.00  0.00     0.002 A 
HETATM   24  C11 UNL     1      22.318  -1.688  55.295  1.00  0.00     0.029 A 
HETATM   25  C12 UNL     1      23.634  -1.245  55.125  1.00  0.00     0.032 A 
BRANCH  25  26
HETATM   26  N2  UNL     1      24.583  -1.549  56.119  1.00  0.00    -0.399 N 
HETATM   27  H16 UNL     1      24.723  -1.851  57.116  1.00  0.00     0.156 HD
HETATM   28  H17 UNL     1      25.640  -1.529  56.048  1.00  0.00     0.156 HD
ENDBRANCH  25  26
ENDBRANCH  19  20
ENDBRANCH  15  19
ENDBRANCH   1  15
TORSDOF 7
ENDMDL
MODEL 7
REMARK VINA RESULT:      -7.2      2.113      5.716
REMARK  7 active torsions:
REMARK  status: ('A' for Active; 'I' for Inactive)
REMARK    1  A    between atoms: C2_2  and  C3_3 
REMARK    2  A    between atoms: C4_4  and  O1_5 
REMARK    3  A    between atoms: O1_5  and  C5_6 
REMARK    4  A    between atoms: C5_6  and  N1_7 
REMARK    5  A    between atoms: C5_6  and  C6_8 
REMARK    6  A    between atoms: C6_8  and  C7_9 
REMARK    7  A    between atoms: C12_14  and  N2_15 
ROOT
HETATM    1  O1  UNL     1      24.226   1.764  50.914  1.00  0.00    -0.320 OA
ENDROOT
BRANCH   1   2
HETATM    2  C4  UNL     1      24.811   1.394  52.112  1.00  0.00     0.054 C 
HETATM    3  C3  UNL     1      24.674  -0.024  52.603  1.00  0.00     0.073 C 
HETATM    4  C18 UNL     1      26.033  -0.341  53.139  1.00  0.00    -0.044 A 
HETATM    5  C15 UNL     1      26.305   0.375  54.412  1.00  0.00     0.134 A 
HETATM    6  C17 UNL     1      26.819  -1.176  52.478  1.00  0.00     0.027 A 
HETATM    7  C14 UNL     1      26.139   1.841  54.170  1.00  0.00     0.061 C 
HETATM    8  N3  UNL     1      27.648   0.014  54.865  1.00  0.00    -0.305 N 
HETATM    9  C13 UNL     1      25.501   2.192  52.890  1.00  0.00     0.008 C 
HETATM   10  N4  UNL     1      28.531  -0.873  54.199  1.00  0.00    -0.191 NA
HETATM   11  H22 UNL     1      27.894   0.494  55.757  1.00  0.00     0.183 HD
HETATM   12  C16 UNL     1      28.117  -1.404  53.100  1.00  0.00     0.138 A 
BRANCH   3  13
HETATM   13  C2  UNL     1      23.625   0.000  53.689  1.00  0.00     0.011 C 
HETATM   14  C1  UNL     1      22.563  -1.053  53.477  1.00  0.00     0.006 C 
ENDBRANCH   3  13
ENDBRANCH   1   2
BRANCH   1  15
HETATM   15  C5  UNL     1      24.000   3.123  50.581  1.00  0.00     0.363 C 
BRANCH  15  16
HETATM   16  N1  UNL     1      24.958   3.547  49.568  1.00  0.00     0.107 N 
HETATM   17  H8  UNL     1      24.389   3.764  48.705  1.00  0.00     0.316 HD
HETATM   18  H9  UNL     1      25.569   2.727  49.297  1.00  0.00     0.316 HD
ENDBRANCH  15  16
BRANCH  15  19
HETATM   19  C6  UNL     1      22.587   3.235  50.045  1.00  0.00     0.105 C 
BRANCH  19  20
HETATM   20  C7  UNL     1      21.616   2.420  50.839  1.00  0.00    -0.028 A 
HETATM   21  C8  UNL     1      21.283   2.792  52.128  1.00  0.00     0.009 A 
HETATM   22  C9  UNL     1      20.382   2.007  52.815  1.00  0.00     0.001 A 
HETATM   23  C10 UNL     1      19.783   0.861  52.296  1.00  0.00     0.002 A 
HETATM   24  C11 UNL     1      20.124   0.501  51.013  1.00  0.00     0.029 A 
HETATM   25  C12 UNL     1      21.037   1.290  50.304  1.00  0.00     0.032 A 
BRANCH  25  26
HETATM   26  N2  UNL     1      21.379   0.914  48.991  1.00  0.00    -0.399 N 
HETATM   27  H16 UNL     1      22.170   0.730  48.324  1.00  0.00     0.156 HD
HETATM   28  H17 UNL     1      20.733   0.675  48.186  1.00  0.00     0.156 HD
ENDBRANCH  25  26
ENDBRANCH  19  20
ENDBRANCH  15  19
ENDBRANCH   1  15
TORSDOF 7
ENDMDL
MODEL 8
REMARK VINA RESULT:      -7.1      1.857      5.566
REMARK  7 active torsions:
REMARK  status: ('A' for Active; 'I' for Inactive)
REMARK    1  A    between atoms: C2_2  and  C3_3 
REMARK    2  A    between atoms: C4_4  and  O1_5 
REMARK    3  A    between atoms: O1_5  and  C5_6 
REMARK    4  A    between atoms: C5_6  and  N1_7 
REMARK    5  A    between atoms: C5_6  and  C6_8 
REMARK    6  A    between atoms: C6_8  and  C7_9 
REMARK    7  A    between atoms: C12_14  and  N2_15 
ROOT
HETATM    1  O1  UNL     1      21.294   2.583  50.557  1.00  0.00    -0.320 OA
ENDROOT
BRANCH   1   2
HETATM    2  C4  UNL     1      22.583   3.081  50.492  1.00  0.00     0.054 C 
HETATM    3  C3  UNL     1      23.144   3.853  51.659  1.00  0.00     0.073 C 
HETATM    4  C18 UNL     1      24.549   3.353  51.766  1.00  0.00    -0.044 A 
HETATM    5  C15 UNL     1      25.400   3.856  50.657  1.00  0.00     0.134 A 
HETATM    6  C17 UNL     1      24.887   2.562  52.772  1.00  0.00     0.027 A 
HETATM    7  C14 UNL     1      24.771   3.451  49.363  1.00  0.00     0.061 C 
HETATM    8  N3  UNL     1      26.749   3.321  50.834  1.00  0.00    -0.305 N 
HETATM    9  C13 UNL     1      23.394   2.939  49.473  1.00  0.00     0.008 C 
HETATM   10  N4  UNL     1      27.167   2.471  51.890  1.00  0.00    -0.191 NA
HETATM   11  H22 UNL     1      27.391   3.640  50.077  1.00  0.00     0.183 HD
HETATM   12  C16 UNL     1      26.282   2.141  52.767  1.00  0.00     0.138 A 
BRANCH   3  13
HETATM   13  C2  UNL     1      23.087   5.312  51.271  1.00  0.00     0.011 C 
HETATM   14  C1  UNL     1      21.681   5.861  51.327  1.00  0.00     0.006 C 
ENDBRANCH   3  13
ENDBRANCH   1   2
BRANCH   1  15
HETATM   15  C5  UNL     1      20.756   2.054  51.757  1.00  0.00     0.363 C 
BRANCH  15  16
HETATM   16  N1  UNL     1      19.390   2.526  51.935  1.00  0.00     0.107 N 
HETATM   17  H8  UNL     1      19.450   3.337  52.610  1.00  0.00     0.316 HD
HETATM   18  H9  UNL     1      18.825   1.788  52.439  1.00  0.00     0.316 HD
ENDBRANCH  15  16
BRANCH  15  19
HETATM   19  C6  UNL     1      20.777   0.543  51.640  1.00  0.00     0.105 C 
BRANCH  19  20
HETATM   20  C7  UNL     1      21.494  -0.102  52.784  1.00  0.00    -0.028 A 
HETATM   21  C8  UNL     1      22.872  -0.052  52.861  1.00  0.00     0.009 A 
HETATM   22  C9  UNL     1      23.482  -0.663  53.936  1.00  0.00     0.001 A 
HETATM   23  C10 UNL     1      22.800  -1.328  54.954  1.00  0.00     0.002 A 
HETATM   24  C11 UNL     1      21.427  -1.371  54.864  1.00  0.00     0.029 A 
HETATM   25  C12 UNL     1      20.796  -0.755  53.778  1.00  0.00     0.032 A 
BRANCH  25  26
HETATM   26  N2  UNL     1      19.391  -0.804  53.695  1.00  0.00    -0.399 N 
HETATM   27  H16 UNL     1      18.547  -1.431  53.694  1.00  0.00     0.156 HD
HETATM   28  H17 UNL     1      18.711   0.000  53.588  1.00  0.00     0.156 HD
ENDBRANCH  25  26
ENDBRANCH  19  20
ENDBRANCH  15  19
ENDBRANCH   1  15
TORSDOF 7
ENDMDL
MODEL 9
REMARK VINA RESULT:      -7.1      2.786      5.123
REMARK  7 active torsions:
REMARK  status: ('A' for Active; 'I' for Inactive)
REMARK    1  A    between atoms: C2_2  and  C3_3 
REMARK    2  A    between atoms: C4_4  and  O1_5 
REMARK    3  A    between atoms: O1_5  and  C5_6 
REMARK    4  A    between atoms: C5_6  and  N1_7 
REMARK    5  A    between atoms: C5_6  and  C6_8 
REMARK    6  A    between atoms: C6_8  and  C7_9 
REMARK    7  A    between atoms: C12_14  and  N2_15 
ROOT
HETATM    1  O1  UNL     1      24.335   1.141  51.795  1.00  0.00    -0.320 OA
ENDROOT
BRANCH   1   2
HETATM    2  C4  UNL     1      24.740   2.223  51.033  1.00  0.00     0.054 C 
HETATM    3  C3  UNL     1      23.708   3.070  50.333  1.00  0.00     0.073 C 
HETATM    4  C18 UNL     1      24.207   4.466  50.537  1.00  0.00    -0.044 A 
HETATM    5  C15 UNL     1      25.412   4.746  49.714  1.00  0.00     0.134 A 
HETATM    6  C17 UNL     1      23.572   5.272  51.373  1.00  0.00     0.027 A 
HETATM    7  C14 UNL     1      26.458   3.735  50.054  1.00  0.00     0.061 C 
HETATM    8  N3  UNL     1      25.834   6.122  49.972  1.00  0.00    -0.305 N 
HETATM    9  C13 UNL     1      25.984   2.594  50.855  1.00  0.00     0.008 C 
HETATM   10  N4  UNL     1      25.194   7.029  50.855  1.00  0.00    -0.191 NA
HETATM   11  H22 UNL     1      26.682   6.374  49.420  1.00  0.00     0.183 HD
HETATM   12  C16 UNL     1      24.153   6.603  51.486  1.00  0.00     0.138 A 
BRANCH   3  13
HETATM   13  C2  UNL     1      23.736   2.661  48.880  1.00  0.00     0.011 C 
HETATM   14  C1  UNL     1      22.357   2.652  48.265  1.00  0.00     0.006 C 
ENDBRANCH   3  13
ENDBRANCH   1   2
BRANCH   1  15
HETATM   15  C5  UNL     1      25.101   0.671  52.891  1.00  0.00     0.363 C 
BRANCH  15  16
HETATM   16  N1  UNL     1      24.213   0.221  53.955  1.00  0.00     0.107 N 
HETATM   17  H8  UNL     1      23.671   1.076  54.259  1.00  0.00     0.316 HD
HETATM   18  H9  UNL     1      24.788  -0.055  54.799  1.00  0.00     0.316 HD
ENDBRANCH  15  16
BRANCH  15  19
HETATM   19  C6  UNL     1      25.950  -0.482  52.395  1.00  0.00     0.105 C 
BRANCH  19  20
HETATM   20  C7  UNL     1      27.366  -0.386  52.867  1.00  0.00    -0.028 A 
HETATM   21  C8  UNL     1      27.931   0.847  53.132  1.00  0.00     0.009 A 
HETATM   22  C9  UNL     1      29.239   0.880  53.565  1.00  0.00     0.001 A 
HETATM   23  C10 UNL     1      30.032  -0.251  53.755  1.00  0.00     0.002 A 
HETATM   24  C11 UNL     1      29.457  -1.472  53.486  1.00  0.00     0.029 A 
HETATM   25  C12 UNL     1      28.130  -1.519  53.046  1.00  0.00     0.032 A 
BRANCH  25  26
HETATM   26  N2  UNL     1      27.551  -2.773  52.775  1.00  0.00    -0.399 N 
HETATM   27  H16 UNL     1      27.647  -3.671  52.236  1.00  0.00     0.156 HD
HETATM   28  H17 UNL     1      26.655  -3.182  53.165  1.00  0.00     0.156 HD
ENDBRANCH  25  26
ENDBRANCH  19  20
ENDBRANCH  15  19
ENDBRANCH   1  15
TORSDOF 7
ENDMDL
