MODEL 1
REMARK VINA RESULT:      -8.0      0.000      0.000
REMARK  4 active torsions:
REMARK  status: ('A' for Active; 'I' for Inactive)
REMARK    1  A    between atoms: C2_2  and  N1_4 
REMARK    2  A    between atoms: C8_11  and  N4_12 
REMARK    3  A    between atoms: N4_12  and  C9_13 
REMARK    4  A    between atoms: C14_19  and  O1_20 
ROOT
HETATM    1  N1  UNL     1      20.822   0.842  52.542  1.00  0.00    -0.337 N 
HETATM    2  C4  UNL     1      19.933  -0.100  53.167  1.00  0.00     0.094 A 
HETATM    3  C5  UNL     1      20.446  -1.102  53.881  1.00  0.00     0.023 A 
HETATM    4  C6  UNL     1      21.848  -1.301  54.050  1.00  0.00     0.171 A 
HETATM    5  N2  UNL     1      22.302  -1.650  55.359  1.00  0.00    -0.269 NA
HETATM    6  C7  UNL     1      23.597  -1.414  55.640  1.00  0.00     0.230 C 
HETATM    7  N3  UNL     1      24.569  -0.832  54.791  1.00  0.00    -0.224 NA
HETATM    8  C8  UNL     1      24.240  -0.434  53.615  1.00  0.00     0.139 C 
HETATM    9  C15 UNL     1      22.767  -0.323  53.447  1.00  0.00     0.032 A 
HETATM   10  C16 UNL     1      22.231   0.676  52.723  1.00  0.00     0.109 A 
ENDROOT
BRANCH   8  11
HETATM   11  N4  UNL     1      25.030   0.143  52.595  1.00  0.00    -0.338 N 
HETATM   12  H10 UNL     1      24.714   0.342  51.628  1.00  0.00     0.167 HD
BRANCH  11  13
HETATM   13  C9  UNL     1      26.361   0.464  52.950  1.00  0.00     0.068 A 
HETATM   14  C10 UNL     1      27.426  -0.379  53.112  1.00  0.00     0.051 A 
HETATM   15  C11 UNL     1      28.687   0.032  53.475  1.00  0.00     0.013 A 
HETATM   16 BR1  UNL     1      30.107  -1.223  53.676  1.00  0.00    -0.051 Br
HETATM   17  C12 UNL     1      28.954   1.363  53.705  1.00  0.00     0.022 A 
HETATM   18  C13 UNL     1      27.917   2.258  53.557  1.00  0.00     0.040 A 
HETATM   19  C14 UNL     1      26.673   1.791  53.191  1.00  0.00     0.092 A 
BRANCH  19  20
HETATM   20  O1  UNL     1      25.688   2.761  53.065  1.00  0.00    -0.358 OA
HETATM   21  H14 UNL     1      25.030   2.777  52.296  1.00  0.00     0.217 HD
ENDBRANCH  19  20
ENDBRANCH  11  13
ENDBRANCH   8  11
BRANCH   1  22
HETATM   22  C2  UNL     1      20.270   1.898  51.771  1.00  0.00     0.002 C 
HETATM   23  C1  UNL     1      19.679   1.549  50.640  1.00  0.00     0.038 C 
HETATM   24  C3  UNL     1      20.352   3.319  52.206  1.00  0.00     0.068 C 
ENDBRANCH   1  22
TORSDOF 4
ENDMDL
MODEL 2
REMARK VINA RESULT:      -7.9      1.976      2.333
REMARK  4 active torsions:
REMARK  status: ('A' for Active; 'I' for Inactive)
REMARK    1  A    between atoms: C2_2  and  N1_4 
REMARK    2  A    between atoms: C8_11  and  N4_12 
REMARK    3  A    between atoms: N4_12  and  C9_13 
REMARK    4  A    between atoms: C14_19  and  O1_20 
ROOT
HETATM    1  N1  UNL     1      22.304   1.597  52.340  1.00  0.00    -0.337 N 
HETATM    2  C4  UNL     1      21.097   1.173  52.997  1.00  0.00     0.094 A 
HETATM    3  C5  UNL     1      21.135   0.113  53.805  1.00  0.00     0.023 A 
HETATM    4  C6  UNL     1      22.321  -0.642  54.046  1.00  0.00     0.171 A 
HETATM    5  N2  UNL     1      22.578  -1.035  55.394  1.00  0.00    -0.269 NA
HETATM    6  C7  UNL     1      23.850  -1.343  55.709  1.00  0.00     0.230 C 
HETATM    7  N3  UNL     1      24.982  -1.299  54.859  1.00  0.00    -0.224 NA
HETATM    8  C8  UNL     1      24.857  -0.902  53.644  1.00  0.00     0.139 C 
HETATM    9  C15 UNL     1      23.570  -0.196  53.408  1.00  0.00     0.032 A 
HETATM   10  C16 UNL     1      23.510   0.869  52.590  1.00  0.00     0.109 A 
ENDROOT
BRANCH   8  11
HETATM   11  N4  UNL     1      25.822  -0.800  52.616  1.00  0.00    -0.338 N 
HETATM   12  H10 UNL     1      25.626  -0.841  51.600  1.00  0.00     0.167 HD
BRANCH  11  13
HETATM   13  C9  UNL     1      27.162  -0.631  53.040  1.00  0.00     0.068 A 
HETATM   14  C10 UNL     1      27.779   0.509  53.476  1.00  0.00     0.051 A 
HETATM   15  C11 UNL     1      29.099   0.574  53.854  1.00  0.00     0.013 A 
HETATM   16 BR1  UNL     1      29.868   2.214  54.448  1.00  0.00    -0.051 Br
HETATM   17  C12 UNL     1      29.899  -0.545  53.813  1.00  0.00     0.022 A 
HETATM   18  C13 UNL     1      29.329  -1.723  53.381  1.00  0.00     0.040 A 
HETATM   19  C14 UNL     1      28.001  -1.732  53.013  1.00  0.00     0.092 A 
BRANCH  19  20
HETATM   20  O1  UNL     1      27.509  -2.959  52.591  1.00  0.00    -0.358 OA
HETATM   21  H14 UNL     1      26.592  -3.301  52.851  1.00  0.00     0.217 HD
ENDBRANCH  19  20
ENDBRANCH  11  13
ENDBRANCH   8  11
BRANCH   1  22
HETATM   22  C2  UNL     1      22.253   2.717  51.469  1.00  0.00     0.002 C 
HETATM   23  C1  UNL     1      22.585   2.493  50.209  1.00  0.00     0.038 C 
HETATM   24  C3  UNL     1      21.853   4.069  51.946  1.00  0.00     0.068 C 
ENDBRANCH   1  22
TORSDOF 4
ENDMDL
MODEL 3
REMARK VINA RESULT:      -7.8      3.666      5.299
REMARK  4 active torsions:
REMARK  status: ('A' for Active; 'I' for Inactive)
REMARK    1  A    between atoms: C2_2  and  N1_4 
REMARK    2  A    between atoms: C8_11  and  N4_12 
REMARK    3  A    between atoms: N4_12  and  C9_13 
REMARK    4  A    between atoms: C14_19  and  O1_20 
ROOT
HETATM    1  N1  UNL     1      24.118  -0.111  53.582  1.00  0.00    -0.337 N 
HETATM    2  C4  UNL     1      24.836  -0.666  54.698  1.00  0.00     0.094 A 
HETATM    3  C5  UNL     1      26.143  -0.426  54.814  1.00  0.00     0.023 A 
HETATM    4  C6  UNL     1      26.880   0.349  53.871  1.00  0.00     0.171 A 
HETATM    5  N2  UNL     1      27.823   1.285  54.395  1.00  0.00    -0.269 NA
HETATM    6  C7  UNL     1      28.190   2.299  53.590  1.00  0.00     0.230 C 
HETATM    7  N3  UNL     1      27.729   2.565  52.277  1.00  0.00    -0.224 NA
HETATM    8  C8  UNL     1      26.837   1.811  51.744  1.00  0.00     0.139 C 
HETATM    9  C15 UNL     1      26.149   0.952  52.745  1.00  0.00     0.032 A 
HETATM   10  C16 UNL     1      24.834   0.693  52.641  1.00  0.00     0.109 A 
ENDROOT
BRANCH   8  11
HETATM   11  N4  UNL     1      26.251   1.862  50.459  1.00  0.00    -0.338 N 
HETATM   12  H10 UNL     1      25.928   1.044  49.911  1.00  0.00     0.167 HD
BRANCH  11  13
HETATM   13  C9  UNL     1      26.108   3.152  49.895  1.00  0.00     0.068 A 
HETATM   14  C10 UNL     1      27.079   3.968  49.381  1.00  0.00     0.051 A 
HETATM   15  C11 UNL     1      26.839   5.219  48.865  1.00  0.00     0.013 A 
HETATM   16 BR1  UNL     1      28.261   6.283  48.172  1.00  0.00    -0.051 Br
HETATM   17  C12 UNL     1      25.564   5.736  48.837  1.00  0.00     0.022 A 
HETATM   18  C13 UNL     1      24.546   4.957  49.343  1.00  0.00     0.040 A 
HETATM   19  C14 UNL     1      24.843   3.710  49.848  1.00  0.00     0.092 A 
BRANCH  19  20
HETATM   20  O1  UNL     1      23.759   2.993  50.336  1.00  0.00    -0.358 OA
HETATM   21  H14 UNL     1      23.813   2.010  50.572  1.00  0.00     0.217 HD
ENDBRANCH  19  20
ENDBRANCH  11  13
ENDBRANCH   8  11
BRANCH   1  22
HETATM   22  C2  UNL     1      22.730  -0.382  53.457  1.00  0.00     0.002 C 
HETATM   23  C1  UNL     1      22.119   0.166  52.420  1.00  0.00     0.038 C 
HETATM   24  C3  UNL     1      22.001  -1.231  54.438  1.00  0.00     0.068 C 
ENDBRANCH   1  22
TORSDOF 4
ENDMDL
MODEL 4
REMARK VINA RESULT:      -7.6      3.810      5.490
REMARK  4 active torsions:
REMARK  status: ('A' for Active; 'I' for Inactive)
REMARK    1  A    between atoms: C2_2  and  N1_4 
REMARK    2  A    between atoms: C8_11  and  N4_12 
REMARK    3  A    between atoms: N4_12  and  C9_13 
REMARK    4  A    between atoms: C14_19  and  O1_20 
ROOT
HETATM    1  N1  UNL     1      24.191  -0.013  53.489  1.00  0.00    -0.337 N 
HETATM    2  C4  UNL     1      24.905  -0.686  54.540  1.00  0.00     0.094 A 
HETATM    3  C5  UNL     1      26.221  -0.502  54.654  1.00  0.00     0.023 A 
HETATM    4  C6  UNL     1      26.971   0.327  53.769  1.00  0.00     0.171 A 
HETATM    5  N2  UNL     1      27.953   1.182  54.356  1.00  0.00    -0.269 NA
HETATM    6  C7  UNL     1      28.344   2.250  53.635  1.00  0.00     0.230 C 
HETATM    7  N3  UNL     1      27.874   2.644  52.359  1.00  0.00    -0.224 NA
HETATM    8  C8  UNL     1      26.950   1.969  51.777  1.00  0.00     0.139 C 
HETATM    9  C15 UNL     1      26.247   1.051  52.712  1.00  0.00     0.032 A 
HETATM   10  C16 UNL     1      24.922   0.845  52.608  1.00  0.00     0.109 A 
ENDROOT
BRANCH   8  11
HETATM   11  N4  UNL     1      26.348   2.151  50.511  1.00  0.00    -0.338 N 
HETATM   12  H10 UNL     1      26.306   1.442  49.757  1.00  0.00     0.167 HD
BRANCH  11  13
HETATM   13  C9  UNL     1      25.764   3.419  50.281  1.00  0.00     0.068 A 
HETATM   14  C10 UNL     1      24.582   3.912  50.761  1.00  0.00     0.051 A 
HETATM   15  C11 UNL     1      24.091   5.161  50.465  1.00  0.00     0.013 A 
HETATM   16 BR1  UNL     1      22.429   5.757  51.185  1.00  0.00    -0.051 Br
HETATM   17  C12 UNL     1      24.788   6.014  49.639  1.00  0.00     0.022 A 
HETATM   18  C13 UNL     1      25.986   5.569  49.126  1.00  0.00     0.040 A 
HETATM   19  C14 UNL     1      26.432   4.307  49.455  1.00  0.00     0.092 A 
BRANCH  19  20
HETATM   20  O1  UNL     1      27.647   3.941  48.894  1.00  0.00    -0.358 OA
HETATM   21  H14 UNL     1      28.382   3.489  49.425  1.00  0.00     0.217 HD
ENDBRANCH  19  20
ENDBRANCH  11  13
ENDBRANCH   8  11
BRANCH   1  22
HETATM   22  C2  UNL     1      22.793  -0.226  53.364  1.00  0.00     0.002 C 
HETATM   23  C1  UNL     1      22.215   0.302  52.298  1.00  0.00     0.038 C 
HETATM   24  C3  UNL     1      22.019  -0.996  54.376  1.00  0.00     0.068 C 
ENDBRANCH   1  22
TORSDOF 4
ENDMDL
MODEL 5
REMARK VINA RESULT:      -7.4      4.890      7.113
REMARK  4 active torsions:
REMARK  status: ('A' for Active; 'I' for Inactive)
REMARK    1  A    between atoms: C2_2  and  N1_4 
REMARK    2  A    between atoms: C8_11  and  N4_12 
REMARK    3  A    between atoms: N4_12  and  C9_13 
REMARK    4  A    between atoms: C14_19  and  O1_20 
ROOT
HETATM    1  N1  UNL     1      26.637   1.329  52.941  1.00  0.00    -0.337 N 
HETATM    2  C4  UNL     1      25.592   0.476  53.439  1.00  0.00     0.094 A 
HETATM    3  C5  UNL     1      24.336   0.689  53.045  1.00  0.00     0.023 A 
HETATM    4  C6  UNL     1      23.966   1.740  52.155  1.00  0.00     0.171 A 
HETATM    5  N2  UNL     1      23.026   1.421  51.129  1.00  0.00    -0.269 NA
HETATM    6  C7  UNL     1      23.000   2.228  50.052  1.00  0.00     0.230 C 
HETATM    7  N3  UNL     1      23.819   3.355  49.801  1.00  0.00    -0.224 NA
HETATM    8  C8  UNL     1      24.732   3.685  50.642  1.00  0.00     0.139 C 
HETATM    9  C15 UNL     1      25.031   2.596  51.610  1.00  0.00     0.032 A 
HETATM   10  C16 UNL     1      26.290   2.372  52.025  1.00  0.00     0.109 A 
ENDROOT
BRANCH   8  11
HETATM   11  N4  UNL     1      25.641   4.768  50.620  1.00  0.00    -0.338 N 
HETATM   12  H10 UNL     1      26.616   4.743  50.971  1.00  0.00     0.167 HD
BRANCH  11  13
HETATM   13  C9  UNL     1      25.151   5.976  50.072  1.00  0.00     0.068 A 
HETATM   14  C10 UNL     1      25.204   6.405  48.774  1.00  0.00     0.051 A 
HETATM   15  C11 UNL     1      24.708   7.611  48.339  1.00  0.00     0.013 A 
HETATM   16 BR1  UNL     1      24.830   8.119  46.507  1.00  0.00    -0.051 Br
HETATM   17  C12 UNL     1      24.110   8.484  49.220  1.00  0.00     0.022 A 
HETATM   18  C13 UNL     1      24.029   8.104  50.542  1.00  0.00     0.040 A 
HETATM   19  C14 UNL     1      24.543   6.883  50.923  1.00  0.00     0.092 A 
BRANCH  19  20
HETATM   20  O1  UNL     1      24.420   6.581  52.272  1.00  0.00    -0.358 OA
HETATM   21  H14 UNL     1      25.218   6.488  52.888  1.00  0.00     0.217 HD
ENDBRANCH  19  20
ENDBRANCH  11  13
ENDBRANCH   8  11
BRANCH   1  22
HETATM   22  C2  UNL     1      27.970   1.106  53.375  1.00  0.00     0.002 C 
HETATM   23  C1  UNL     1      28.374  -0.153  53.401  1.00  0.00     0.038 C 
HETATM   24  C3  UNL     1      28.864   2.224  53.784  1.00  0.00     0.068 C 
ENDBRANCH   1  22
TORSDOF 4
ENDMDL
MODEL 6
REMARK VINA RESULT:      -7.3      4.184      6.583
REMARK  4 active torsions:
REMARK  status: ('A' for Active; 'I' for Inactive)
REMARK    1  A    between atoms: C2_2  and  N1_4 
REMARK    2  A    between atoms: C8_11  and  N4_12 
REMARK    3  A    between atoms: N4_12  and  C9_13 
REMARK    4  A    between atoms: C14_19  and  O1_20 
ROOT
HETATM    1  N1  UNL     1      26.486   0.938  53.763  1.00  0.00    -0.337 N 
HETATM    2  C4  UNL     1      25.853  -0.299  54.133  1.00  0.00     0.094 A 
HETATM    3  C5  UNL     1      24.543  -0.443  53.934  1.00  0.00     0.023 A 
HETATM    4  C6  UNL     1      23.721   0.582  53.380  1.00  0.00     0.171 A 
HETATM    5  N2  UNL     1      22.755   0.185  52.405  1.00  0.00    -0.269 NA
HETATM    6  C7  UNL     1      22.296   1.139  51.575  1.00  0.00     0.230 C 
HETATM    7  N3  UNL     1      22.679   2.502  51.536  1.00  0.00    -0.224 NA
HETATM    8  C8  UNL     1      23.583   2.939  52.336  1.00  0.00     0.139 C 
HETATM    9  C15 UNL     1      24.363   1.839  52.963  1.00  0.00     0.032 A 
HETATM   10  C16 UNL     1      25.684   1.968  53.180  1.00  0.00     0.109 A 
ENDROOT
BRANCH   8  11
HETATM   11  N4  UNL     1      24.104   4.243  52.498  1.00  0.00    -0.338 N 
HETATM   12  H10 UNL     1      24.601   4.593  53.336  1.00  0.00     0.167 HD
BRANCH  11  13
HETATM   13  C9  UNL     1      23.912   5.125  51.408  1.00  0.00     0.068 A 
HETATM   14  C10 UNL     1      22.850   5.950  51.158  1.00  0.00     0.051 A 
HETATM   15  C11 UNL     1      22.750   6.765  50.056  1.00  0.00     0.013 A 
HETATM   16 BR1  UNL     1      21.226   7.880  49.795  1.00  0.00    -0.051 Br
HETATM   17  C12 UNL     1      23.750   6.795  49.110  1.00  0.00     0.022 A 
HETATM   18  C13 UNL     1      24.845   5.983  49.311  1.00  0.00     0.040 A 
HETATM   19  C14 UNL     1      24.893   5.186  50.434  1.00  0.00     0.092 A 
BRANCH  19  20
HETATM   20  O1  UNL     1      26.031   4.401  50.557  1.00  0.00    -0.358 OA
HETATM   21  H14 UNL     1      26.746   4.578  51.251  1.00  0.00     0.217 HD
ENDBRANCH  19  20
ENDBRANCH  11  13
ENDBRANCH   8  11
BRANCH   1  22
HETATM   22  C2  UNL     1      27.879   1.090  53.991  1.00  0.00     0.002 C 
HETATM   23  C1  UNL     1      28.496   0.061  54.547  1.00  0.00     0.038 C 
HETATM   24  C3  UNL     1      28.606   2.338  53.630  1.00  0.00     0.068 C 
ENDBRANCH   1  22
TORSDOF 4
ENDMDL
MODEL 7
REMARK VINA RESULT:      -7.2      3.693      7.408
REMARK  4 active torsions:
REMARK  status: ('A' for Active; 'I' for Inactive)
REMARK    1  A    between atoms: C2_2  and  N1_4 
REMARK    2  A    between atoms: C8_11  and  N4_12 
REMARK    3  A    between atoms: N4_12  and  C9_13 
REMARK    4  A    between atoms: C14_19  and  O1_20 
ROOT
HETATM    1  N1  UNL     1      26.031   0.745  52.628  1.00  0.00    -0.337 N 
HETATM    2  C4  UNL     1      26.536   1.721  51.700  1.00  0.00     0.094 A 
HETATM    3  C5  UNL     1      25.677   2.509  51.054  1.00  0.00     0.023 A 
HETATM    4  C6  UNL     1      24.263   2.427  51.225  1.00  0.00     0.171 A 
HETATM    5  N2  UNL     1      23.549   3.659  51.330  1.00  0.00    -0.269 NA
HETATM    6  C7  UNL     1      22.337   3.615  51.915  1.00  0.00     0.230 C 
HETATM    7  N3  UNL     1      21.688   2.482  52.465  1.00  0.00    -0.224 NA
HETATM    8  C8  UNL     1      22.278   1.342  52.467  1.00  0.00     0.139 C 
HETATM    9  C15 UNL     1      23.736   1.458  52.199  1.00  0.00     0.032 A 
HETATM   10  C16 UNL     1      24.618   0.667  52.834  1.00  0.00     0.109 A 
ENDROOT
BRANCH   8  11
HETATM   11  N4  UNL     1      21.827   0.085  52.930  1.00  0.00    -0.338 N 
HETATM   12  H10 UNL     1      22.407  -0.620  53.421  1.00  0.00     0.167 HD
BRANCH  11  13
HETATM   13  C9  UNL     1      20.465  -0.212  52.686  1.00  0.00     0.068 A 
HETATM   14  C10 UNL     1      19.680   0.191  51.641  1.00  0.00     0.051 A 
HETATM   15  C11 UNL     1      18.354  -0.141  51.500  1.00  0.00     0.013 A 
HETATM   16 BR1  UNL     1      17.343   0.472  50.005  1.00  0.00    -0.051 Br
HETATM   17  C12 UNL     1      17.722  -0.926  52.438  1.00  0.00     0.022 A 
HETATM   18  C13 UNL     1      18.465  -1.361  53.513  1.00  0.00     0.040 A 
HETATM   19  C14 UNL     1      19.791  -0.998  53.605  1.00  0.00     0.092 A 
BRANCH  19  20
HETATM   20  O1  UNL     1      20.464  -1.479  54.719  1.00  0.00    -0.358 OA
HETATM   21  H14 UNL     1      20.417  -2.447  55.012  1.00  0.00     0.217 HD
ENDBRANCH  19  20
ENDBRANCH  11  13
ENDBRANCH   8  11
BRANCH   1  22
HETATM   22  C2  UNL     1      26.951  -0.100  53.302  1.00  0.00     0.002 C 
HETATM   23  C1  UNL     1      27.196  -1.269  52.733  1.00  0.00     0.038 C 
HETATM   24  C3  UNL     1      27.601   0.301  54.579  1.00  0.00     0.068 C 
ENDBRANCH   1  22
TORSDOF 4
ENDMDL
MODEL 8
REMARK VINA RESULT:      -7.1      3.633      5.879
REMARK  4 active torsions:
REMARK  status: ('A' for Active; 'I' for Inactive)
REMARK    1  A    between atoms: C2_2  and  N1_4 
REMARK    2  A    between atoms: C8_11  and  N4_12 
REMARK    3  A    between atoms: N4_12  and  C9_13 
REMARK    4  A    between atoms: C14_19  and  O1_20 
ROOT
HETATM    1  N1  UNL     1      26.055   0.864  53.667  1.00  0.00    -0.337 N 
HETATM    2  C4  UNL     1      25.437  -0.360  54.102  1.00  0.00     0.094 A 
HETATM    3  C5  UNL     1      24.128  -0.531  53.912  1.00  0.00     0.023 A 
HETATM    4  C6  UNL     1      23.294   0.453  53.305  1.00  0.00     0.171 A 
HETATM    5  N2  UNL     1      22.334  -0.007  52.353  1.00  0.00    -0.269 NA
HETATM    6  C7  UNL     1      21.863   0.897  51.474  1.00  0.00     0.230 C 
HETATM    7  N3  UNL     1      22.229   2.261  51.362  1.00  0.00    -0.224 NA
HETATM    8  C8  UNL     1      23.128   2.750  52.138  1.00  0.00     0.139 C 
HETATM    9  C15 UNL     1      23.921   1.694  52.822  1.00  0.00     0.032 A 
HETATM   10  C16 UNL     1      25.240   1.851  53.031  1.00  0.00     0.109 A 
ENDROOT
BRANCH   8  11
HETATM   11  N4  UNL     1      23.632   4.067  52.230  1.00  0.00    -0.338 N 
HETATM   12  H10 UNL     1      23.670   4.639  53.094  1.00  0.00     0.167 HD
BRANCH  11  13
HETATM   13  C9  UNL     1      24.116   4.630  51.026  1.00  0.00     0.068 A 
HETATM   14  C10 UNL     1      25.378   4.562  50.502  1.00  0.00     0.051 A 
HETATM   15  C11 UNL     1      25.757   5.159  49.323  1.00  0.00     0.013 A 
HETATM   16 BR1  UNL     1      27.543   5.007  48.676  1.00  0.00    -0.051 Br
HETATM   17  C12 UNL     1      24.852   5.884  48.580  1.00  0.00     0.022 A 
HETATM   18  C13 UNL     1      23.565   5.985  49.060  1.00  0.00     0.040 A 
HETATM   19  C14 UNL     1      23.240   5.367  50.248  1.00  0.00     0.092 A 
BRANCH  19  20
HETATM   20  O1  UNL     1      21.923   5.521  50.658  1.00  0.00    -0.358 OA
HETATM   21  H14 UNL     1      21.587   5.196  51.556  1.00  0.00     0.217 HD
ENDBRANCH  19  20
ENDBRANCH  11  13
ENDBRANCH   8  11
BRANCH   1  22
HETATM   22  C2  UNL     1      27.446   1.045  53.886  1.00  0.00     0.002 C 
HETATM   23  C1  UNL     1      28.074   0.059  54.505  1.00  0.00     0.038 C 
HETATM   24  C3  UNL     1      28.159   2.276  53.449  1.00  0.00     0.068 C 
ENDBRANCH   1  22
TORSDOF 4
ENDMDL
MODEL 9
REMARK VINA RESULT:      -6.9      5.270      7.178
REMARK  4 active torsions:
REMARK  status: ('A' for Active; 'I' for Inactive)
REMARK    1  A    between atoms: C2_2  and  N1_4 
REMARK    2  A    between atoms: C8_11  and  N4_12 
REMARK    3  A    between atoms: N4_12  and  C9_13 
REMARK    4  A    between atoms: C14_19  and  O1_20 
ROOT
HETATM    1  N1  UNL     1      26.416   1.068  52.666  1.00  0.00    -0.337 N 
HETATM    2  C4  UNL     1      25.149   0.712  53.245  1.00  0.00     0.094 A 
HETATM    3  C5  UNL     1      24.039   1.291  52.786  1.00  0.00     0.023 A 
HETATM    4  C6  UNL     1      24.041   2.267  51.747  1.00  0.00     0.171 A 
HETATM    5  N2  UNL     1      23.030   2.154  50.746  1.00  0.00    -0.269 NA
HETATM    6  C7  UNL     1      23.266   2.758  49.566  1.00  0.00     0.230 C 
HETATM    7  N3  UNL     1      24.423   3.483  49.188  1.00  0.00    -0.224 NA
HETATM    8  C8  UNL     1      25.409   3.589  50.002  1.00  0.00     0.139 C 
HETATM    9  C15 UNL     1      25.328   2.613  51.121  1.00  0.00     0.032 A 
HETATM   10  C16 UNL     1      26.436   2.026  51.604  1.00  0.00     0.109 A 
ENDROOT
BRANCH   8  11
HETATM   11  N4  UNL     1      26.638   4.274  49.860  1.00  0.00    -0.338 N 
HETATM   12  H10 UNL     1      27.538   3.992  50.289  1.00  0.00     0.167 HD
BRANCH  11  13
HETATM   13  C9  UNL     1      26.607   5.440  49.060  1.00  0.00     0.068 A 
HETATM   14  C10 UNL     1      25.522   6.177  48.671  1.00  0.00     0.051 A 
HETATM   15  C11 UNL     1      25.595   7.296  47.876  1.00  0.00     0.013 A 
HETATM   16 BR1  UNL     1      24.023   8.256  47.388  1.00  0.00    -0.051 Br
HETATM   17  C12 UNL     1      26.808   7.749  47.409  1.00  0.00     0.022 A 
HETATM   18  C13 UNL     1      27.936   7.044  47.769  1.00  0.00     0.040 A 
HETATM   19  C14 UNL     1      27.805   5.930  48.569  1.00  0.00     0.092 A 
BRANCH  19  20
HETATM   20  O1  UNL     1      28.991   5.281  48.883  1.00  0.00    -0.358 OA
HETATM   21  H14 UNL     1      29.026   4.457  49.471  1.00  0.00     0.217 HD
ENDBRANCH  19  20
ENDBRANCH  11  13
ENDBRANCH   8  11
BRANCH   1  22
HETATM   22  C2  UNL     1      27.595   0.459  53.169  1.00  0.00     0.002 C 
HETATM   23  C1  UNL     1      27.667  -0.857  53.057  1.00  0.00     0.038 C 
HETATM   24  C3  UNL     1      28.689   1.253  53.793  1.00  0.00     0.068 C 
ENDBRANCH   1  22
TORSDOF 4
ENDMDL
