MODEL 1
REMARK VINA RESULT:      -7.0      0.000      0.000
REMARK  3 active torsions:
REMARK  status: ('A' for Active; 'I' for Inactive)
REMARK    1  A    between atoms: O1_2  and  C2_3 
REMARK    2  A    between atoms: C8_11  and  N3_12 
REMARK    3  A    between atoms: C15_19  and  O2_20 
ROOT
HETATM    1  C2  UNL     1      24.545   3.756  50.868  1.00  0.00     0.097 A 
HETATM    2  C3  UNL     1      25.508   2.850  50.791  1.00  0.00     0.014 A 
HETATM    3  C4  UNL     1      26.030   1.735  51.628  1.00  0.00     0.053 A 
HETATM    4  C5  UNL     1      25.240   1.594  52.938  1.00  0.00     0.058 A 
HETATM    5  C6  UNL     1      26.221   1.848  53.990  1.00  0.00     0.109 A 
HETATM    6  N1  UNL     1      26.584   0.986  54.876  1.00  0.00    -0.257 NA
HETATM    7  C7  UNL     1      26.005  -0.330  54.864  1.00  0.00     0.228 A 
HETATM    8  N2  UNL     1      25.163  -0.588  53.982  1.00  0.00    -0.255 NA
HETATM    9  C8  UNL     1      24.675   0.248  52.961  1.00  0.00     0.230 A 
HETATM   10  C14 UNL     1      24.192   2.671  52.894  1.00  0.00     0.032 A 
HETATM   11  C15 UNL     1      23.776   3.647  52.104  1.00  0.00     0.098 A 
ENDROOT
BRANCH   9  12
HETATM   12  N3  UNL     1      23.214   0.205  53.074  1.00  0.00    -0.341 N 
HETATM   13  C9  UNL     1      22.524  -0.010  54.303  1.00  0.00     0.105 C 
HETATM   14  C10 UNL     1      21.252  -0.286  54.357  1.00  0.00    -0.009 C 
HETATM   15  C11 UNL     1      20.416   0.099  53.436  1.00  0.00     0.015 C 
HETATM   16  C12 UNL     1      21.017   0.324  52.127  1.00  0.00     0.018 C 
HETATM   17  C13 UNL     1      22.332   0.375  51.960  1.00  0.00     0.092 C 
ENDBRANCH   9  12
BRANCH  11  18
HETATM   18  O2  UNL     1      22.707   4.426  52.510  1.00  0.00    -0.353 OA
HETATM   19  C16 UNL     1      21.412   4.059  52.085  1.00  0.00     0.210 C 
ENDBRANCH  11  18
BRANCH   1  20
HETATM   20  O1  UNL     1      24.168   4.760  49.986  1.00  0.00    -0.353 OA
HETATM   21  C1  UNL     1      23.362   4.593  48.856  1.00  0.00     0.210 C 
ENDBRANCH   1  20
TORSDOF 3
ENDMDL
MODEL 2
REMARK VINA RESULT:      -6.9      1.516      2.206
REMARK  3 active torsions:
REMARK  status: ('A' for Active; 'I' for Inactive)
REMARK    1  A    between atoms: O1_2  and  C2_3 
REMARK    2  A    between atoms: C8_11  and  N3_12 
REMARK    3  A    between atoms: C15_19  and  O2_20 
ROOT
HETATM    1  C2  UNL     1      24.966   2.844  50.986  1.00  0.00     0.097 A 
HETATM    2  C3  UNL     1      26.101   2.198  50.763  1.00  0.00     0.014 A 
HETATM    3  C4  UNL     1      27.086   1.415  51.558  1.00  0.00     0.053 A 
HETATM    4  C5  UNL     1      26.680   1.331  53.038  1.00  0.00     0.058 A 
HETATM    5  C6  UNL     1      27.762   2.002  53.756  1.00  0.00     0.109 A 
HETATM    6  N1  UNL     1      28.539   1.431  54.610  1.00  0.00    -0.257 NA
HETATM    7  C7  UNL     1      28.362   0.035  54.906  1.00  0.00     0.228 A 
HETATM    8  N2  UNL     1      27.450  -0.576  54.315  1.00  0.00    -0.255 NA
HETATM    9  C8  UNL     1      26.533  -0.084  53.368  1.00  0.00     0.230 A 
HETATM   10  C14 UNL     1      25.392   2.098  53.146  1.00  0.00     0.032 A 
HETATM   11  C15 UNL     1      24.554   2.783  52.385  1.00  0.00     0.098 A 
ENDROOT
BRANCH   9  12
HETATM   12  N3  UNL     1      25.206  -0.455  53.867  1.00  0.00    -0.341 N 
HETATM   13  C9  UNL     1      24.037  -0.490  53.051  1.00  0.00     0.105 C 
HETATM   14  C10 UNL     1      22.836  -0.582  53.547  1.00  0.00    -0.009 C 
HETATM   15  C11 UNL     1      22.597  -1.149  54.694  1.00  0.00     0.015 C 
HETATM   16  C12 UNL     1      23.724  -1.146  55.618  1.00  0.00     0.018 C 
HETATM   17  C13 UNL     1      24.949  -0.820  55.227  1.00  0.00     0.092 C 
ENDBRANCH   9  12
BRANCH  11  18
HETATM   18  O2  UNL     1      23.430   3.343  52.964  1.00  0.00    -0.353 OA
HETATM   19  C16 UNL     1      23.365   4.748  53.077  1.00  0.00     0.210 C 
ENDBRANCH  11  18
BRANCH   1  20
HETATM   20  O1  UNL     1      24.137   3.548  50.122  1.00  0.00    -0.353 OA
HETATM   21  C1  UNL     1      23.054   3.016  49.417  1.00  0.00     0.210 C 
ENDBRANCH   1  20
TORSDOF 3
ENDMDL
MODEL 3
REMARK VINA RESULT:      -6.7      2.820      4.678
REMARK  3 active torsions:
REMARK  status: ('A' for Active; 'I' for Inactive)
REMARK    1  A    between atoms: O1_2  and  C2_3 
REMARK    2  A    between atoms: C8_11  and  N3_12 
REMARK    3  A    between atoms: C15_19  and  O2_20 
ROOT
HETATM    1  C2  UNL     1      26.429   1.018  54.187  1.00  0.00     0.097 A 
HETATM    2  C3  UNL     1      25.950   2.230  53.954  1.00  0.00     0.014 A 
HETATM    3  C4  UNL     1      24.861   2.838  53.140  1.00  0.00     0.053 A 
HETATM    4  C5  UNL     1      24.079   1.771  52.358  1.00  0.00     0.058 A 
HETATM    5  C6  UNL     1      24.296   2.110  50.954  1.00  0.00     0.109 A 
HETATM    6  N1  UNL     1      23.368   2.460  50.132  1.00  0.00    -0.257 NA
HETATM    7  C7  UNL     1      22.008   2.535  50.590  1.00  0.00     0.228 A 
HETATM    8  N2  UNL     1      21.778   2.254  51.782  1.00  0.00    -0.255 NA
HETATM    9  C8  UNL     1      22.684   1.858  52.783  1.00  0.00     0.230 A 
HETATM   10  C14 UNL     1      24.721   0.459  52.712  1.00  0.00     0.032 A 
HETATM   11  C15 UNL     1      25.705  -0.018  53.456  1.00  0.00     0.098 A 
ENDROOT
BRANCH   9  12
HETATM   12  N3  UNL     1      22.143   0.617  53.343  1.00  0.00    -0.341 N 
HETATM   13  C9  UNL     1      21.097  -0.135  52.731  1.00  0.00     0.105 C 
HETATM   14  C10 UNL     1      20.463  -1.090  53.349  1.00  0.00    -0.009 C 
HETATM   15  C11 UNL     1      21.008  -1.782  54.308  1.00  0.00     0.015 C 
HETATM   16  C12 UNL     1      22.078  -1.093  55.020  1.00  0.00     0.018 C 
HETATM   17  C13 UNL     1      22.610   0.033  54.564  1.00  0.00     0.092 C 
ENDBRANCH   9  12
BRANCH  11  18
HETATM   18  O2  UNL     1      25.936  -1.382  53.466  1.00  0.00    -0.353 OA
HETATM   19  C16 UNL     1      26.857  -1.911  52.537  1.00  0.00     0.210 C 
ENDBRANCH  11  18
BRANCH   1  20
HETATM   20  O1  UNL     1      27.479   0.594  54.992  1.00  0.00    -0.353 OA
HETATM   21  C1  UNL     1      28.820   0.514  54.608  1.00  0.00     0.210 C 
ENDBRANCH   1  20
TORSDOF 3
ENDMDL
MODEL 4
REMARK VINA RESULT:      -6.7      1.656      4.144
REMARK  3 active torsions:
REMARK  status: ('A' for Active; 'I' for Inactive)
REMARK    1  A    between atoms: O1_2  and  C2_3 
REMARK    2  A    between atoms: C8_11  and  N3_12 
REMARK    3  A    between atoms: C15_19  and  O2_20 
ROOT
HETATM    1  C2  UNL     1      23.539   4.644  50.682  1.00  0.00     0.097 A 
HETATM    2  C3  UNL     1      22.599   4.363  51.572  1.00  0.00     0.014 A 
HETATM    3  C4  UNL     1      22.095   3.158  52.286  1.00  0.00     0.053 A 
HETATM    4  C5  UNL     1      22.873   1.896  51.883  1.00  0.00     0.058 A 
HETATM    5  C6  UNL     1      21.874   1.026  51.266  1.00  0.00     0.109 A 
HETATM    6  N1  UNL     1      21.522  -0.125  51.723  1.00  0.00    -0.257 NA
HETATM    7  C7  UNL     1      22.132  -0.628  52.924  1.00  0.00     0.228 A 
HETATM    8  N2  UNL     1      22.991   0.082  53.483  1.00  0.00    -0.255 NA
HETATM    9  C8  UNL     1      23.470   1.348  53.098  1.00  0.00     0.230 A 
HETATM   10  C14 UNL     1      23.895   2.354  50.881  1.00  0.00     0.032 A 
HETATM   11  C15 UNL     1      24.297   3.462  50.279  1.00  0.00     0.098 A 
ENDROOT
BRANCH   9  12
HETATM   12  N3  UNL     1      24.930   1.226  53.055  1.00  0.00    -0.341 N 
HETATM   13  C9  UNL     1      25.820   2.166  53.654  1.00  0.00     0.105 C 
HETATM   14  C10 UNL     1      27.098   2.181  53.406  1.00  0.00    -0.009 C 
HETATM   15  C11 UNL     1      27.752   1.113  53.048  1.00  0.00     0.015 C 
HETATM   16  C12 UNL     1      26.937   0.093  52.399  1.00  0.00     0.018 C 
HETATM   17  C13 UNL     1      25.612   0.148  52.404  1.00  0.00     0.092 C 
ENDBRANCH   9  12
BRANCH  11  18
HETATM   18  O2  UNL     1      25.341   3.391  49.375  1.00  0.00    -0.353 OA
HETATM   19  C16 UNL     1      26.660   3.368  49.877  1.00  0.00     0.210 C 
ENDBRANCH  11  18
BRANCH   1  20
HETATM   20  O1  UNL     1      23.903   5.847  50.092  1.00  0.00    -0.353 OA
HETATM   21  C1  UNL     1      24.869   6.734  50.575  1.00  0.00     0.210 C 
ENDBRANCH   1  20
TORSDOF 3
ENDMDL
MODEL 5
REMARK VINA RESULT:      -6.5      2.032      3.079
REMARK  3 active torsions:
REMARK  status: ('A' for Active; 'I' for Inactive)
REMARK    1  A    between atoms: O1_2  and  C2_3 
REMARK    2  A    between atoms: C8_11  and  N3_12 
REMARK    3  A    between atoms: C15_19  and  O2_20 
ROOT
HETATM    1  C2  UNL     1      25.800   1.640  52.265  1.00  0.00     0.097 A 
HETATM    2  C3  UNL     1      25.815   0.318  52.331  1.00  0.00     0.014 A 
HETATM    3  C4  UNL     1      24.940  -0.760  52.868  1.00  0.00     0.053 A 
HETATM    4  C5  UNL     1      23.675  -0.186  53.525  1.00  0.00     0.058 A 
HETATM    5  C6  UNL     1      23.768  -0.595  54.924  1.00  0.00     0.109 A 
HETATM    6  N1  UNL     1      22.933  -1.377  55.516  1.00  0.00    -0.257 NA
HETATM    7  C7  UNL     1      21.816  -1.907  54.783  1.00  0.00     0.228 A 
HETATM    8  N2  UNL     1      21.699  -1.583  53.585  1.00  0.00    -0.255 NA
HETATM    9  C8  UNL     1      22.527  -0.744  52.816  1.00  0.00     0.230 A 
HETATM   10  C14 UNL     1      23.788   1.306  53.380  1.00  0.00     0.032 A 
HETATM   11  C15 UNL     1      24.609   2.216  52.882  1.00  0.00     0.098 A 
ENDROOT
BRANCH   9  12
HETATM   12  N3  UNL     1      21.637   0.257  52.221  1.00  0.00    -0.341 N 
HETATM   13  C9  UNL     1      21.626   0.576  50.830  1.00  0.00     0.105 C 
HETATM   14  C10 UNL     1      21.014   1.623  50.354  1.00  0.00    -0.009 C 
HETATM   15  C11 UNL     1      19.982   2.155  50.943  1.00  0.00     0.015 C 
HETATM   16  C12 UNL     1      19.910   1.909  52.378  1.00  0.00     0.018 C 
HETATM   17  C13 UNL     1      20.687   1.017  52.975  1.00  0.00     0.092 C 
ENDBRANCH   9  12
BRANCH  11  18
HETATM   18  O2  UNL     1      24.271   3.553  52.992  1.00  0.00    -0.353 OA
HETATM   19  C16 UNL     1      23.096   4.001  52.352  1.00  0.00     0.210 C 
ENDBRANCH  11  18
BRANCH   1  20
HETATM   20  O1  UNL     1      26.712   2.534  51.718  1.00  0.00    -0.353 OA
HETATM   21  C1  UNL     1      26.603   3.149  50.468  1.00  0.00     0.210 C 
ENDBRANCH   1  20
TORSDOF 3
ENDMDL
MODEL 6
REMARK VINA RESULT:      -6.4      2.305      4.883
REMARK  3 active torsions:
REMARK  status: ('A' for Active; 'I' for Inactive)
REMARK    1  A    between atoms: O1_2  and  C2_3 
REMARK    2  A    between atoms: C8_11  and  N3_12 
REMARK    3  A    between atoms: C15_19  and  O2_20 
ROOT
HETATM    1  C2  UNL     1      22.617  -0.953  54.653  1.00  0.00     0.097 A 
HETATM    2  C3  UNL     1      23.698  -1.010  55.417  1.00  0.00     0.014 A 
HETATM    3  C4  UNL     1      25.165  -0.827  55.249  1.00  0.00     0.053 A 
HETATM    4  C5  UNL     1      25.529  -0.478  53.798  1.00  0.00     0.058 A 
HETATM    5  C6  UNL     1      26.373  -1.585  53.352  1.00  0.00     0.109 A 
HETATM    6  N1  UNL     1      27.608  -1.470  53.003  1.00  0.00    -0.257 NA
HETATM    7  C7  UNL     1      28.238  -0.179  53.040  1.00  0.00     0.228 A 
HETATM    8  N2  UNL     1      27.553   0.794  53.414  1.00  0.00    -0.255 NA
HETATM    9  C8  UNL     1      26.206   0.816  53.819  1.00  0.00     0.230 A 
HETATM   10  C14 UNL     1      24.225  -0.448  53.051  1.00  0.00     0.032 A 
HETATM   11  C15 UNL     1      22.931  -0.623  53.266  1.00  0.00     0.098 A 
ENDROOT
BRANCH   9  12
HETATM   12  N3  UNL     1      25.562   1.851  53.005  1.00  0.00    -0.341 N 
HETATM   13  C9  UNL     1      25.825   2.039  51.616  1.00  0.00     0.105 C 
HETATM   14  C10 UNL     1      25.438   3.099  50.964  1.00  0.00    -0.009 C 
HETATM   15  C11 UNL     1      24.397   3.795  51.321  1.00  0.00     0.015 C 
HETATM   16  C12 UNL     1      24.055   3.693  52.734  1.00  0.00     0.018 C 
HETATM   17  C13 UNL     1      24.602   2.778  53.523  1.00  0.00     0.092 C 
ENDBRANCH   9  12
BRANCH  11  18
HETATM   18  O2  UNL     1      22.053  -0.483  52.207  1.00  0.00    -0.353 OA
HETATM   19  C16 UNL     1      21.947   0.781  51.588  1.00  0.00     0.210 C 
ENDBRANCH  11  18
BRANCH   1  20
HETATM   20  O1  UNL     1      21.277  -1.153  54.957  1.00  0.00    -0.353 OA
HETATM   21  C1  UNL     1      20.371  -1.900  54.199  1.00  0.00     0.210 C 
ENDBRANCH   1  20
TORSDOF 3
ENDMDL
MODEL 7
REMARK VINA RESULT:      -6.2      2.408      4.900
REMARK  3 active torsions:
REMARK  status: ('A' for Active; 'I' for Inactive)
REMARK    1  A    between atoms: O1_2  and  C2_3 
REMARK    2  A    between atoms: C8_11  and  N3_12 
REMARK    3  A    between atoms: C15_19  and  O2_20 
ROOT
HETATM    1  C2  UNL     1      20.219   0.605  51.417  1.00  0.00     0.097 A 
HETATM    2  C3  UNL     1      20.565   0.800  52.681  1.00  0.00     0.014 A 
HETATM    3  C4  UNL     1      21.812   1.091  53.440  1.00  0.00     0.053 A 
HETATM    4  C5  UNL     1      23.030   1.194  52.507  1.00  0.00     0.058 A 
HETATM    5  C6  UNL     1      23.914   0.112  52.934  1.00  0.00     0.109 A 
HETATM    6  N1  UNL     1      25.093   0.279  53.425  1.00  0.00    -0.257 NA
HETATM    7  C7  UNL     1      25.614   1.610  53.579  1.00  0.00     0.228 A 
HETATM    8  N2  UNL     1      24.892   2.563  53.227  1.00  0.00    -0.255 NA
HETATM    9  C8  UNL     1      23.596   2.529  52.679  1.00  0.00     0.230 A 
HETATM   10  C14 UNL     1      22.498   0.954  51.122  1.00  0.00     0.032 A 
HETATM   11  C15 UNL     1      21.356   0.696  50.507  1.00  0.00     0.098 A 
ENDROOT
BRANCH   9  12
HETATM   12  N3  UNL     1      23.663   3.322  51.449  1.00  0.00    -0.341 N 
HETATM   13  C9  UNL     1      24.717   3.212  50.495  1.00  0.00     0.105 C 
HETATM   14  C10 UNL     1      24.895   4.080  49.540  1.00  0.00    -0.009 C 
HETATM   15  C11 UNL     1      23.916   4.782  49.045  1.00  0.00     0.015 C 
HETATM   16  C12 UNL     1      22.791   4.977  49.952  1.00  0.00     0.018 C 
HETATM   17  C13 UNL     1      22.674   4.289  51.080  1.00  0.00     0.092 C 
ENDBRANCH   9  12
BRANCH  11  18
HETATM   18  O2  UNL     1      21.356   0.547  49.131  1.00  0.00    -0.353 OA
HETATM   19  C16 UNL     1      21.859   1.604  48.344  1.00  0.00     0.210 C 
ENDBRANCH  11  18
BRANCH   1  20
HETATM   20  O1  UNL     1      18.982   0.335  50.845  1.00  0.00    -0.353 OA
HETATM   21  C1  UNL     1      17.922  -0.327  51.468  1.00  0.00     0.210 C 
ENDBRANCH   1  20
TORSDOF 3
ENDMDL
MODEL 8
REMARK VINA RESULT:      -6.2      2.512      4.538
REMARK  3 active torsions:
REMARK  status: ('A' for Active; 'I' for Inactive)
REMARK    1  A    between atoms: O1_2  and  C2_3 
REMARK    2  A    between atoms: C8_11  and  N3_12 
REMARK    3  A    between atoms: C15_19  and  O2_20 
ROOT
HETATM    1  C2  UNL     1      25.012   1.661  53.225  1.00  0.00     0.097 A 
HETATM    2  C3  UNL     1      24.554   0.422  53.127  1.00  0.00     0.014 A 
HETATM    3  C4  UNL     1      23.245  -0.244  52.885  1.00  0.00     0.053 A 
HETATM    4  C5  UNL     1      22.116   0.782  52.696  1.00  0.00     0.058 A 
HETATM    5  C6  UNL     1      21.194   0.524  53.799  1.00  0.00     0.109 A 
HETATM    6  N1  UNL     1      19.976   0.129  53.660  1.00  0.00    -0.257 NA
HETATM    7  C7  UNL     1      19.448  -0.085  52.340  1.00  0.00     0.228 A 
HETATM    8  N2  UNL     1      20.201   0.124  51.369  1.00  0.00    -0.255 NA
HETATM    9  C8  UNL     1      21.541   0.555  51.373  1.00  0.00     0.230 A 
HETATM   10  C14 UNL     1      22.769   2.129  52.830  1.00  0.00     0.032 A 
HETATM   11  C15 UNL     1      23.961   2.659  53.050  1.00  0.00     0.098 A 
ENDROOT
BRANCH   9  12
HETATM   12  N3  UNL     1      21.587   1.719  50.483  1.00  0.00    -0.341 N 
HETATM   13  C9  UNL     1      22.630   1.947  49.537  1.00  0.00     0.105 C 
HETATM   14  C10 UNL     1      22.791   3.089  48.930  1.00  0.00    -0.009 C 
HETATM   15  C11 UNL     1      21.802   3.908  48.713  1.00  0.00     0.015 C 
HETATM   16  C12 UNL     1      20.689   3.775  49.645  1.00  0.00     0.018 C 
HETATM   17  C13 UNL     1      20.590   2.745  50.474  1.00  0.00     0.092 C 
ENDBRANCH   9  12
BRANCH  11  18
HETATM   18  O2  UNL     1      24.083   4.036  53.089  1.00  0.00    -0.353 OA
HETATM   19  C16 UNL     1      23.268   4.805  52.232  1.00  0.00     0.210 C 
ENDBRANCH  11  18
BRANCH   1  20
HETATM   20  O1  UNL     1      26.294   2.141  53.460  1.00  0.00    -0.353 OA
HETATM   21  C1  UNL     1      27.370   2.063  52.573  1.00  0.00     0.210 C 
ENDBRANCH   1  20
TORSDOF 3
ENDMDL
MODEL 9
REMARK VINA RESULT:      -5.9      3.233      4.993
REMARK  3 active torsions:
REMARK  status: ('A' for Active; 'I' for Inactive)
REMARK    1  A    between atoms: O1_2  and  C2_3 
REMARK    2  A    between atoms: C8_11  and  N3_12 
REMARK    3  A    between atoms: C15_19  and  O2_20 
ROOT
HETATM    1  C2  UNL     1      28.100  -0.035  53.798  1.00  0.00     0.097 A 
HETATM    2  C3  UNL     1      27.969   1.274  53.951  1.00  0.00     0.014 A 
HETATM    3  C4  UNL     1      27.105   2.357  53.406  1.00  0.00     0.053 A 
HETATM    4  C5  UNL     1      26.090   1.813  52.390  1.00  0.00     0.058 A 
HETATM    5  C6  UNL     1      26.430   2.478  51.135  1.00  0.00     0.109 A 
HETATM    6  N1  UNL     1      25.653   3.285  50.499  1.00  0.00    -0.257 NA
HETATM    7  C7  UNL     1      24.349   3.578  51.029  1.00  0.00     0.228 A 
HETATM    8  N2  UNL     1      24.018   3.030  52.098  1.00  0.00    -0.255 NA
HETATM    9  C8  UNL     1      24.757   2.135  52.893  1.00  0.00     0.230 A 
HETATM   10  C14 UNL     1      26.348   0.334  52.314  1.00  0.00     0.032 A 
HETATM   11  C15 UNL     1      27.148  -0.582  52.837  1.00  0.00     0.098 A 
ENDROOT
BRANCH   9  12
HETATM   12  N3  UNL     1      23.888   0.972  53.097  1.00  0.00    -0.341 N 
HETATM   13  C9  UNL     1      22.909   0.543  52.152  1.00  0.00     0.105 C 
HETATM   14  C10 UNL     1      21.988  -0.331  52.441  1.00  0.00    -0.009 C 
HETATM   15  C11 UNL     1      22.154  -1.241  53.357  1.00  0.00     0.015 C 
HETATM   16  C12 UNL     1      23.120  -0.891  54.391  1.00  0.00     0.018 C 
HETATM   17  C13 UNL     1      23.935   0.148  54.266  1.00  0.00     0.092 C 
ENDBRANCH   9  12
BRANCH  11  18
HETATM   18  O2  UNL     1      27.006  -1.899  52.438  1.00  0.00    -0.353 OA
HETATM   19  C16 UNL     1      25.884  -2.243  51.654  1.00  0.00     0.210 C 
ENDBRANCH  11  18
BRANCH   1  20
HETATM   20  O1  UNL     1      28.975  -0.936  54.390  1.00  0.00    -0.353 OA
HETATM   21  C1  UNL     1      30.300  -1.159  54.006  1.00  0.00     0.210 C 
ENDBRANCH   1  20
TORSDOF 3
ENDMDL
