MODEL 1
REMARK VINA RESULT:      -8.1      0.000      0.000
REMARK  4 active torsions:
REMARK  status: ('A' for Active; 'I' for Inactive)
REMARK    1  A    between atoms: O1_2  and  C2_3 
REMARK    2  A    between atoms: C6_9  and  S1_10 
REMARK    3  A    between atoms: S1_10  and  C7_11 
REMARK    4  A    between atoms: C15_20  and  O2_21 
ROOT
HETATM    1  C2  UNL     1      19.928  -0.238  52.691  1.00  0.00     0.103 A 
HETATM    2  C3  UNL     1      20.379  -0.885  53.826  1.00  0.00     0.072 A 
HETATM    3  C4  UNL     1      21.752  -0.818  54.085  1.00  0.00     0.074 A 
HETATM    4  N1  UNL     1      22.195  -1.458  55.206  1.00  0.00    -0.241 NA
HETATM    5  C5  UNL     1      23.524  -1.390  55.451  1.00  0.00     0.234 A 
HETATM    6  N2  UNL     1      24.404  -0.732  54.651  1.00  0.00    -0.234 NA
HETATM    7  C6  UNL     1      23.965  -0.091  53.530  1.00  0.00     0.112 A 
HETATM    8  C13 UNL     1      22.616  -0.141  53.250  1.00  0.00     0.031 A 
HETATM    9  C14 UNL     1      22.101   0.482  52.137  1.00  0.00     0.056 A 
HETATM   10  C15 UNL     1      20.753   0.452  51.826  1.00  0.00     0.102 A 
ENDROOT
BRANCH   7  11
HETATM   11  S1  UNL     1      25.033   0.802  52.413  1.00  0.00    -0.070 SA
BRANCH  11  12
HETATM   12  C7  UNL     1      26.726   0.785  52.964  1.00  0.00     0.008 A 
HETATM   13  C8  UNL     1      27.320   1.975  53.377  1.00  0.00     0.019 A 
HETATM   14  C9  UNL     1      28.631   1.824  53.778  1.00  0.00     0.003 A 
HETATM   15  C10 UNL     1      29.373   0.663  53.804  1.00  0.00     0.024 A 
HETATM   16  C11 UNL     1      28.683  -0.471  53.368  1.00  0.00     0.035 A 
HETATM   17 CL1  UNL     1      29.532  -2.025  53.357  1.00  0.00    -0.084 Cl
HETATM   18  C12 UNL     1      27.366  -0.436  52.945  1.00  0.00     0.042 A 
ENDBRANCH  11  12
ENDBRANCH   7  11
BRANCH  10  19
HETATM   19  O2  UNL     1      20.190   1.069  50.709  1.00  0.00    -0.353 OA
HETATM   20  C16 UNL     1      20.852   1.211  49.490  1.00  0.00     0.210 C 
ENDBRANCH  10  19
BRANCH   1  21
HETATM   21  O1  UNL     1      18.566  -0.284  52.400  1.00  0.00    -0.353 OA
HETATM   22  C1  UNL     1      17.687  -1.193  53.024  1.00  0.00     0.210 C 
ENDBRANCH   1  21
TORSDOF 4
ENDMDL
MODEL 2
REMARK VINA RESULT:      -7.5      4.453      6.474
REMARK  4 active torsions:
REMARK  status: ('A' for Active; 'I' for Inactive)
REMARK    1  A    between atoms: O1_2  and  C2_3 
REMARK    2  A    between atoms: C6_9  and  S1_10 
REMARK    3  A    between atoms: S1_10  and  C7_11 
REMARK    4  A    between atoms: C15_20  and  O2_21 
ROOT
HETATM    1  C2  UNL     1      26.317   0.215  53.893  1.00  0.00     0.103 A 
HETATM    2  C3  UNL     1      25.166  -0.420  53.465  1.00  0.00     0.072 A 
HETATM    3  C4  UNL     1      24.121   0.399  53.027  1.00  0.00     0.074 A 
HETATM    4  N1  UNL     1      22.986  -0.230  52.605  1.00  0.00    -0.241 NA
HETATM    5  C5  UNL     1      21.978   0.568  52.183  1.00  0.00     0.234 A 
HETATM    6  N2  UNL     1      22.050   1.926  52.164  1.00  0.00    -0.234 NA
HETATM    7  C6  UNL     1      23.183   2.557  52.585  1.00  0.00     0.112 A 
HETATM    8  C13 UNL     1      24.230   1.774  53.022  1.00  0.00     0.031 A 
HETATM    9  C14 UNL     1      25.403   2.342  53.462  1.00  0.00     0.056 A 
HETATM   10  C15 UNL     1      26.473   1.586  53.907  1.00  0.00     0.102 A 
ENDROOT
BRANCH   7  11
HETATM   11  S1  UNL     1      23.384   4.331  52.601  1.00  0.00    -0.070 SA
BRANCH  11  12
HETATM   12  C7  UNL     1      23.909   4.951  51.017  1.00  0.00     0.008 A 
HETATM   13  C8  UNL     1      23.050   5.768  50.286  1.00  0.00     0.019 A 
HETATM   14  C9  UNL     1      23.577   6.178  49.080  1.00  0.00     0.003 A 
HETATM   15  C10 UNL     1      24.813   5.869  48.554  1.00  0.00     0.024 A 
HETATM   16  C11 UNL     1      25.594   5.043  49.367  1.00  0.00     0.035 A 
HETATM   17 CL1  UNL     1      27.204   4.577  48.798  1.00  0.00    -0.084 Cl
HETATM   18  C12 UNL     1      25.167   4.573  50.596  1.00  0.00     0.042 A 
ENDBRANCH  11  12
ENDBRANCH   7  11
BRANCH  10  19
HETATM   19  O2  UNL     1      27.679   2.120  54.360  1.00  0.00    -0.353 OA
HETATM   20  C16 UNL     1      28.732   2.474  53.517  1.00  0.00     0.210 C 
ENDBRANCH  10  19
BRANCH   1  21
HETATM   21  O1  UNL     1      27.379  -0.570  54.337  1.00  0.00    -0.353 OA
HETATM   22  C1  UNL     1      28.290  -1.186  53.453  1.00  0.00     0.210 C 
ENDBRANCH   1  21
TORSDOF 4
ENDMDL
MODEL 3
REMARK VINA RESULT:      -7.3      2.759      4.052
REMARK  4 active torsions:
REMARK  status: ('A' for Active; 'I' for Inactive)
REMARK    1  A    between atoms: O1_2  and  C2_3 
REMARK    2  A    between atoms: C6_9  and  S1_10 
REMARK    3  A    between atoms: S1_10  and  C7_11 
REMARK    4  A    between atoms: C15_20  and  O2_21 
ROOT
HETATM    1  C2  UNL     1      23.302   2.810  49.435  1.00  0.00     0.103 A 
HETATM    2  C3  UNL     1      22.556   1.833  50.069  1.00  0.00     0.072 A 
HETATM    3  C4  UNL     1      23.034   1.376  51.301  1.00  0.00     0.074 A 
HETATM    4  N1  UNL     1      22.297   0.412  51.925  1.00  0.00    -0.241 NA
HETATM    5  C5  UNL     1      22.765  -0.027  53.116  1.00  0.00     0.234 A 
HETATM    6  N2  UNL     1      23.903   0.441  53.695  1.00  0.00    -0.234 NA
HETATM    7  C6  UNL     1      24.642   1.404  53.075  1.00  0.00     0.112 A 
HETATM    8  C13 UNL     1      24.194   1.873  51.859  1.00  0.00     0.031 A 
HETATM    9  C14 UNL     1      24.888   2.844  51.175  1.00  0.00     0.056 A 
HETATM   10  C15 UNL     1      24.467   3.337  49.953  1.00  0.00     0.102 A 
ENDROOT
BRANCH   7  11
HETATM   11  S1  UNL     1      26.149   2.086  53.746  1.00  0.00    -0.070 SA
BRANCH  11  12
HETATM   12  C7  UNL     1      27.506   0.940  53.621  1.00  0.00     0.008 A 
HETATM   13  C8  UNL     1      28.799   1.383  53.889  1.00  0.00     0.019 A 
HETATM   14  C9  UNL     1      29.754   0.398  53.756  1.00  0.00     0.003 A 
HETATM   15  C10 UNL     1      29.560  -0.919  53.399  1.00  0.00     0.024 A 
HETATM   16  C11 UNL     1      28.227  -1.257  53.151  1.00  0.00     0.035 A 
HETATM   17 CL1  UNL     1      27.851  -2.924  52.684  1.00  0.00    -0.084 Cl
HETATM   18  C12 UNL     1      27.188  -0.351  53.256  1.00  0.00     0.042 A 
ENDBRANCH  11  12
ENDBRANCH   7  11
BRANCH  10  19
HETATM   19  O2  UNL     1      25.140   4.321  49.227  1.00  0.00    -0.353 OA
HETATM   20  C16 UNL     1      26.516   4.532  49.308  1.00  0.00     0.210 C 
ENDBRANCH  10  19
BRANCH   1  21
HETATM   21  O1  UNL     1      22.856   3.289  48.206  1.00  0.00    -0.353 OA
HETATM   22  C1  UNL     1      22.011   2.541  47.360  1.00  0.00     0.210 C 
ENDBRANCH   1  21
TORSDOF 4
ENDMDL
MODEL 4
REMARK VINA RESULT:      -7.2      4.130      6.942
REMARK  4 active torsions:
REMARK  status: ('A' for Active; 'I' for Inactive)
REMARK    1  A    between atoms: O1_2  and  C2_3 
REMARK    2  A    between atoms: C6_9  and  S1_10 
REMARK    3  A    between atoms: S1_10  and  C7_11 
REMARK    4  A    between atoms: C15_20  and  O2_21 
ROOT
HETATM    1  C2  UNL     1      26.805  -0.160  53.690  1.00  0.00     0.103 A 
HETATM    2  C3  UNL     1      25.634  -0.811  54.032  1.00  0.00     0.072 A 
HETATM    3  C4  UNL     1      24.437  -0.183  53.674  1.00  0.00     0.074 A 
HETATM    4  N1  UNL     1      23.283  -0.827  54.013  1.00  0.00    -0.241 NA
HETATM    5  C5  UNL     1      22.128  -0.214  53.665  1.00  0.00     0.234 A 
HETATM    6  N2  UNL     1      22.075   0.978  53.013  1.00  0.00    -0.234 NA
HETATM    7  C6  UNL     1      23.227   1.624  52.672  1.00  0.00     0.112 A 
HETATM    8  C13 UNL     1      24.422   1.028  53.013  1.00  0.00     0.031 A 
HETATM    9  C14 UNL     1      25.623   1.622  52.702  1.00  0.00     0.056 A 
HETATM   10  C15 UNL     1      26.841   1.051  53.028  1.00  0.00     0.102 A 
ENDROOT
BRANCH   7  11
HETATM   11  S1  UNL     1      23.271   3.190  51.816  1.00  0.00    -0.070 SA
BRANCH  11  12
HETATM   12  C7  UNL     1      22.811   3.019  50.104  1.00  0.00     0.008 A 
HETATM   13  C8  UNL     1      22.425   1.771  49.623  1.00  0.00     0.019 A 
HETATM   14  C9  UNL     1      22.094   1.777  48.284  1.00  0.00     0.003 A 
HETATM   15  C10 UNL     1      22.111   2.850  47.419  1.00  0.00     0.024 A 
HETATM   16  C11 UNL     1      22.514   4.054  48.004  1.00  0.00     0.035 A 
HETATM   17 CL1  UNL     1      22.575   5.505  46.992  1.00  0.00    -0.084 Cl
HETATM   18  C12 UNL     1      22.867   4.164  49.337  1.00  0.00     0.042 A 
ENDBRANCH  11  12
ENDBRANCH   7  11
BRANCH  10  19
HETATM   19  O2  UNL     1      28.080   1.618  52.732  1.00  0.00    -0.353 OA
HETATM   20  C16 UNL     1      28.718   2.549  53.552  1.00  0.00     0.210 C 
ENDBRANCH  10  19
BRANCH   1  21
HETATM   21  O1  UNL     1      28.017  -0.756  54.030  1.00  0.00    -0.353 OA
HETATM   22  C1  UNL     1      28.669  -1.685  53.193  1.00  0.00     0.210 C 
ENDBRANCH   1  21
TORSDOF 4
ENDMDL
MODEL 5
REMARK VINA RESULT:      -7.2      2.535      3.680
REMARK  4 active torsions:
REMARK  status: ('A' for Active; 'I' for Inactive)
REMARK    1  A    between atoms: O1_2  and  C2_3 
REMARK    2  A    between atoms: C6_9  and  S1_10 
REMARK    3  A    between atoms: S1_10  and  C7_11 
REMARK    4  A    between atoms: C15_20  and  O2_21 
ROOT
HETATM    1  C2  UNL     1      20.931   1.383  52.033  1.00  0.00     0.103 A 
HETATM    2  C3  UNL     1      21.421   2.018  50.906  1.00  0.00     0.072 A 
HETATM    3  C4  UNL     1      22.783   2.333  50.904  1.00  0.00     0.074 A 
HETATM    4  N1  UNL     1      23.264   2.960  49.791  1.00  0.00    -0.241 NA
HETATM    5  C5  UNL     1      24.582   3.263  49.794  1.00  0.00     0.234 A 
HETATM    6  N2  UNL     1      25.417   2.977  50.828  1.00  0.00    -0.234 NA
HETATM    7  C6  UNL     1      24.941   2.352  51.941  1.00  0.00     0.112 A 
HETATM    8  C13 UNL     1      23.601   2.028  51.972  1.00  0.00     0.031 A 
HETATM    9  C14 UNL     1      23.049   1.396  53.062  1.00  0.00     0.056 A 
HETATM   10  C15 UNL     1      21.709   1.057  53.125  1.00  0.00     0.102 A 
ENDROOT
BRANCH   7  11
HETATM   11  S1  UNL     1      25.949   1.930  53.353  1.00  0.00    -0.070 SA
BRANCH  11  12
HETATM   12  C7  UNL     1      26.755   0.356  53.143  1.00  0.00     0.008 A 
HETATM   13  C8  UNL     1      26.040  -0.708  52.599  1.00  0.00     0.019 A 
HETATM   14  C9  UNL     1      26.780  -1.867  52.491  1.00  0.00     0.003 A 
HETATM   15  C10 UNL     1      28.095  -2.062  52.854  1.00  0.00     0.024 A 
HETATM   16  C11 UNL     1      28.717  -0.931  53.389  1.00  0.00     0.035 A 
HETATM   17 CL1  UNL     1      30.410  -1.057  53.893  1.00  0.00    -0.084 Cl
HETATM   18  C12 UNL     1      28.072   0.283  53.543  1.00  0.00     0.042 A 
ENDBRANCH  11  12
ENDBRANCH   7  11
BRANCH  10  19
HETATM   19  O2  UNL     1      21.110   0.417  54.210  1.00  0.00    -0.353 OA
HETATM   20  C16 UNL     1      21.276  -0.939  54.493  1.00  0.00     0.210 C 
ENDBRANCH  10  19
BRANCH   1  21
HETATM   21  O1  UNL     1      19.578   1.053  52.072  1.00  0.00    -0.353 OA
HETATM   22  C1  UNL     1      18.983   0.177  51.141  1.00  0.00     0.210 C 
ENDBRANCH   1  21
TORSDOF 4
ENDMDL
MODEL 6
REMARK VINA RESULT:      -7.2      3.801      5.880
REMARK  4 active torsions:
REMARK  status: ('A' for Active; 'I' for Inactive)
REMARK    1  A    between atoms: O1_2  and  C2_3 
REMARK    2  A    between atoms: C6_9  and  S1_10 
REMARK    3  A    between atoms: S1_10  and  C7_11 
REMARK    4  A    between atoms: C15_20  and  O2_21 
ROOT
HETATM    1  C2  UNL     1      25.822  -0.474  53.849  1.00  0.00     0.103 A 
HETATM    2  C3  UNL     1      24.831  -0.956  54.687  1.00  0.00     0.072 A 
HETATM    3  C4  UNL     1      23.509  -0.734  54.290  1.00  0.00     0.074 A 
HETATM    4  N1  UNL     1      22.534  -1.210  55.118  1.00  0.00    -0.241 NA
HETATM    5  C5  UNL     1      21.257  -0.992  54.730  1.00  0.00     0.234 A 
HETATM    6  N2  UNL     1      20.919  -0.340  53.585  1.00  0.00    -0.234 NA
HETATM    7  C6  UNL     1      21.890   0.137  52.756  1.00  0.00     0.112 A 
HETATM    8  C13 UNL     1      23.204  -0.067  53.122  1.00  0.00     0.031 A 
HETATM    9  C14 UNL     1      24.236   0.386  52.334  1.00  0.00     0.056 A 
HETATM   10  C15 UNL     1      25.565   0.198  52.672  1.00  0.00     0.102 A 
ENDROOT
BRANCH   7  11
HETATM   11  S1  UNL     1      21.558   1.006  51.232  1.00  0.00    -0.070 SA
BRANCH  11  12
HETATM   12  C7  UNL     1      22.156   2.682  51.284  1.00  0.00     0.008 A 
HETATM   13  C8  UNL     1      21.656   3.554  52.248  1.00  0.00     0.019 A 
HETATM   14  C9  UNL     1      22.202   4.819  52.177  1.00  0.00     0.003 A 
HETATM   15  C10 UNL     1      23.147   5.279  51.286  1.00  0.00     0.024 A 
HETATM   16  C11 UNL     1      23.578   4.324  50.361  1.00  0.00     0.035 A 
HETATM   17 CL1  UNL     1      24.793   4.796  49.163  1.00  0.00    -0.084 Cl
HETATM   18  C12 UNL     1      23.101   3.026  50.340  1.00  0.00     0.042 A 
ENDBRANCH  11  12
ENDBRANCH   7  11
BRANCH  10  19
HETATM   19  O2  UNL     1      26.642   0.641  51.903  1.00  0.00    -0.353 OA
HETATM   20  C16 UNL     1      26.768   1.947  51.433  1.00  0.00     0.210 C 
ENDBRANCH  10  19
BRANCH   1  21
HETATM   21  O1  UNL     1      27.151  -0.676  54.212  1.00  0.00    -0.353 OA
HETATM   22  C1  UNL     1      27.905   0.294  54.904  1.00  0.00     0.210 C 
ENDBRANCH   1  21
TORSDOF 4
ENDMDL
MODEL 7
REMARK VINA RESULT:      -7.0      4.005      7.084
REMARK  4 active torsions:
REMARK  status: ('A' for Active; 'I' for Inactive)
REMARK    1  A    between atoms: O1_2  and  C2_3 
REMARK    2  A    between atoms: C6_9  and  S1_10 
REMARK    3  A    between atoms: S1_10  and  C7_11 
REMARK    4  A    between atoms: C15_20  and  O2_21 
ROOT
HETATM    1  C2  UNL     1      26.075  -0.232  52.969  1.00  0.00     0.103 A 
HETATM    2  C3  UNL     1      26.777   0.585  52.101  1.00  0.00     0.072 A 
HETATM    3  C4  UNL     1      26.115   1.726  51.636  1.00  0.00     0.074 A 
HETATM    4  N1  UNL     1      26.809   2.530  50.780  1.00  0.00    -0.241 NA
HETATM    5  C5  UNL     1      26.163   3.631  50.333  1.00  0.00     0.234 A 
HETATM    6  N2  UNL     1      24.893   3.956  50.692  1.00  0.00    -0.234 NA
HETATM    7  C6  UNL     1      24.196   3.155  51.546  1.00  0.00     0.112 A 
HETATM    8  C13 UNL     1      24.824   2.023  52.021  1.00  0.00     0.031 A 
HETATM    9  C14 UNL     1      24.183   1.167  52.887  1.00  0.00     0.056 A 
HETATM   10  C15 UNL     1      24.784   0.024  53.382  1.00  0.00     0.102 A 
ENDROOT
BRANCH   7  11
HETATM   11  S1  UNL     1      22.526   3.487  52.082  1.00  0.00    -0.070 SA
BRANCH  11  12
HETATM   12  C7  UNL     1      21.347   2.435  51.260  1.00  0.00     0.008 A 
HETATM   13  C8  UNL     1      21.262   2.462  49.871  1.00  0.00     0.019 A 
HETATM   14  C9  UNL     1      20.311   1.601  49.363  1.00  0.00     0.003 A 
HETATM   15  C10 UNL     1      19.478   0.759  50.067  1.00  0.00     0.024 A 
HETATM   16  C11 UNL     1      19.645   0.811  51.453  1.00  0.00     0.035 A 
HETATM   17 CL1  UNL     1      18.630  -0.227  52.466  1.00  0.00    -0.084 Cl
HETATM   18  C12 UNL     1      20.568   1.636  52.071  1.00  0.00     0.042 A 
ENDBRANCH  11  12
ENDBRANCH   7  11
BRANCH  10  19
HETATM   19  O2  UNL     1      24.171  -0.869  54.261  1.00  0.00    -0.353 OA
HETATM   20  C16 UNL     1      22.793  -0.924  54.468  1.00  0.00     0.210 C 
ENDBRANCH  10  19
BRANCH   1  21
HETATM   21  O1  UNL     1      26.703  -1.378  53.452  1.00  0.00    -0.353 OA
HETATM   22  C1  UNL     1      27.235  -2.369  52.602  1.00  0.00     0.210 C 
ENDBRANCH   1  21
TORSDOF 4
ENDMDL
MODEL 8
REMARK VINA RESULT:      -7.0      2.043      2.386
REMARK  4 active torsions:
REMARK  status: ('A' for Active; 'I' for Inactive)
REMARK    1  A    between atoms: O1_2  and  C2_3 
REMARK    2  A    between atoms: C6_9  and  S1_10 
REMARK    3  A    between atoms: S1_10  and  C7_11 
REMARK    4  A    between atoms: C15_20  and  O2_21 
ROOT
HETATM    1  C2  UNL     1      20.692   2.598  51.835  1.00  0.00     0.103 A 
HETATM    2  C3  UNL     1      20.684   1.416  52.554  1.00  0.00     0.072 A 
HETATM    3  C4  UNL     1      21.927   0.909  52.947  1.00  0.00     0.074 A 
HETATM    4  N1  UNL     1      21.916  -0.256  53.656  1.00  0.00    -0.241 NA
HETATM    5  C5  UNL     1      23.121  -0.742  54.032  1.00  0.00     0.234 A 
HETATM    6  N2  UNL     1      24.302  -0.134  53.741  1.00  0.00    -0.234 NA
HETATM    7  C6  UNL     1      24.317   1.031  53.032  1.00  0.00     0.112 A 
HETATM    8  C13 UNL     1      23.105   1.554  52.632  1.00  0.00     0.031 A 
HETATM    9  C14 UNL     1      23.042   2.725  51.914  1.00  0.00     0.056 A 
HETATM   10  C15 UNL     1      21.844   3.278  51.498  1.00  0.00     0.102 A 
ENDROOT
BRANCH   7  11
HETATM   11  S1  UNL     1      25.807   1.910  52.597  1.00  0.00    -0.070 SA
BRANCH  11  12
HETATM   12  C7  UNL     1      27.268   1.022  53.094  1.00  0.00     0.008 A 
HETATM   13  C8  UNL     1      28.311   1.713  53.705  1.00  0.00     0.019 A 
HETATM   14  C9  UNL     1      29.380   0.908  54.039  1.00  0.00     0.003 A 
HETATM   15  C10 UNL     1      29.507  -0.449  53.835  1.00  0.00     0.024 A 
HETATM   16  C11 UNL     1      28.405  -1.043  53.215  1.00  0.00     0.035 A 
HETATM   17 CL1  UNL     1      28.451  -2.784  52.900  1.00  0.00    -0.084 Cl
HETATM   18  C12 UNL     1      27.280  -0.333  52.838  1.00  0.00     0.042 A 
ENDBRANCH  11  12
ENDBRANCH   7  11
BRANCH  10  19
HETATM   19  O2  UNL     1      21.736   4.463  50.769  1.00  0.00    -0.353 OA
HETATM   20  C16 UNL     1      22.017   5.722  51.298  1.00  0.00     0.210 C 
ENDBRANCH  10  19
BRANCH   1  21
HETATM   21  O1  UNL     1      19.472   3.132  51.427  1.00  0.00    -0.353 OA
HETATM   22  C1  UNL     1      18.252   2.441  51.577  1.00  0.00     0.210 C 
ENDBRANCH   1  21
TORSDOF 4
ENDMDL
MODEL 9
REMARK VINA RESULT:      -6.8      4.528      5.614
REMARK  4 active torsions:
REMARK  status: ('A' for Active; 'I' for Inactive)
REMARK    1  A    between atoms: O1_2  and  C2_3 
REMARK    2  A    between atoms: C6_9  and  S1_10 
REMARK    3  A    between atoms: S1_10  and  C7_11 
REMARK    4  A    between atoms: C15_20  and  O2_21 
ROOT
HETATM    1  C2  UNL     1      22.972   0.475  52.697  1.00  0.00     0.103 A 
HETATM    2  C3  UNL     1      24.169   0.445  53.390  1.00  0.00     0.072 A 
HETATM    3  C4  UNL     1      25.236   1.157  52.834  1.00  0.00     0.074 A 
HETATM    4  N1  UNL     1      26.416   1.126  53.519  1.00  0.00    -0.241 NA
HETATM    5  C5  UNL     1      27.445   1.815  52.976  1.00  0.00     0.234 A 
HETATM    6  N2  UNL     1      27.352   2.514  51.813  1.00  0.00    -0.234 NA
HETATM    7  C6  UNL     1      26.175   2.547  51.125  1.00  0.00     0.112 A 
HETATM    8  C13 UNL     1      25.105   1.855  51.651  1.00  0.00     0.031 A 
HETATM    9  C14 UNL     1      23.887   1.843  51.012  1.00  0.00     0.056 A 
HETATM   10  C15 UNL     1      22.793   1.159  51.512  1.00  0.00     0.102 A 
ENDROOT
BRANCH   7  11
HETATM   11  S1  UNL     1      25.944   3.432  49.593  1.00  0.00    -0.070 SA
BRANCH  11  12
HETATM   12  C7  UNL     1      25.639   5.164  49.870  1.00  0.00     0.008 A 
HETATM   13  C8  UNL     1      24.627   5.546  50.748  1.00  0.00     0.019 A 
HETATM   14  C9  UNL     1      24.496   6.913  50.871  1.00  0.00     0.003 A 
HETATM   15  C10 UNL     1      25.234   7.890  50.238  1.00  0.00     0.024 A 
HETATM   16  C11 UNL     1      26.220   7.398  49.379  1.00  0.00     0.035 A 
HETATM   17 CL1  UNL     1      27.235   8.558  48.507  1.00  0.00    -0.084 Cl
HETATM   18  C12 UNL     1      26.442   6.048  49.179  1.00  0.00     0.042 A 
ENDBRANCH  11  12
ENDBRANCH   7  11
BRANCH  10  19
HETATM   19  O2  UNL     1      21.541   1.121  50.897  1.00  0.00    -0.353 OA
HETATM   20  C16 UNL     1      21.361   0.953  49.525  1.00  0.00     0.210 C 
ENDBRANCH  10  19
BRANCH   1  21
HETATM   21  O1  UNL     1      21.886  -0.222  53.222  1.00  0.00    -0.353 OA
HETATM   22  C1  UNL     1      22.037  -1.288  54.133  1.00  0.00     0.210 C 
ENDBRANCH   1  21
TORSDOF 4
ENDMDL
