MODEL 1
REMARK VINA RESULT:      -6.9      0.000      0.000
REMARK  3 active torsions:
REMARK  status: ('A' for Active; 'I' for Inactive)
REMARK    1  A    between atoms: O1_2  and  C2_3 
REMARK    2  A    between atoms: N2_8  and  C6_9 
REMARK    3  A    between atoms: C17_22  and  S1_23 
ROOT
HETATM    1  C2  UNL     1      22.964   5.502  48.895  1.00  0.00     0.065 C 
HETATM    2  C3  UNL     1      24.188   5.087  48.647  1.00  0.00     0.016 C 
HETATM    3  C4  UNL     1      25.598   5.425  48.944  1.00  0.00     0.086 C 
HETATM    4  C5  UNL     1      26.009   4.311  49.960  1.00  0.00     0.038 C 
HETATM    5  N1  UNL     1      26.739   3.317  50.360  1.00  0.00    -0.179 NA
HETATM    6  N2  UNL     1      26.234   2.693  51.508  1.00  0.00    -0.241 N 
HETATM    7  C9  UNL     1      24.857   3.057  51.561  1.00  0.00     0.066 C 
HETATM    8  C10 UNL     1      24.206   3.108  52.922  1.00  0.00     0.063 C 
HETATM    9  C11 UNL     1      22.786   3.576  52.661  1.00  0.00     0.008 C 
HETATM   10  C12 UNL     1      22.159   3.548  51.468  1.00  0.00     0.042 C 
HETATM   11  C13 UNL     1      22.563   2.266  50.849  1.00  0.00     0.067 C 
HETATM   12  C14 UNL     1      24.048   2.251  50.611  1.00  0.00     0.040 C 
HETATM   13  O2  UNL     1      21.352   4.265  50.730  1.00  0.00    -0.355 OA
HETATM   14  C15 UNL     1      20.111   4.680  50.418  1.00  0.00     0.180 C 
HETATM   15  C16 UNL     1      20.154   5.359  48.982  1.00  0.00     0.072 C 
HETATM   16  C17 UNL     1      20.759   4.340  48.103  1.00  0.00    -0.020 C 
HETATM   17  C18 UNL     1      21.984   4.648  48.278  1.00  0.00     0.050 C 
HETATM   18  C19 UNL     1      25.027   4.500  51.053  1.00  0.00     0.090 C 
ENDROOT
BRANCH   6  19
HETATM   19  C6  UNL     1      27.143   1.917  52.268  1.00  0.00     0.147 A 
HETATM   20  N3  UNL     1      28.264   2.322  52.810  1.00  0.00    -0.242 NA
HETATM   21  C7  UNL     1      28.541   1.048  53.340  1.00  0.00     0.123 A 
HETATM   22  C8  UNL     1      27.432   0.612  52.813  1.00  0.00     0.071 A 
ENDBRANCH   6  19
BRANCH   1  23
HETATM   23  O1  UNL     1      22.674   6.623  49.661  1.00  0.00    -0.356 OA
HETATM   24  C1  UNL     1      22.788   7.958  49.247  1.00  0.00     0.210 C 
ENDBRANCH   1  23
BRANCH  16  25
HETATM   25  S1  UNL     1      19.665   3.232  47.260  1.00  0.00    -0.147 SA
HETATM   26  H20 UNL     1      18.365   3.456  47.800  1.00  0.00     0.107 HD
ENDBRANCH  16  25
TORSDOF 3
ENDMDL
MODEL 2
REMARK VINA RESULT:      -6.9      2.622      3.476
REMARK  3 active torsions:
REMARK  status: ('A' for Active; 'I' for Inactive)
REMARK    1  A    between atoms: O1_2  and  C2_3 
REMARK    2  A    between atoms: N2_8  and  C6_9 
REMARK    3  A    between atoms: C17_22  and  S1_23 
ROOT
HETATM    1  C2  UNL     1      23.713   4.375  49.460  1.00  0.00     0.065 C 
HETATM    2  C3  UNL     1      24.414   3.346  49.883  1.00  0.00     0.016 C 
HETATM    3  C4  UNL     1      25.269   2.926  51.017  1.00  0.00     0.086 C 
HETATM    4  C5  UNL     1      24.350   1.922  51.784  1.00  0.00     0.038 C 
HETATM    5  N1  UNL     1      24.064   0.761  52.287  1.00  0.00    -0.179 NA
HETATM    6  N2  UNL     1      22.741   0.669  52.736  1.00  0.00    -0.241 N 
HETATM    7  C9  UNL     1      22.039   1.708  52.060  1.00  0.00     0.066 C 
HETATM    8  C10 UNL     1      20.827   2.289  52.750  1.00  0.00     0.063 C 
HETATM    9  C11 UNL     1      20.342   3.393  51.828  1.00  0.00     0.008 C 
HETATM   10  C12 UNL     1      20.674   3.531  50.528  1.00  0.00     0.042 C 
HETATM   11  C13 UNL     1      20.670   2.156  49.982  1.00  0.00     0.067 C 
HETATM   12  C14 UNL     1      21.725   1.325  50.660  1.00  0.00     0.040 C 
HETATM   13  O2  UNL     1      20.982   4.452  49.653  1.00  0.00    -0.355 OA
HETATM   14  C15 UNL     1      20.613   5.410  48.784  1.00  0.00     0.180 C 
HETATM   15  C16 UNL     1      21.855   5.751  47.853  1.00  0.00     0.072 C 
HETATM   16  C17 UNL     1      22.264   4.453  47.283  1.00  0.00    -0.020 C 
HETATM   17  C18 UNL     1      23.065   4.089  48.207  1.00  0.00     0.050 C 
HETATM   18  C19 UNL     1      23.167   2.754  52.105  1.00  0.00     0.090 C 
ENDROOT
BRANCH   6  19
HETATM   19  C6  UNL     1      22.453  -0.352  53.675  1.00  0.00     0.147 A 
HETATM   20  N3  UNL     1      23.282  -0.893  54.532  1.00  0.00    -0.242 NA
HETATM   21  C7  UNL     1      22.293  -1.751  55.044  1.00  0.00     0.123 A 
HETATM   22  C8  UNL     1      21.442  -1.236  54.203  1.00  0.00     0.071 A 
ENDBRANCH   6  19
BRANCH   1  23
HETATM   23  O1  UNL     1      23.617   5.576  50.150  1.00  0.00    -0.356 OA
HETATM   24  C1  UNL     1      24.661   6.485  50.373  1.00  0.00     0.210 C 
ENDBRANCH   1  23
BRANCH  16  25
HETATM   25  S1  UNL     1      21.559   3.982  45.728  1.00  0.00    -0.147 SA
HETATM   26  H20 UNL     1      21.181   5.190  45.072  1.00  0.00     0.107 HD
ENDBRANCH  16  25
TORSDOF 3
ENDMDL
MODEL 3
REMARK VINA RESULT:      -6.7      3.136      4.606
REMARK  3 active torsions:
REMARK  status: ('A' for Active; 'I' for Inactive)
REMARK    1  A    between atoms: O1_2  and  C2_3 
REMARK    2  A    between atoms: N2_8  and  C6_9 
REMARK    3  A    between atoms: C17_22  and  S1_23 
ROOT
HETATM    1  C2  UNL     1      21.577   4.102  48.462  1.00  0.00     0.065 C 
HETATM    2  C3  UNL     1      20.649   3.413  49.090  1.00  0.00     0.016 C 
HETATM    3  C4  UNL     1      20.046   2.061  49.123  1.00  0.00     0.086 C 
HETATM    4  C5  UNL     1      20.619   1.464  50.449  1.00  0.00     0.038 C 
HETATM    5  N1  UNL     1      20.506   0.943  51.630  1.00  0.00    -0.179 NA
HETATM    6  N2  UNL     1      21.729   0.844  52.305  1.00  0.00    -0.241 N 
HETATM    7  C9  UNL     1      22.592   1.778  51.661  1.00  0.00     0.066 C 
HETATM    8  C10 UNL     1      24.074   1.486  51.689  1.00  0.00     0.063 C 
HETATM    9  C11 UNL     1      24.710   2.605  50.885  1.00  0.00     0.008 C 
HETATM   10  C12 UNL     1      24.125   3.781  50.581  1.00  0.00     0.042 C 
HETATM   11  C13 UNL     1      23.389   4.174  51.804  1.00  0.00     0.067 C 
HETATM   12  C14 UNL     1      22.312   3.167  52.105  1.00  0.00     0.040 C 
HETATM   13  O2  UNL     1      24.013   4.633  49.595  1.00  0.00    -0.355 OA
HETATM   14  C15 UNL     1      24.501   5.657  48.872  1.00  0.00     0.180 C 
HETATM   15  C16 UNL     1      23.321   6.262  47.997  1.00  0.00     0.072 C 
HETATM   16  C17 UNL     1      22.256   6.577  48.968  1.00  0.00    -0.020 C 
HETATM   17  C18 UNL     1      21.666   5.446  48.969  1.00  0.00     0.050 C 
HETATM   18  C19 UNL     1      22.081   1.544  50.228  1.00  0.00     0.090 C 
ENDROOT
BRANCH   6  19
HETATM   19  C6  UNL     1      21.799  -0.083  53.374  1.00  0.00     0.147 A 
HETATM   20  N3  UNL     1      22.306  -1.290  53.341  1.00  0.00    -0.242 NA
HETATM   21  C7  UNL     1      22.004  -1.522  54.695  1.00  0.00     0.123 A 
HETATM   22  C8  UNL     1      21.491  -0.327  54.763  1.00  0.00     0.071 A 
ENDBRANCH   6  19
BRANCH   1  23
HETATM   23  O1  UNL     1      22.364   3.582  47.443  1.00  0.00    -0.356 OA
HETATM   24  C1  UNL     1      22.009   3.492  46.090  1.00  0.00     0.210 C 
ENDBRANCH   1  23
BRANCH  16  25
HETATM   25  S1  UNL     1      22.233   8.208  49.658  1.00  0.00    -0.147 SA
HETATM   26  H20 UNL     1      22.360   8.053  51.069  1.00  0.00     0.107 HD
ENDBRANCH  16  25
TORSDOF 3
ENDMDL
MODEL 4
REMARK VINA RESULT:      -6.6      2.118      3.606
REMARK  3 active torsions:
REMARK  status: ('A' for Active; 'I' for Inactive)
REMARK    1  A    between atoms: O1_2  and  C2_3 
REMARK    2  A    between atoms: N2_8  and  C6_9 
REMARK    3  A    between atoms: C17_22  and  S1_23 
ROOT
HETATM    1  C2  UNL     1      21.090   3.682  49.787  1.00  0.00     0.065 C 
HETATM    2  C3  UNL     1      20.993   2.968  50.888  1.00  0.00     0.016 C 
HETATM    3  C4  UNL     1      20.999   1.561  51.350  1.00  0.00     0.086 C 
HETATM    4  C5  UNL     1      22.396   1.436  52.041  1.00  0.00     0.038 C 
HETATM    5  N1  UNL     1      23.174   1.194  53.049  1.00  0.00    -0.179 NA
HETATM    6  N2  UNL     1      24.510   1.534  52.804  1.00  0.00    -0.241 N 
HETATM    7  C9  UNL     1      24.472   2.460  51.722  1.00  0.00     0.066 C 
HETATM    8  C10 UNL     1      25.682   2.524  50.821  1.00  0.00     0.063 C 
HETATM    9  C11 UNL     1      25.322   3.538  49.751  1.00  0.00     0.008 C 
HETATM   10  C12 UNL     1      24.331   4.448  49.835  1.00  0.00     0.042 C 
HETATM   11  C13 UNL     1      24.376   4.939  51.231  1.00  0.00     0.067 C 
HETATM   12  C14 UNL     1      24.077   3.816  52.185  1.00  0.00     0.040 C 
HETATM   13  O2  UNL     1      23.394   4.997  49.107  1.00  0.00    -0.355 OA
HETATM   14  C15 UNL     1      23.002   5.906  48.196  1.00  0.00     0.180 C 
HETATM   15  C16 UNL     1      21.417   6.008  48.237  1.00  0.00     0.072 C 
HETATM   16  C17 UNL     1      21.095   6.294  49.648  1.00  0.00    -0.020 C 
HETATM   17  C18 UNL     1      21.022   5.091  50.068  1.00  0.00     0.050 C 
HETATM   18  C19 UNL     1      23.326   1.789  50.944  1.00  0.00     0.090 C 
ENDROOT
BRANCH   6  19
HETATM   19  C6  UNL     1      25.488   0.923  53.628  1.00  0.00     0.147 A 
HETATM   20  N3  UNL     1      26.375   1.526  54.379  1.00  0.00    -0.242 NA
HETATM   21  C7  UNL     1      26.916   0.308  54.828  1.00  0.00     0.123 A 
HETATM   22  C8  UNL     1      26.047  -0.324  54.091  1.00  0.00     0.071 A 
ENDBRANCH   6  19
BRANCH   1  23
HETATM   23  O1  UNL     1      21.245   3.128  48.523  1.00  0.00    -0.356 OA
HETATM   24  C1  UNL     1      20.226   2.574  47.736  1.00  0.00     0.210 C 
ENDBRANCH   1  23
BRANCH  16  25
HETATM   25  S1  UNL     1      20.958   7.993  50.129  1.00  0.00    -0.147 SA
HETATM   26  H20 UNL     1      20.982   8.013  51.554  1.00  0.00     0.107 HD
ENDBRANCH  16  25
TORSDOF 3
ENDMDL
MODEL 5
REMARK VINA RESULT:      -6.2      2.751      4.778
REMARK  3 active torsions:
REMARK  status: ('A' for Active; 'I' for Inactive)
REMARK    1  A    between atoms: O1_2  and  C2_3 
REMARK    2  A    between atoms: N2_8  and  C6_9 
REMARK    3  A    between atoms: C17_22  and  S1_23 
ROOT
HETATM    1  C2  UNL     1      20.339   1.787  52.080  1.00  0.00     0.065 C 
HETATM    2  C3  UNL     1      21.401   2.358  52.606  1.00  0.00     0.016 C 
HETATM    3  C4  UNL     1      22.789   2.044  53.016  1.00  0.00     0.086 C 
HETATM    4  C5  UNL     1      23.639   2.739  51.903  1.00  0.00     0.038 C 
HETATM    5  N1  UNL     1      24.537   3.572  51.480  1.00  0.00    -0.179 NA
HETATM    6  N2  UNL     1      24.558   3.693  50.084  1.00  0.00    -0.241 N 
HETATM    7  C9  UNL     1      23.284   3.229  49.646  1.00  0.00     0.066 C 
HETATM    8  C10 UNL     1      23.201   2.635  48.260  1.00  0.00     0.063 C 
HETATM    9  C11 UNL     1      21.759   2.187  48.110  1.00  0.00     0.008 C 
HETATM   10  C12 UNL     1      20.727   2.599  48.873  1.00  0.00     0.042 C 
HETATM   11  C13 UNL     1      20.957   4.046  49.084  1.00  0.00     0.067 C 
HETATM   12  C14 UNL     1      22.234   4.261  49.849  1.00  0.00     0.040 C 
HETATM   13  O2  UNL     1      19.648   2.141  49.453  1.00  0.00    -0.355 OA
HETATM   14  C15 UNL     1      18.356   1.774  49.396  1.00  0.00     0.180 C 
HETATM   15  C16 UNL     1      17.795   1.672  50.880  1.00  0.00     0.072 C 
HETATM   16  C17 UNL     1      18.091   2.984  51.484  1.00  0.00    -0.020 C 
HETATM   17  C18 UNL     1      19.264   2.729  51.916  1.00  0.00     0.050 C 
HETATM   18  C19 UNL     1      23.139   2.089  50.670  1.00  0.00     0.090 C 
ENDROOT
BRANCH   6  19
HETATM   19  C6  UNL     1      25.744   4.206  49.503  1.00  0.00     0.147 A 
HETATM   20  N3  UNL     1      26.886   3.581  49.359  1.00  0.00    -0.242 NA
HETATM   21  C7  UNL     1      27.489   4.695  48.748  1.00  0.00     0.123 A 
HETATM   22  C8  UNL     1      26.368   5.345  48.876  1.00  0.00     0.071 A 
ENDBRANCH   6  19
BRANCH   1  23
HETATM   23  O1  UNL     1      20.282   0.445  51.728  1.00  0.00    -0.356 OA
HETATM   24  C1  UNL     1      20.021  -0.625  52.596  1.00  0.00     0.210 C 
ENDBRANCH   1  23
BRANCH  16  25
HETATM   25  S1  UNL     1      16.842   4.236  51.376  1.00  0.00    -0.147 SA
HETATM   26  H20 UNL     1      16.057   3.927  50.228  1.00  0.00     0.107 HD
ENDBRANCH  16  25
TORSDOF 3
ENDMDL
MODEL 6
REMARK VINA RESULT:      -6.1      4.118      6.041
REMARK  3 active torsions:
REMARK  status: ('A' for Active; 'I' for Inactive)
REMARK    1  A    between atoms: O1_2  and  C2_3 
REMARK    2  A    between atoms: N2_8  and  C6_9 
REMARK    3  A    between atoms: C17_22  and  S1_23 
ROOT
HETATM    1  C2  UNL     1      21.395   4.164  48.433  1.00  0.00     0.065 C 
HETATM    2  C3  UNL     1      20.129   3.876  48.646  1.00  0.00     0.016 C 
HETATM    3  C4  UNL     1      19.084   2.914  48.228  1.00  0.00     0.086 C 
HETATM    4  C5  UNL     1      18.940   1.998  49.486  1.00  0.00     0.038 C 
HETATM    5  N1  UNL     1      18.274   1.455  50.456  1.00  0.00    -0.179 NA
HETATM    6  N2  UNL     1      19.090   0.776  51.369  1.00  0.00    -0.241 N 
HETATM    7  C9  UNL     1      20.396   1.313  51.181  1.00  0.00     0.066 C 
HETATM    8  C10 UNL     1      21.568   0.417  51.503  1.00  0.00     0.063 C 
HETATM    9  C11 UNL     1      22.797   1.234  51.149  1.00  0.00     0.008 C 
HETATM   10  C12 UNL     1      22.828   2.571  50.983  1.00  0.00     0.042 C 
HETATM   11  C13 UNL     1      21.950   3.112  52.045  1.00  0.00     0.067 C 
HETATM   12  C14 UNL     1      20.537   2.636  51.842  1.00  0.00     0.040 C 
HETATM   13  O2  UNL     1      23.361   3.485  50.215  1.00  0.00    -0.355 OA
HETATM   14  C15 UNL     1      24.400   4.271  49.881  1.00  0.00     0.180 C 
HETATM   15  C16 UNL     1      23.876   5.408  48.902  1.00  0.00     0.072 C 
HETATM   16  C17 UNL     1      22.762   6.046  49.630  1.00  0.00    -0.020 C 
HETATM   17  C18 UNL     1      21.821   5.281  49.234  1.00  0.00     0.050 C 
HETATM   18  C19 UNL     1      20.314   1.468  49.652  1.00  0.00     0.090 C 
ENDROOT
BRANCH   6  19
HETATM   19  C6  UNL     1      18.464  -0.196  52.188  1.00  0.00     0.147 A 
HETATM   20  N3  UNL     1      17.230  -0.625  52.101  1.00  0.00    -0.242 NA
HETATM   21  C7  UNL     1      17.393  -1.505  53.186  1.00  0.00     0.123 A 
HETATM   22  C8  UNL     1      18.625  -1.100  53.301  1.00  0.00     0.071 A 
ENDBRANCH   6  19
BRANCH   1  23
HETATM   23  O1  UNL     1      22.204   3.465  47.548  1.00  0.00    -0.356 OA
HETATM   24  C1  UNL     1      22.094   3.469  46.150  1.00  0.00     0.210 C 
ENDBRANCH   1  23
BRANCH  16  25
HETATM   25  S1  UNL     1      23.140   7.451  50.639  1.00  0.00    -0.147 SA
HETATM   26  H20 UNL     1      21.906   7.889  51.204  1.00  0.00     0.107 HD
ENDBRANCH  16  25
TORSDOF 3
ENDMDL
MODEL 7
REMARK VINA RESULT:      -6.1      3.631      5.504
REMARK  3 active torsions:
REMARK  status: ('A' for Active; 'I' for Inactive)
REMARK    1  A    between atoms: O1_2  and  C2_3 
REMARK    2  A    between atoms: N2_8  and  C6_9 
REMARK    3  A    between atoms: C17_22  and  S1_23 
ROOT
HETATM    1  C2  UNL     1      22.833   3.752  49.535  1.00  0.00     0.065 C 
HETATM    2  C3  UNL     1      22.951   2.499  49.915  1.00  0.00     0.016 C 
HETATM    3  C4  UNL     1      23.226   1.685  51.121  1.00  0.00     0.086 C 
HETATM    4  C5  UNL     1      21.822   1.083  51.454  1.00  0.00     0.038 C 
HETATM    5  N1  UNL     1      20.998   0.104  51.654  1.00  0.00    -0.179 NA
HETATM    6  N2  UNL     1      19.665   0.521  51.757  1.00  0.00    -0.241 N 
HETATM    7  C9  UNL     1      19.622   1.803  51.137  1.00  0.00     0.066 C 
HETATM    8  C10 UNL     1      18.567   2.771  51.618  1.00  0.00     0.063 C 
HETATM    9  C11 UNL     1      18.810   4.043  50.826  1.00  0.00     0.008 C 
HETATM   10  C12 UNL     1      19.528   4.133  49.689  1.00  0.00     0.042 C 
HETATM   11  C13 UNL     1      19.174   2.922  48.913  1.00  0.00     0.067 C 
HETATM   12  C14 UNL     1      19.606   1.687  49.656  1.00  0.00     0.040 C 
HETATM   13  O2  UNL     1      20.392   4.913  49.094  1.00  0.00    -0.355 OA
HETATM   14  C15 UNL     1      20.669   6.001  48.353  1.00  0.00     0.180 C 
HETATM   15  C16 UNL     1      22.160   5.879  47.818  1.00  0.00     0.072 C 
HETATM   16  C17 UNL     1      22.207   4.574  47.132  1.00  0.00    -0.020 C 
HETATM   17  C18 UNL     1      22.514   3.848  48.135  1.00  0.00     0.050 C 
HETATM   18  C19 UNL     1      20.992   2.297  51.636  1.00  0.00     0.090 C 
ENDROOT
BRANCH   6  19
HETATM   19  C6  UNL     1      18.764  -0.364  52.398  1.00  0.00     0.147 A 
HETATM   20  N3  UNL     1      19.019  -1.150  53.414  1.00  0.00    -0.242 NA
HETATM   21  C7  UNL     1      17.705  -1.652  53.436  1.00  0.00     0.123 A 
HETATM   22  C8  UNL     1      17.418  -0.883  52.425  1.00  0.00     0.071 A 
ENDBRANCH   6  19
BRANCH   1  23
HETATM   23  O1  UNL     1      22.992   4.834  50.391  1.00  0.00    -0.356 OA
HETATM   24  C1  UNL     1      24.213   5.354  50.844  1.00  0.00     0.210 C 
ENDBRANCH   1  23
BRANCH  16  25
HETATM   25  S1  UNL     1      21.857   4.548  45.396  1.00  0.00    -0.147 SA
HETATM   26  H20 UNL     1      20.527   4.056  45.257  1.00  0.00     0.107 HD
ENDBRANCH  16  25
TORSDOF 3
ENDMDL
MODEL 8
REMARK VINA RESULT:      -6.0      3.620      6.604
REMARK  3 active torsions:
REMARK  status: ('A' for Active; 'I' for Inactive)
REMARK    1  A    between atoms: O1_2  and  C2_3 
REMARK    2  A    between atoms: N2_8  and  C6_9 
REMARK    3  A    between atoms: C17_22  and  S1_23 
ROOT
HETATM    1  C2  UNL     1      22.299   1.342  51.451  1.00  0.00     0.065 C 
HETATM    2  C3  UNL     1      21.847   1.116  50.236  1.00  0.00     0.016 C 
HETATM    3  C4  UNL     1      20.615   1.248  49.426  1.00  0.00     0.086 C 
HETATM    4  C5  UNL     1      20.951   2.453  48.489  1.00  0.00     0.038 C 
HETATM    5  N1  UNL     1      21.113   3.013  47.331  1.00  0.00    -0.179 NA
HETATM    6  N2  UNL     1      21.669   4.296  47.415  1.00  0.00    -0.241 N 
HETATM    7  C9  UNL     1      22.298   4.352  48.692  1.00  0.00     0.066 C 
HETATM    8  C10 UNL     1      22.416   5.707  49.348  1.00  0.00     0.063 C 
HETATM    9  C11 UNL     1      23.062   5.437  50.695  1.00  0.00     0.008 C 
HETATM   10  C12 UNL     1      23.733   4.318  51.032  1.00  0.00     0.042 C 
HETATM   11  C13 UNL     1      24.523   3.966  49.831  1.00  0.00     0.067 C 
HETATM   12  C14 UNL     1      23.606   3.647  48.682  1.00  0.00     0.040 C 
HETATM   13  O2  UNL     1      23.890   3.493  52.034  1.00  0.00    -0.355 OA
HETATM   14  C15 UNL     1      24.466   3.174  53.207  1.00  0.00     0.180 C 
HETATM   15  C16 UNL     1      24.232   1.626  53.477  1.00  0.00     0.072 C 
HETATM   16  C17 UNL     1      24.752   0.951  52.272  1.00  0.00    -0.020 C 
HETATM   17  C18 UNL     1      23.688   0.982  51.569  1.00  0.00     0.050 C 
HETATM   18  C19 UNL     1      21.239   3.537  49.457  1.00  0.00     0.090 C 
ENDROOT
BRANCH   6  19
HETATM   19  C6  UNL     1      21.483   5.149  46.300  1.00  0.00     0.147 A 
HETATM   20  N3  UNL     1      20.524   6.024  46.127  1.00  0.00    -0.242 NA
HETATM   21  C7  UNL     1      21.023   6.416  44.871  1.00  0.00     0.123 A 
HETATM   22  C8  UNL     1      21.989   5.554  45.011  1.00  0.00     0.071 A 
ENDBRANCH   6  19
BRANCH   1  23
HETATM   23  O1  UNL     1      21.522   1.866  52.475  1.00  0.00    -0.356 OA
HETATM   24  C1  UNL     1      20.514   1.188  53.175  1.00  0.00     0.210 C 
ENDBRANCH   1  23
BRANCH  16  25
HETATM   25  S1  UNL     1      26.445   0.433  52.289  1.00  0.00    -0.147 SA
HETATM   26  H20 UNL     1      26.434  -0.990  52.213  1.00  0.00     0.107 HD
ENDBRANCH  16  25
TORSDOF 3
ENDMDL
MODEL 9
REMARK VINA RESULT:      -5.9      3.797      5.072
REMARK  3 active torsions:
REMARK  status: ('A' for Active; 'I' for Inactive)
REMARK    1  A    between atoms: O1_2  and  C2_3 
REMARK    2  A    between atoms: N2_8  and  C6_9 
REMARK    3  A    between atoms: C17_22  and  S1_23 
ROOT
HETATM    1  C2  UNL     1      19.859   4.960  48.807  1.00  0.00     0.065 C 
HETATM    2  C3  UNL     1      19.658   4.904  50.105  1.00  0.00     0.016 C 
HETATM    3  C4  UNL     1      18.703   4.360  51.097  1.00  0.00     0.086 C 
HETATM    4  C5  UNL     1      19.501   3.167  51.719  1.00  0.00     0.038 C 
HETATM    5  N1  UNL     1      20.043   2.522  52.704  1.00  0.00    -0.179 NA
HETATM    6  N2  UNL     1      20.832   1.444  52.285  1.00  0.00    -0.241 N 
HETATM    7  C9  UNL     1      21.150   1.716  50.923  1.00  0.00     0.066 C 
HETATM    8  C10 UNL     1      21.411   0.532  50.022  1.00  0.00     0.063 C 
HETATM    9  C11 UNL     1      21.657   1.130  48.648  1.00  0.00     0.008 C 
HETATM   10  C12 UNL     1      21.970   2.417  48.399  1.00  0.00     0.042 C 
HETATM   11  C13 UNL     1      22.916   2.799  49.472  1.00  0.00     0.067 C 
HETATM   12  C14 UNL     1      22.238   2.722  50.812  1.00  0.00     0.040 C 
HETATM   13  O2  UNL     1      21.709   3.378  47.552  1.00  0.00    -0.355 OA
HETATM   14  C15 UNL     1      21.917   3.983  46.368  1.00  0.00     0.180 C 
HETATM   15  C16 UNL     1      21.293   5.443  46.433  1.00  0.00     0.072 C 
HETATM   16  C17 UNL     1      21.912   6.064  47.619  1.00  0.00    -0.020 C 
HETATM   17  C18 UNL     1      21.070   5.672  48.494  1.00  0.00     0.050 C 
HETATM   18  C19 UNL     1      19.792   2.328  50.534  1.00  0.00     0.090 C 
ENDROOT
BRANCH   6  19
HETATM   19  C6  UNL     1      21.098   0.434  53.242  1.00  0.00     0.147 A 
HETATM   20  N3  UNL     1      22.222   0.231  53.883  1.00  0.00    -0.242 NA
HETATM   21  C7  UNL     1      21.697  -0.871  54.582  1.00  0.00     0.123 A 
HETATM   22  C8  UNL     1      20.565  -0.698  53.961  1.00  0.00     0.071 A 
ENDBRANCH   6  19
BRANCH   1  23
HETATM   23  O1  UNL     1      19.004   4.394  47.871  1.00  0.00    -0.356 OA
HETATM   24  C1  UNL     1      17.742   4.884  47.505  1.00  0.00     0.210 C 
ENDBRANCH   1  23
BRANCH  16  25
HETATM   25  S1  UNL     1      23.401   6.992  47.375  1.00  0.00    -0.147 SA
HETATM   26  H20 UNL     1      24.449   6.247  47.989  1.00  0.00     0.107 HD
ENDBRANCH  16  25
TORSDOF 3
ENDMDL
