MODEL 1
REMARK VINA RESULT:      -7.8      0.000      0.000
REMARK  6 active torsions:
REMARK  status: ('A' for Active; 'I' for Inactive)
REMARK    1  A    between atoms: N1_2  and  C2_3 
REMARK    2  A    between atoms: C3_4  and  C4_5 
REMARK    3  A    between atoms: C5_6  and  C6_7 
REMARK    4  A    between atoms: C9_11  and  N3_12 
REMARK    5  A    between atoms: N3_12  and  C10_13 
REMARK    6  A    between atoms: C14_17  and  N4_18 
ROOT
HETATM    1  N3  UNL     1      26.206   3.217  49.941  1.00  0.00    -0.188 N 
HETATM    2  H9  UNL     1      25.943   2.343  49.396  1.00  0.00     0.184 HD
ENDROOT
BRANCH   1   3
HETATM    3  C9  UNL     1      26.311   2.559  51.183  1.00  0.00     0.727 A 
HETATM    4  N2  UNL     1      25.094   2.099  51.599  1.00  0.00    -0.075 NA
HETATM    5  C8  UNL     1      24.981   1.422  52.750  1.00  0.00     0.139 A 
HETATM    6  C7  UNL     1      26.150   1.233  53.454  1.00  0.00     0.052 A 
HETATM    7  C6  UNL     1      27.395   1.679  53.074  1.00  0.00     0.077 A 
HETATM    8  N6  UNL     1      27.412   2.348  51.908  1.00  0.00    -0.063 NA
BRANCH   7   9
HETATM    9  C5  UNL     1      28.660   1.484  53.758  1.00  0.00     0.032 C 
HETATM   10  C4  UNL     1      29.508   0.487  53.832  1.00  0.00     0.004 C 
BRANCH  10  11
HETATM   11  C3  UNL     1      29.826  -0.869  53.423  1.00  0.00     0.019 C 
HETATM   12  C2  UNL     1      29.134  -1.967  53.189  1.00  0.00     0.115 C 
BRANCH  12  13
HETATM   13  N1  UNL     1      27.771  -2.320  53.231  1.00  0.00    -0.284 NA
HETATM   14  C1  UNL     1      26.957  -2.071  52.252  1.00  0.00     0.148 C 
ENDBRANCH  12  13
ENDBRANCH  10  11
ENDBRANCH   7   9
ENDBRANCH   1   3
BRANCH   1  15
HETATM   15  C10 UNL     1      26.337   4.483  49.328  1.00  0.00     0.051 A 
HETATM   16  C11 UNL     1      25.244   5.309  49.186  1.00  0.00     0.030 A 
HETATM   17  C12 UNL     1      25.530   6.494  48.544  1.00  0.00     0.004 A 
HETATM   18  C13 UNL     1      26.780   6.844  48.081  1.00  0.00     0.030 A 
HETATM   19  C14 UNL     1      27.834   5.972  48.257  1.00  0.00     0.042 A 
HETATM   20  C18 UNL     1      27.623   4.768  48.889  1.00  0.00     0.060 A 
BRANCH  19  21
HETATM   21  N4  UNL     1      29.145   6.282  47.795  1.00  0.00    -0.315 N 
HETATM   22  C15 UNL     1      29.470   7.352  47.047  1.00  0.00     0.117 A 
HETATM   23  C16 UNL     1      30.821   7.329  46.788  1.00  0.00     0.135 A 
HETATM   24  N5  UNL     1      31.327   6.234  47.385  1.00  0.00    -0.254 NA
HETATM   25  C17 UNL     1      30.310   5.602  47.994  1.00  0.00     0.214 A 
ENDBRANCH  19  21
ENDBRANCH   1  15
TORSDOF 6
ENDMDL
MODEL 2
REMARK VINA RESULT:      -7.7      4.120      8.606
REMARK  6 active torsions:
REMARK  status: ('A' for Active; 'I' for Inactive)
REMARK    1  A    between atoms: N1_2  and  C2_3 
REMARK    2  A    between atoms: C3_4  and  C4_5 
REMARK    3  A    between atoms: C5_6  and  C6_7 
REMARK    4  A    between atoms: C9_11  and  N3_12 
REMARK    5  A    between atoms: N3_12  and  C10_13 
REMARK    6  A    between atoms: C14_17  and  N4_18 
ROOT
HETATM    1  N3  UNL     1      23.309   1.530  53.075  1.00  0.00    -0.188 N 
HETATM    2  H9  UNL     1      22.929   2.521  53.034  1.00  0.00     0.184 HD
ENDROOT
BRANCH   1   3
HETATM    3  C9  UNL     1      24.587   1.868  52.585  1.00  0.00     0.727 A 
HETATM    4  N2  UNL     1      24.523   2.263  51.279  1.00  0.00    -0.075 NA
HETATM    5  C8  UNL     1      25.629   2.650  50.631  1.00  0.00     0.139 A 
HETATM    6  C7  UNL     1      26.796   2.620  51.364  1.00  0.00     0.052 A 
HETATM    7  C6  UNL     1      26.908   2.229  52.677  1.00  0.00     0.077 A 
HETATM    8  N6  UNL     1      25.747   1.857  53.246  1.00  0.00    -0.063 NA
BRANCH   7   9
HETATM    9  C5  UNL     1      28.100   2.207  53.504  1.00  0.00     0.032 C 
HETATM   10  C4  UNL     1      28.992   1.290  53.787  1.00  0.00     0.004 C 
BRANCH  10  11
HETATM   11  C3  UNL     1      29.433  -0.078  53.583  1.00  0.00     0.019 C 
HETATM   12  C2  UNL     1      28.839  -1.248  53.453  1.00  0.00     0.115 C 
BRANCH  12  13
HETATM   13  N1  UNL     1      27.504  -1.699  53.453  1.00  0.00    -0.284 NA
HETATM   14  C1  UNL     1      26.767  -1.690  52.386  1.00  0.00     0.148 C 
ENDBRANCH  12  13
ENDBRANCH  10  11
ENDBRANCH   7   9
ENDBRANCH   1   3
BRANCH   1  15
HETATM   15  C10 UNL     1      22.536   0.439  53.532  1.00  0.00     0.051 A 
HETATM   16  C11 UNL     1      23.095  -0.522  54.346  1.00  0.00     0.030 A 
HETATM   17  C12 UNL     1      22.221  -1.534  54.681  1.00  0.00     0.004 A 
HETATM   18  C13 UNL     1      20.912  -1.600  54.258  1.00  0.00     0.030 A 
HETATM   19  C14 UNL     1      20.413  -0.604  53.444  1.00  0.00     0.042 A 
HETATM   20  C18 UNL     1      21.229   0.439  53.068  1.00  0.00     0.060 A 
BRANCH  19  21
HETATM   21  N4  UNL     1      19.069  -0.626  52.975  1.00  0.00    -0.315 N 
HETATM   22  C15 UNL     1      18.595   0.096  51.944  1.00  0.00     0.117 A 
HETATM   23  C16 UNL     1      17.257  -0.178  51.777  1.00  0.00     0.135 A 
HETATM   24  N5  UNL     1      16.910  -1.078  52.715  1.00  0.00    -0.254 NA
HETATM   25  C17 UNL     1      18.008  -1.348  53.439  1.00  0.00     0.214 A 
ENDBRANCH  19  21
ENDBRANCH   1  15
TORSDOF 6
ENDMDL
MODEL 3
REMARK VINA RESULT:      -7.7      2.069      7.368
REMARK  6 active torsions:
REMARK  status: ('A' for Active; 'I' for Inactive)
REMARK    1  A    between atoms: N1_2  and  C2_3 
REMARK    2  A    between atoms: C3_4  and  C4_5 
REMARK    3  A    between atoms: C5_6  and  C6_7 
REMARK    4  A    between atoms: C9_11  and  N3_12 
REMARK    5  A    between atoms: N3_12  and  C10_13 
REMARK    6  A    between atoms: C14_17  and  N4_18 
ROOT
HETATM    1  N3  UNL     1      26.617   3.510  49.347  1.00  0.00    -0.188 N 
HETATM    2  H9  UNL     1      26.732   2.948  48.454  1.00  0.00     0.184 HD
ENDROOT
BRANCH   1   3
HETATM    3  C9  UNL     1      27.274   4.657  48.856  1.00  0.00     0.727 A 
HETATM    4  N2  UNL     1      26.403   5.699  48.716  1.00  0.00    -0.075 NA
HETATM    5  C8  UNL     1      26.833   6.892  48.283  1.00  0.00     0.139 A 
HETATM    6  C7  UNL     1      28.179   6.979  48.002  1.00  0.00     0.052 A 
HETATM    7  C6  UNL     1      29.092   5.957  48.126  1.00  0.00     0.077 A 
HETATM    8  N6  UNL     1      28.569   4.798  48.566  1.00  0.00    -0.063 NA
BRANCH   7   9
HETATM    9  C5  UNL     1      30.520   6.000  47.875  1.00  0.00     0.032 C 
HETATM   10  C4  UNL     1      31.395   5.120  47.454  1.00  0.00     0.004 C 
BRANCH  10  11
HETATM   11  C3  UNL     1      31.629   3.758  47.008  1.00  0.00     0.019 C 
HETATM   12  C2  UNL     1      32.689   3.041  46.690  1.00  0.00     0.115 C 
BRANCH  12  13
HETATM   13  N1  UNL     1      34.078   3.274  46.640  1.00  0.00    -0.284 NA
HETATM   14  C1  UNL     1      34.797   3.416  47.710  1.00  0.00     0.148 C 
ENDBRANCH  12  13
ENDBRANCH  10  11
ENDBRANCH   7   9
ENDBRANCH   1   3
BRANCH   1  15
HETATM   15  C10 UNL     1      25.959   2.998  50.488  1.00  0.00     0.051 A 
HETATM   16  C11 UNL     1      24.611   3.211  50.672  1.00  0.00     0.030 A 
HETATM   17  C12 UNL     1      24.126   2.674  51.845  1.00  0.00     0.004 A 
HETATM   18  C13 UNL     1      24.893   1.986  52.760  1.00  0.00     0.030 A 
HETATM   19  C14 UNL     1      26.238   1.807  52.514  1.00  0.00     0.042 A 
HETATM   20  C18 UNL     1      26.794   2.317  51.363  1.00  0.00     0.060 A 
BRANCH  19  21
HETATM   21  N4  UNL     1      27.077   1.107  53.428  1.00  0.00    -0.315 N 
HETATM   22  C15 UNL     1      28.421   1.170  53.450  1.00  0.00     0.117 A 
HETATM   23  C16 UNL     1      28.894   0.366  54.463  1.00  0.00     0.135 A 
HETATM   24  N5  UNL     1      27.828  -0.192  55.065  1.00  0.00    -0.254 NA
HETATM   25  C17 UNL     1      26.730   0.258  54.436  1.00  0.00     0.214 A 
ENDBRANCH  19  21
ENDBRANCH   1  15
TORSDOF 6
ENDMDL
MODEL 4
REMARK VINA RESULT:      -7.7      1.963      7.970
REMARK  6 active torsions:
REMARK  status: ('A' for Active; 'I' for Inactive)
REMARK    1  A    between atoms: N1_2  and  C2_3 
REMARK    2  A    between atoms: C3_4  and  C4_5 
REMARK    3  A    between atoms: C5_6  and  C6_7 
REMARK    4  A    between atoms: C9_11  and  N3_12 
REMARK    5  A    between atoms: N3_12  and  C10_13 
REMARK    6  A    between atoms: C14_17  and  N4_18 
ROOT
HETATM    1  N3  UNL     1      23.758   2.504  50.749  1.00  0.00    -0.188 N 
HETATM    2  H9  UNL     1      22.965   2.583  50.047  1.00  0.00     0.184 HD
ENDROOT
BRANCH   1   3
HETATM    3  C9  UNL     1      24.434   3.657  50.301  1.00  0.00     0.727 A 
HETATM    4  N2  UNL     1      23.698   4.782  50.542  1.00  0.00    -0.075 NA
HETATM    5  C8  UNL     1      24.174   5.990  50.212  1.00  0.00     0.139 A 
HETATM    6  C7  UNL     1      25.423   6.005  49.630  1.00  0.00     0.052 A 
HETATM    7  C6  UNL     1      26.198   4.900  49.368  1.00  0.00     0.077 A 
HETATM    8  N6  UNL     1      25.639   3.732  49.732  1.00  0.00    -0.063 NA
BRANCH   7   9
HETATM    9  C5  UNL     1      27.528   4.858  48.788  1.00  0.00     0.032 C 
HETATM   10  C4  UNL     1      28.273   5.735  48.161  1.00  0.00     0.004 C 
BRANCH  10  11
HETATM   11  C3  UNL     1      28.386   7.091  47.656  1.00  0.00     0.019 C 
HETATM   12  C2  UNL     1      28.426   8.295  48.195  1.00  0.00     0.115 C 
BRANCH  12  13
HETATM   13  N1  UNL     1      28.376   8.808  49.506  1.00  0.00    -0.284 NA
HETATM   14  C1  UNL     1      27.257   9.076  50.105  1.00  0.00     0.148 C 
ENDBRANCH  12  13
ENDBRANCH  10  11
ENDBRANCH   7   9
ENDBRANCH   1   3
BRANCH   1  15
HETATM   15  C10 UNL     1      23.826   1.466  51.706  1.00  0.00     0.051 A 
HETATM   16  C11 UNL     1      22.681   0.824  52.123  1.00  0.00     0.030 A 
HETATM   17  C12 UNL     1      22.911  -0.142  53.078  1.00  0.00     0.004 A 
HETATM   18  C13 UNL     1      24.155  -0.455  53.582  1.00  0.00     0.030 A 
HETATM   19  C14 UNL     1      25.261   0.226  53.121  1.00  0.00     0.042 A 
HETATM   20  C18 UNL     1      25.109   1.206  52.167  1.00  0.00     0.060 A 
BRANCH  19  21
HETATM   21  N4  UNL     1      26.569  -0.055  53.610  1.00  0.00    -0.315 N 
HETATM   22  C15 UNL     1      27.538  -0.682  52.919  1.00  0.00     0.117 A 
HETATM   23  C16 UNL     1      28.663  -0.780  53.705  1.00  0.00     0.135 A 
HETATM   24  N5  UNL     1      28.379  -0.206  54.889  1.00  0.00    -0.254 NA
HETATM   25  C17 UNL     1      27.111   0.232  54.829  1.00  0.00     0.214 A 
ENDBRANCH  19  21
ENDBRANCH   1  15
TORSDOF 6
ENDMDL
MODEL 5
REMARK VINA RESULT:      -7.7      2.854      7.897
REMARK  6 active torsions:
REMARK  status: ('A' for Active; 'I' for Inactive)
REMARK    1  A    between atoms: N1_2  and  C2_3 
REMARK    2  A    between atoms: C3_4  and  C4_5 
REMARK    3  A    between atoms: C5_6  and  C6_7 
REMARK    4  A    between atoms: C9_11  and  N3_12 
REMARK    5  A    between atoms: N3_12  and  C10_13 
REMARK    6  A    between atoms: C14_17  and  N4_18 
ROOT
HETATM    1  N3  UNL     1      21.735   1.230  51.744  1.00  0.00    -0.188 N 
HETATM    2  H9  UNL     1      20.722   1.552  51.723  1.00  0.00     0.184 HD
ENDROOT
BRANCH   1   3
HETATM    3  C9  UNL     1      22.092   1.869  50.539  1.00  0.00     0.727 A 
HETATM    4  N2  UNL     1      21.749   1.105  49.460  1.00  0.00    -0.075 NA
HETATM    5  C8  UNL     1      21.982   1.544  48.216  1.00  0.00     0.139 A 
HETATM    6  C7  UNL     1      22.573   2.785  48.117  1.00  0.00     0.052 A 
HETATM    7  C6  UNL     1      22.935   3.587  49.174  1.00  0.00     0.077 A 
HETATM    8  N6  UNL     1      22.664   3.065  50.384  1.00  0.00    -0.063 NA
BRANCH   7   9
HETATM    9  C5  UNL     1      23.530   4.910  49.130  1.00  0.00     0.032 C 
HETATM   10  C4  UNL     1      24.763   5.351  49.088  1.00  0.00     0.004 C 
BRANCH  10  11
HETATM   11  C3  UNL     1      26.173   5.009  49.056  1.00  0.00     0.019 C 
HETATM   12  C2  UNL     1      26.899   3.973  49.431  1.00  0.00     0.115 C 
BRANCH  12  13
HETATM   13  N1  UNL     1      26.630   2.727  50.033  1.00  0.00    -0.284 NA
HETATM   14  C1  UNL     1      26.500   2.589  51.316  1.00  0.00     0.148 C 
ENDBRANCH  12  13
ENDBRANCH  10  11
ENDBRANCH   7   9
ENDBRANCH   1   3
BRANCH   1  15
HETATM   15  C10 UNL     1      22.257   0.434  52.788  1.00  0.00     0.051 A 
HETATM   16  C11 UNL     1      21.412  -0.205  53.670  1.00  0.00     0.030 A 
HETATM   17  C12 UNL     1      22.075  -0.917  54.646  1.00  0.00     0.004 A 
HETATM   18  C13 UNL     1      23.446  -1.000  54.751  1.00  0.00     0.030 A 
HETATM   19  C14 UNL     1      24.235  -0.337  53.834  1.00  0.00     0.042 A 
HETATM   20  C18 UNL     1      23.643   0.396  52.831  1.00  0.00     0.060 A 
BRANCH  19  21
HETATM   21  N4  UNL     1      25.657  -0.387  53.898  1.00  0.00    -0.315 N 
HETATM   22  C15 UNL     1      26.461  -0.863  52.931  1.00  0.00     0.117 A 
HETATM   23  C16 UNL     1      27.771  -0.754  53.338  1.00  0.00     0.135 A 
HETATM   24  N5  UNL     1      27.767  -0.205  54.566  1.00  0.00    -0.254 NA
HETATM   25  C17 UNL     1      26.486   0.017  54.903  1.00  0.00     0.214 A 
ENDBRANCH  19  21
ENDBRANCH   1  15
TORSDOF 6
ENDMDL
MODEL 6
REMARK VINA RESULT:      -7.6      1.653      7.733
REMARK  6 active torsions:
REMARK  status: ('A' for Active; 'I' for Inactive)
REMARK    1  A    between atoms: N1_2  and  C2_3 
REMARK    2  A    between atoms: C3_4  and  C4_5 
REMARK    3  A    between atoms: C5_6  and  C6_7 
REMARK    4  A    between atoms: C9_11  and  N3_12 
REMARK    5  A    between atoms: N3_12  and  C10_13 
REMARK    6  A    between atoms: C14_17  and  N4_18 
ROOT
HETATM    1  N3  UNL     1      25.777   3.288  49.850  1.00  0.00    -0.188 N 
HETATM    2  H9  UNL     1      25.288   3.016  48.947  1.00  0.00     0.184 HD
ENDROOT
BRANCH   1   3
HETATM    3  C9  UNL     1      26.497   4.358  49.282  1.00  0.00     0.727 A 
HETATM    4  N2  UNL     1      25.731   5.488  49.222  1.00  0.00    -0.075 NA
HETATM    5  C8  UNL     1      26.238   6.628  48.735  1.00  0.00     0.139 A 
HETATM    6  C7  UNL     1      27.550   6.571  48.315  1.00  0.00     0.052 A 
HETATM    7  C6  UNL     1      28.357   5.458  48.356  1.00  0.00     0.077 A 
HETATM    8  N6  UNL     1      27.763   4.361  48.859  1.00  0.00    -0.063 NA
BRANCH   7   9
HETATM    9  C5  UNL     1      29.748   5.348  47.958  1.00  0.00     0.032 C 
HETATM   10  C4  UNL     1      30.851   5.947  48.336  1.00  0.00     0.004 C 
BRANCH  10  11
HETATM   11  C3  UNL     1      31.457   6.934  49.211  1.00  0.00     0.019 C 
HETATM   12  C2  UNL     1      31.307   8.229  49.415  1.00  0.00     0.115 C 
BRANCH  12  13
HETATM   13  N1  UNL     1      30.488   9.240  48.873  1.00  0.00    -0.284 NA
HETATM   14  C1  UNL     1      29.351   9.570  49.402  1.00  0.00     0.148 C 
ENDBRANCH  12  13
ENDBRANCH  10  11
ENDBRANCH   7   9
ENDBRANCH   1   3
BRANCH   1  15
HETATM   15  C10 UNL     1      25.557   2.606  51.069  1.00  0.00     0.051 A 
HETATM   16  C11 UNL     1      24.398   2.811  51.785  1.00  0.00     0.030 A 
HETATM   17  C12 UNL     1      24.348   2.096  52.962  1.00  0.00     0.004 A 
HETATM   18  C13 UNL     1      25.345   1.252  53.402  1.00  0.00     0.030 A 
HETATM   19  C14 UNL     1      26.480   1.091  52.635  1.00  0.00     0.042 A 
HETATM   20  C18 UNL     1      26.601   1.774  51.446  1.00  0.00     0.060 A 
BRANCH  19  21
HETATM   21  N4  UNL     1      27.541   0.235  53.044  1.00  0.00    -0.315 N 
HETATM   22  C15 UNL     1      28.720   0.646  53.545  1.00  0.00     0.117 A 
HETATM   23  C16 UNL     1      29.499  -0.453  53.828  1.00  0.00     0.135 A 
HETATM   24  N5  UNL     1      28.788  -1.546  53.498  1.00  0.00    -0.254 NA
HETATM   25  C17 UNL     1      27.603  -1.128  53.024  1.00  0.00     0.214 A 
ENDBRANCH  19  21
ENDBRANCH   1  15
TORSDOF 6
ENDMDL
MODEL 7
REMARK VINA RESULT:      -7.5      2.533      8.700
REMARK  6 active torsions:
REMARK  status: ('A' for Active; 'I' for Inactive)
REMARK    1  A    between atoms: N1_2  and  C2_3 
REMARK    2  A    between atoms: C3_4  and  C4_5 
REMARK    3  A    between atoms: C5_6  and  C6_7 
REMARK    4  A    between atoms: C9_11  and  N3_12 
REMARK    5  A    between atoms: N3_12  and  C10_13 
REMARK    6  A    between atoms: C14_17  and  N4_18 
ROOT
HETATM    1  N3  UNL     1      25.223   3.174  51.809  1.00  0.00    -0.188 N 
HETATM    2  H9  UNL     1      25.316   3.988  52.486  1.00  0.00     0.184 HD
ENDROOT
BRANCH   1   3
HETATM    3  C9  UNL     1      24.941   3.980  50.688  1.00  0.00     0.727 A 
HETATM    4  N2  UNL     1      23.643   3.831  50.290  1.00  0.00    -0.075 NA
HETATM    5  C8  UNL     1      23.165   4.530  49.252  1.00  0.00     0.139 A 
HETATM    6  C7  UNL     1      24.058   5.383  48.640  1.00  0.00     0.052 A 
HETATM    7  C6  UNL     1      25.372   5.564  49.005  1.00  0.00     0.077 A 
HETATM    8  N6  UNL     1      25.763   4.821  50.055  1.00  0.00    -0.063 NA
BRANCH   7   9
HETATM    9  C5  UNL     1      26.346   6.466  48.418  1.00  0.00     0.032 C 
HETATM   10  C4  UNL     1      27.632   6.388  48.185  1.00  0.00     0.004 C 
BRANCH  10  11
HETATM   11  C3  UNL     1      28.835   5.579  48.276  1.00  0.00     0.019 C 
HETATM   12  C2  UNL     1      30.128   5.824  48.364  1.00  0.00     0.115 C 
BRANCH  12  13
HETATM   13  N1  UNL     1      30.928   6.983  48.406  1.00  0.00    -0.284 NA
HETATM   14  C1  UNL     1      31.541   7.365  49.484  1.00  0.00     0.148 C 
ENDBRANCH  12  13
ENDBRANCH  10  11
ENDBRANCH   7   9
ENDBRANCH   1   3
BRANCH   1  15
HETATM   15  C10 UNL     1      25.393   1.830  52.209  1.00  0.00     0.051 A 
HETATM   16  C11 UNL     1      26.580   1.173  51.966  1.00  0.00     0.030 A 
HETATM   17  C12 UNL     1      26.577  -0.138  52.390  1.00  0.00     0.004 A 
HETATM   18  C13 UNL     1      25.508  -0.755  53.001  1.00  0.00     0.030 A 
HETATM   19  C14 UNL     1      24.348  -0.040  53.216  1.00  0.00     0.042 A 
HETATM   20  C18 UNL     1      24.277   1.276  52.818  1.00  0.00     0.060 A 
BRANCH  19  21
HETATM   21  N4  UNL     1      23.212  -0.630  53.840  1.00  0.00    -0.315 N 
HETATM   22  C15 UNL     1      21.948  -0.542  53.389  1.00  0.00     0.117 A 
HETATM   23  C16 UNL     1      21.115  -1.231  54.241  1.00  0.00     0.135 A 
HETATM   24  N5  UNL     1      21.879  -1.746  55.222  1.00  0.00    -0.254 NA
HETATM   25  C17 UNL     1      23.148  -1.381  54.976  1.00  0.00     0.214 A 
ENDBRANCH  19  21
ENDBRANCH   1  15
TORSDOF 6
ENDMDL
MODEL 8
REMARK VINA RESULT:      -7.3      2.505      3.704
REMARK  6 active torsions:
REMARK  status: ('A' for Active; 'I' for Inactive)
REMARK    1  A    between atoms: N1_2  and  C2_3 
REMARK    2  A    between atoms: C3_4  and  C4_5 
REMARK    3  A    between atoms: C5_6  and  C6_7 
REMARK    4  A    between atoms: C9_11  and  N3_12 
REMARK    5  A    between atoms: N3_12  and  C10_13 
REMARK    6  A    between atoms: C14_17  and  N4_18 
ROOT
HETATM    1  N3  UNL     1      24.689   4.770  50.152  1.00  0.00    -0.188 N 
HETATM    2  H9  UNL     1      23.976   5.403  50.621  1.00  0.00     0.184 HD
ENDROOT
BRANCH   1   3
HETATM    3  C9  UNL     1      23.983   3.577  50.409  1.00  0.00     0.727 A 
HETATM    4  N2  UNL     1      23.097   3.306  49.406  1.00  0.00    -0.075 NA
HETATM    5  C8  UNL     1      22.342   2.200  49.447  1.00  0.00     0.139 A 
HETATM    6  C7  UNL     1      22.526   1.387  50.544  1.00  0.00     0.052 A 
HETATM    7  C6  UNL     1      23.403   1.621  51.577  1.00  0.00     0.077 A 
HETATM    8  N6  UNL     1      24.118   2.753  51.451  1.00  0.00    -0.063 NA
BRANCH   7   9
HETATM    9  C5  UNL     1      23.660   0.788  52.737  1.00  0.00     0.032 C 
HETATM   10  C4  UNL     1      24.655   0.015  53.098  1.00  0.00     0.004 C 
BRANCH  10  11
HETATM   11  C3  UNL     1      25.963  -0.516  52.761  1.00  0.00     0.019 C 
HETATM   12  C2  UNL     1      27.118  -0.640  53.387  1.00  0.00     0.115 C 
BRANCH  12  13
HETATM   13  N1  UNL     1      27.603  -0.311  54.668  1.00  0.00    -0.284 NA
HETATM   14  C1  UNL     1      28.788   0.183  54.856  1.00  0.00     0.148 C 
ENDBRANCH  12  13
ENDBRANCH  10  11
ENDBRANCH   7   9
ENDBRANCH   1   3
BRANCH   1  15
HETATM   15  C10 UNL     1      25.865   5.268  49.547  1.00  0.00     0.051 A 
HETATM   16  C11 UNL     1      26.805   4.405  49.029  1.00  0.00     0.030 A 
HETATM   17  C12 UNL     1      27.905   5.045  48.500  1.00  0.00     0.004 A 
HETATM   18  C13 UNL     1      28.072   6.412  48.478  1.00  0.00     0.030 A 
HETATM   19  C14 UNL     1      27.092   7.221  49.014  1.00  0.00     0.042 A 
HETATM   20  C18 UNL     1      25.964   6.652  49.561  1.00  0.00     0.060 A 
BRANCH  19  21
HETATM   21  N4  UNL     1      27.216   8.640  49.021  1.00  0.00    -0.315 N 
HETATM   22  C15 UNL     1      28.375   9.317  48.934  1.00  0.00     0.117 A 
HETATM   23  C16 UNL     1      28.114  10.667  48.972  1.00  0.00     0.135 A 
HETATM   24  N5  UNL     1      26.781  10.816  49.083  1.00  0.00    -0.254 NA
HETATM   25  C17 UNL     1      26.240   9.588  49.112  1.00  0.00     0.214 A 
ENDBRANCH  19  21
ENDBRANCH   1  15
TORSDOF 6
ENDMDL
MODEL 9
REMARK VINA RESULT:      -7.3      1.981      7.885
REMARK  6 active torsions:
REMARK  status: ('A' for Active; 'I' for Inactive)
REMARK    1  A    between atoms: N1_2  and  C2_3 
REMARK    2  A    between atoms: C3_4  and  C4_5 
REMARK    3  A    between atoms: C5_6  and  C6_7 
REMARK    4  A    between atoms: C9_11  and  N3_12 
REMARK    5  A    between atoms: N3_12  and  C10_13 
REMARK    6  A    between atoms: C14_17  and  N4_18 
ROOT
HETATM    1  N3  UNL     1      26.684   3.443  49.434  1.00  0.00    -0.188 N 
HETATM    2  H9  UNL     1      27.185   2.905  48.668  1.00  0.00     0.184 HD
ENDROOT
BRANCH   1   3
HETATM    3  C9  UNL     1      27.024   4.716  48.932  1.00  0.00     0.727 A 
HETATM    4  N2  UNL     1      28.351   4.779  48.615  1.00  0.00    -0.075 NA
HETATM    5  C8  UNL     1      28.873   5.899  48.097  1.00  0.00     0.139 A 
HETATM    6  C7  UNL     1      27.994   6.944  47.915  1.00  0.00     0.052 A 
HETATM    7  C6  UNL     1      26.653   6.925  48.220  1.00  0.00     0.077 A 
HETATM    8  N6  UNL     1      26.218   5.762  48.735  1.00  0.00    -0.063 NA
BRANCH   7   9
HETATM    9  C5  UNL     1      25.677   7.981  48.023  1.00  0.00     0.032 C 
HETATM   10  C4  UNL     1      24.719   8.483  48.763  1.00  0.00     0.004 C 
BRANCH  10  11
HETATM   11  C3  UNL     1      24.017   8.439  50.032  1.00  0.00     0.019 C 
HETATM   12  C2  UNL     1      23.426   7.502  50.749  1.00  0.00     0.115 C 
BRANCH  12  13
HETATM   13  N1  UNL     1      23.210   6.117  50.603  1.00  0.00    -0.284 NA
HETATM   14  C1  UNL     1      22.114   5.634  50.106  1.00  0.00     0.148 C 
ENDBRANCH  12  13
ENDBRANCH  10  11
ENDBRANCH   7   9
ENDBRANCH   1   3
BRANCH   1  15
HETATM   15  C10 UNL     1      25.981   2.802  50.479  1.00  0.00     0.051 A 
HETATM   16  C11 UNL     1      24.605   2.844  50.525  1.00  0.00     0.030 A 
HETATM   17  C12 UNL     1      24.073   2.197  51.620  1.00  0.00     0.004 A 
HETATM   18  C13 UNL     1      24.822   1.562  52.586  1.00  0.00     0.030 A 
HETATM   19  C14 UNL     1      26.197   1.556  52.480  1.00  0.00     0.042 A 
HETATM   20  C18 UNL     1      26.800   2.183  51.413  1.00  0.00     0.060 A 
BRANCH  19  21
HETATM   21  N4  UNL     1      27.018   0.918  53.452  1.00  0.00    -0.315 N 
HETATM   22  C15 UNL     1      28.363   0.941  53.467  1.00  0.00     0.117 A 
HETATM   23  C16 UNL     1      28.816   0.220  54.548  1.00  0.00     0.135 A 
HETATM   24  N5  UNL     1      27.737  -0.248  55.201  1.00  0.00    -0.254 NA
HETATM   25  C17 UNL     1      26.650   0.176  54.535  1.00  0.00     0.214 A 
ENDBRANCH  19  21
ENDBRANCH   1  15
TORSDOF 6
ENDMDL
