MODEL 1
REMARK VINA RESULT:      -9.7      0.000      0.000
REMARK  2 active torsions:
REMARK  status: ('A' for Active; 'I' for Inactive)
REMARK    1  A    between atoms: C1_2  and  C2_3 
REMARK    2  A    between atoms: C6_7  and  C7_8 
ROOT
HETATM    1  C7  UNL     1      26.112   1.076  53.152  1.00  0.00     0.147 A 
HETATM    2  C8  UNL     1      26.396   2.094  52.131  1.00  0.00     0.235 A 
HETATM    3  O2  UNL     1      27.554   2.579  52.048  1.00  0.00    -0.272 OA
HETATM    4  N1  UNL     1      25.220   2.364  51.366  1.00  0.00    -0.326 N 
HETATM    5  C9  UNL     1      24.165   1.543  51.861  1.00  0.00     0.043 A 
HETATM    6  C10 UNL     1      22.839   1.394  51.500  1.00  0.00     0.042 A 
HETATM    7  C11 UNL     1      21.977   0.519  52.131  1.00  0.00    -0.024 A 
HETATM    8  C12 UNL     1      20.589   0.302  51.826  1.00  0.00    -0.026 A 
HETATM    9  C13 UNL     1      20.036   0.404  50.588  1.00  0.00     0.012 A 
HETATM   10  C14 UNL     1      18.701   0.198  50.282  1.00  0.00     0.001 A 
HETATM   11  C15 UNL     1      17.872  -0.140  51.334  1.00  0.00     0.000 A 
HETATM   12  C16 UNL     1      18.363  -0.263  52.618  1.00  0.00     0.001 A 
HETATM   13  C17 UNL     1      19.716  -0.039  52.845  1.00  0.00     0.012 A 
HETATM   14  C18 UNL     1      22.553  -0.215  53.174  1.00  0.00     0.013 A 
HETATM   15  C19 UNL     1      23.884  -0.114  53.590  1.00  0.00     0.011 A 
HETATM   16  C20 UNL     1      24.671   0.787  52.903  1.00  0.00    -0.014 A 
HETATM   17  H7  UNL     1      25.169   3.056  50.580  1.00  0.00     0.169 HD
ENDROOT
BRANCH   1  18
HETATM   18  C6  UNL     1      26.911  -0.145  53.050  1.00  0.00    -0.032 A 
HETATM   19  C2  UNL     1      28.191  -0.458  53.598  1.00  0.00    -0.009 A 
HETATM   20  C3  UNL     1      28.699  -1.644  53.358  1.00  0.00    -0.009 A 
HETATM   21  C4  UNL     1      27.655  -2.264  52.537  1.00  0.00     0.055 A 
HETATM   22  C5  UNL     1      26.598  -1.254  52.409  1.00  0.00    -0.014 A 
BRANCH  19  23
HETATM   23  C1  UNL     1      28.971   0.450  54.400  1.00  0.00     0.389 C 
HETATM   24  O1  UNL     1      29.333   1.470  55.022  1.00  0.00    -0.405 OA
ENDBRANCH  19  23
ENDBRANCH   1  18
TORSDOF 2
ENDMDL
MODEL 2
REMARK VINA RESULT:      -9.6      3.223      7.658
REMARK  2 active torsions:
REMARK  status: ('A' for Active; 'I' for Inactive)
REMARK    1  A    between atoms: C1_2  and  C2_3 
REMARK    2  A    between atoms: C6_7  and  C7_8 
ROOT
HETATM    1  C7  UNL     1      21.561   0.930  52.715  1.00  0.00     0.147 A 
HETATM    2  C8  UNL     1      21.090  -0.356  53.247  1.00  0.00     0.235 A 
HETATM    3  O2  UNL     1      19.854  -0.581  53.317  1.00  0.00    -0.272 OA
HETATM    4  N1  UNL     1      22.203  -1.173  53.613  1.00  0.00    -0.326 N 
HETATM    5  C9  UNL     1      23.401  -0.453  53.331  1.00  0.00     0.043 A 
HETATM    6  C10 UNL     1      24.741  -0.756  53.483  1.00  0.00     0.042 A 
HETATM    7  C11 UNL     1      25.756   0.111  53.135  1.00  0.00    -0.024 A 
HETATM    8  C12 UNL     1      27.170  -0.117  53.260  1.00  0.00    -0.026 A 
HETATM    9  C13 UNL     1      27.778  -1.329  53.147  1.00  0.00     0.012 A 
HETATM   10  C14 UNL     1      29.138  -1.562  53.266  1.00  0.00     0.001 A 
HETATM   11  C15 UNL     1      29.933  -0.461  53.522  1.00  0.00     0.000 A 
HETATM   12  C16 UNL     1      29.386   0.799  53.649  1.00  0.00     0.001 A 
HETATM   13  C17 UNL     1      28.010   0.952  53.516  1.00  0.00     0.012 A 
HETATM   14  C18 UNL     1      25.323   1.334  52.611  1.00  0.00     0.013 A 
HETATM   15  C19 UNL     1      23.987   1.705  52.431  1.00  0.00     0.011 A 
HETATM   16  C20 UNL     1      23.040   0.775  52.807  1.00  0.00    -0.014 A 
HETATM   17  H7  UNL     1      22.124  -2.137  54.020  1.00  0.00     0.169 HD
ENDROOT
BRANCH   1  18
HETATM   18  C6  UNL     1      21.154   1.219  51.339  1.00  0.00    -0.032 A 
HETATM   19  C2  UNL     1      20.177   2.130  50.838  1.00  0.00    -0.009 A 
HETATM   20  C3  UNL     1      20.000   2.203  49.540  1.00  0.00    -0.009 A 
HETATM   21  C4  UNL     1      20.972   1.225  49.043  1.00  0.00     0.055 A 
HETATM   22  C5  UNL     1      21.630   0.676  50.235  1.00  0.00    -0.014 A 
BRANCH  19  23
HETATM   23  C1  UNL     1      19.363   2.979  51.670  1.00  0.00     0.389 C 
HETATM   24  O1  UNL     1      18.427   3.704  52.066  1.00  0.00    -0.405 OA
ENDBRANCH  19  23
ENDBRANCH   1  18
TORSDOF 2
ENDMDL
MODEL 3
REMARK VINA RESULT:      -8.9      3.115      7.291
REMARK  2 active torsions:
REMARK  status: ('A' for Active; 'I' for Inactive)
REMARK    1  A    between atoms: C1_2  and  C2_3 
REMARK    2  A    between atoms: C6_7  and  C7_8 
ROOT
HETATM    1  C7  UNL     1      22.871   2.633  51.864  1.00  0.00     0.147 A 
HETATM    2  C8  UNL     1      21.860   1.674  52.332  1.00  0.00     0.235 A 
HETATM    3  O2  UNL     1      20.643   1.986  52.281  1.00  0.00    -0.272 OA
HETATM    4  N1  UNL     1      22.493   0.478  52.791  1.00  0.00    -0.326 N 
HETATM    5  C9  UNL     1      23.902   0.627  52.634  1.00  0.00     0.043 A 
HETATM    6  C10 UNL     1      24.974  -0.201  52.908  1.00  0.00     0.042 A 
HETATM    7  C11 UNL     1      26.286   0.155  52.669  1.00  0.00    -0.024 A 
HETATM    8  C12 UNL     1      27.458  -0.637  52.925  1.00  0.00    -0.026 A 
HETATM    9  C13 UNL     1      27.514  -1.994  52.854  1.00  0.00     0.012 A 
HETATM   10  C14 UNL     1      28.636  -2.769  53.098  1.00  0.00     0.001 A 
HETATM   11  C15 UNL     1      29.790  -2.091  53.443  1.00  0.00     0.000 A 
HETATM   12  C16 UNL     1      29.808  -0.714  53.534  1.00  0.00     0.001 A 
HETATM   13  C17 UNL     1      28.640  -0.007  53.274  1.00  0.00     0.012 A 
HETATM   14  C18 UNL     1      26.452   1.433  52.123  1.00  0.00     0.013 A 
HETATM   15  C19 UNL     1      25.415   2.320  51.822  1.00  0.00     0.011 A 
HETATM   16  C20 UNL     1      24.136   1.879  52.095  1.00  0.00    -0.014 A 
HETATM   17  H7  UNL     1      21.983  -0.354  53.176  1.00  0.00     0.169 HD
ENDROOT
BRANCH   1  18
HETATM   18  C6  UNL     1      22.750   3.026  50.460  1.00  0.00    -0.032 A 
HETATM   19  C2  UNL     1      22.736   4.322  49.864  1.00  0.00    -0.009 A 
HETATM   20  C3  UNL     1      22.616   4.408  48.560  1.00  0.00    -0.009 A 
HETATM   21  C4  UNL     1      22.534   2.999  48.167  1.00  0.00     0.055 A 
HETATM   22  C5  UNL     1      22.627   2.231  49.415  1.00  0.00    -0.014 A 
BRANCH  19  23
HETATM   23  C1  UNL     1      22.844   5.554  50.604  1.00  0.00     0.389 C 
HETATM   24  O1  UNL     1      23.017   6.759  50.881  1.00  0.00    -0.405 OA
ENDBRANCH  19  23
ENDBRANCH   1  18
TORSDOF 2
ENDMDL
MODEL 4
REMARK VINA RESULT:      -8.8      3.414      4.757
REMARK  2 active torsions:
REMARK  status: ('A' for Active; 'I' for Inactive)
REMARK    1  A    between atoms: C1_2  and  C2_3 
REMARK    2  A    between atoms: C6_7  and  C7_8 
ROOT
HETATM    1  C7  UNL     1      26.355   0.123  52.617  1.00  0.00     0.147 A 
HETATM    2  C8  UNL     1      25.278  -0.194  53.565  1.00  0.00     0.235 A 
HETATM    3  O2  UNL     1      25.417  -1.162  54.357  1.00  0.00    -0.272 OA
HETATM    4  N1  UNL     1      24.194   0.721  53.401  1.00  0.00    -0.326 N 
HETATM    5  C9  UNL     1      24.534   1.639  52.364  1.00  0.00     0.043 A 
HETATM    6  C10 UNL     1      23.871   2.713  51.800  1.00  0.00     0.042 A 
HETATM    7  C11 UNL     1      24.402   3.480  50.783  1.00  0.00    -0.024 A 
HETATM    8  C12 UNL     1      23.786   4.608  50.138  1.00  0.00    -0.026 A 
HETATM    9  C13 UNL     1      22.932   5.480  50.739  1.00  0.00     0.012 A 
HETATM   10  C14 UNL     1      22.332   6.569  50.128  1.00  0.00     0.001 A 
HETATM   11  C15 UNL     1      22.635   6.774  48.796  1.00  0.00     0.000 A 
HETATM   12  C16 UNL     1      23.493   5.930  48.122  1.00  0.00     0.001 A 
HETATM   13  C17 UNL     1      24.056   4.858  48.804  1.00  0.00     0.012 A 
HETATM   14  C18 UNL     1      25.676   3.086  50.361  1.00  0.00     0.013 A 
HETATM   15  C19 UNL     1      26.402   2.012  50.885  1.00  0.00     0.011 A 
HETATM   16  C20 UNL     1      25.792   1.301  51.898  1.00  0.00    -0.014 A 
HETATM   17  H7  UNL     1      23.307   0.699  53.961  1.00  0.00     0.169 HD
ENDROOT
BRANCH   1  18
HETATM   18  C6  UNL     1      27.642   0.456  53.229  1.00  0.00    -0.032 A 
HETATM   19  C2  UNL     1      28.783  -0.364  53.480  1.00  0.00    -0.009 A 
HETATM   20  C3  UNL     1      29.831   0.183  54.049  1.00  0.00    -0.009 A 
HETATM   21  C4  UNL     1      29.393   1.570  54.229  1.00  0.00     0.055 A 
HETATM   22  C5  UNL     1      28.029   1.629  53.689  1.00  0.00    -0.014 A 
BRANCH  19  23
HETATM   23  C1  UNL     1      28.860  -1.764  53.151  1.00  0.00     0.389 C 
HETATM   24  O1  UNL     1      28.674  -2.999  53.172  1.00  0.00    -0.405 OA
ENDBRANCH  19  23
ENDBRANCH   1  18
TORSDOF 2
ENDMDL
MODEL 5
REMARK VINA RESULT:      -8.7      2.573      4.341
REMARK  2 active torsions:
REMARK  status: ('A' for Active; 'I' for Inactive)
REMARK    1  A    between atoms: C1_2  and  C2_3 
REMARK    2  A    between atoms: C6_7  and  C7_8 
ROOT
HETATM    1  C7  UNL     1      22.783  -0.582  53.220  1.00  0.00     0.147 A 
HETATM    2  C8  UNL     1      22.393  -1.018  54.568  1.00  0.00     0.235 A 
HETATM    3  O2  UNL     1      23.285  -1.325  55.400  1.00  0.00    -0.272 OA
HETATM    4  N1  UNL     1      20.970  -1.013  54.694  1.00  0.00    -0.326 N 
HETATM    5  C9  UNL     1      20.412  -0.579  53.456  1.00  0.00     0.043 A 
HETATM    6  C10 UNL     1      19.113  -0.389  53.023  1.00  0.00     0.042 A 
HETATM    7  C11 UNL     1      18.795   0.048  51.753  1.00  0.00    -0.024 A 
HETATM    8  C12 UNL     1      17.479   0.269  51.218  1.00  0.00    -0.026 A 
HETATM    9  C13 UNL     1      16.402   0.681  51.940  1.00  0.00     0.012 A 
HETATM   10  C14 UNL     1      15.130   0.898  51.437  1.00  0.00     0.001 A 
HETATM   11  C15 UNL     1      14.955   0.671  50.085  1.00  0.00     0.000 A 
HETATM   12  C16 UNL     1      16.002   0.251  49.290  1.00  0.00     0.001 A 
HETATM   13  C17 UNL     1      17.250   0.056  49.870  1.00  0.00     0.012 A 
HETATM   14  C18 UNL     1      19.899   0.288  50.927  1.00  0.00     0.013 A 
HETATM   15  C19 UNL     1      21.235   0.116  51.300  1.00  0.00     0.011 A 
HETATM   16  C20 UNL     1      21.458  -0.325  52.588  1.00  0.00    -0.014 A 
HETATM   17  H7  UNL     1      20.450  -1.288  55.563  1.00  0.00     0.169 HD
ENDROOT
BRANCH   1  18
HETATM   18  C6  UNL     1      23.621   0.617  53.174  1.00  0.00    -0.032 A 
HETATM   19  C2  UNL     1      25.041   0.751  53.202  1.00  0.00    -0.009 A 
HETATM   20  C3  UNL     1      25.555   1.957  53.146  1.00  0.00    -0.009 A 
HETATM   21  C4  UNL     1      24.358   2.797  53.066  1.00  0.00     0.055 A 
HETATM   22  C5  UNL     1      23.219   1.870  53.090  1.00  0.00    -0.014 A 
BRANCH  19  23
HETATM   23  C1  UNL     1      25.956  -0.359  53.292  1.00  0.00     0.389 C 
HETATM   24  O1  UNL     1      26.522  -1.400  53.687  1.00  0.00    -0.405 OA
ENDBRANCH  19  23
ENDBRANCH   1  18
TORSDOF 2
ENDMDL
MODEL 6
REMARK VINA RESULT:      -8.4      2.357      3.283
REMARK  2 active torsions:
REMARK  status: ('A' for Active; 'I' for Inactive)
REMARK    1  A    between atoms: C1_2  and  C2_3 
REMARK    2  A    between atoms: C6_7  and  C7_8 
ROOT
HETATM    1  C7  UNL     1      23.625   3.365  52.718  1.00  0.00     0.147 A 
HETATM    2  C8  UNL     1      22.986   4.586  52.206  1.00  0.00     0.235 A 
HETATM    3  O2  UNL     1      23.668   5.636  52.089  1.00  0.00    -0.272 OA
HETATM    4  N1  UNL     1      21.610   4.336  51.917  1.00  0.00    -0.326 N 
HETATM    5  C9  UNL     1      21.326   2.973  52.225  1.00  0.00     0.043 A 
HETATM    6  C10 UNL     1      20.180   2.206  52.139  1.00  0.00     0.042 A 
HETATM    7  C11 UNL     1      20.132   0.874  52.499  1.00  0.00    -0.024 A 
HETATM    8  C12 UNL     1      18.989   0.004  52.446  1.00  0.00    -0.026 A 
HETATM    9  C13 UNL     1      17.985   0.089  51.532  1.00  0.00     0.012 A 
HETATM   10  C14 UNL     1      16.878  -0.742  51.470  1.00  0.00     0.001 A 
HETATM   11  C15 UNL     1      16.801  -1.738  52.425  1.00  0.00     0.000 A 
HETATM   12  C16 UNL     1      17.783  -1.884  53.384  1.00  0.00     0.001 A 
HETATM   13  C17 UNL     1      18.864  -1.010  53.380  1.00  0.00     0.012 A 
HETATM   14  C18 UNL     1      21.345   0.352  52.962  1.00  0.00     0.013 A 
HETATM   15  C19 UNL     1      22.539   1.070  53.075  1.00  0.00     0.011 A 
HETATM   16  C20 UNL     1      22.493   2.395  52.693  1.00  0.00    -0.014 A 
HETATM   17  H7  UNL     1      20.942   5.053  51.543  1.00  0.00     0.169 HD
ENDROOT
BRANCH   1  18
HETATM   18  C6  UNL     1      24.748   2.871  51.921  1.00  0.00    -0.032 A 
HETATM   19  C2  UNL     1      25.921   2.164  52.319  1.00  0.00    -0.009 A 
HETATM   20  C3  UNL     1      26.791   1.828  51.396  1.00  0.00    -0.009 A 
HETATM   21  C4  UNL     1      26.167   2.357  50.181  1.00  0.00     0.055 A 
HETATM   22  C5  UNL     1      24.912   2.981  50.617  1.00  0.00    -0.014 A 
BRANCH  19  23
HETATM   23  C1  UNL     1      26.218   1.793  53.680  1.00  0.00     0.389 C 
HETATM   24  O1  UNL     1      26.803   1.331  54.682  1.00  0.00    -0.405 OA
ENDBRANCH  19  23
ENDBRANCH   1  18
TORSDOF 2
ENDMDL
MODEL 7
REMARK VINA RESULT:      -8.3      3.696      6.567
REMARK  2 active torsions:
REMARK  status: ('A' for Active; 'I' for Inactive)
REMARK    1  A    between atoms: C1_2  and  C2_3 
REMARK    2  A    between atoms: C6_7  and  C7_8 
ROOT
HETATM    1  C7  UNL     1      24.038   1.099  53.164  1.00  0.00     0.147 A 
HETATM    2  C8  UNL     1      25.148   0.265  52.682  1.00  0.00     0.235 A 
HETATM    3  O2  UNL     1      25.273  -0.908  53.117  1.00  0.00    -0.272 OA
HETATM    4  N1  UNL     1      25.937   0.995  51.741  1.00  0.00    -0.326 N 
HETATM    5  C9  UNL     1      25.369   2.293  51.589  1.00  0.00     0.043 A 
HETATM    6  C10 UNL     1      25.714   3.390  50.822  1.00  0.00     0.042 A 
HETATM    7  C11 UNL     1      25.004   4.574  50.832  1.00  0.00    -0.024 A 
HETATM    8  C12 UNL     1      25.291   5.761  50.073  1.00  0.00    -0.026 A 
HETATM    9  C13 UNL     1      25.860   5.779  48.838  1.00  0.00     0.012 A 
HETATM   10  C14 UNL     1      26.142   6.915  48.097  1.00  0.00     0.001 A 
HETATM   11  C15 UNL     1      25.812   8.126  48.675  1.00  0.00     0.000 A 
HETATM   12  C16 UNL     1      25.231   8.184  49.926  1.00  0.00     0.001 A 
HETATM   13  C17 UNL     1      24.980   6.999  50.607  1.00  0.00     0.012 A 
HETATM   14  C18 UNL     1      23.896   4.581  51.686  1.00  0.00     0.013 A 
HETATM   15  C19 UNL     1      23.491   3.510  52.488  1.00  0.00     0.011 A 
HETATM   16  C20 UNL     1      24.261   2.367  52.414  1.00  0.00    -0.014 A 
HETATM   17  H7  UNL     1      26.787   0.615  51.257  1.00  0.00     0.169 HD
ENDROOT
BRANCH   1  18
HETATM   18  C6  UNL     1      22.701   0.567  52.898  1.00  0.00    -0.032 A 
HETATM   19  C2  UNL     1      21.894  -0.325  53.665  1.00  0.00    -0.009 A 
HETATM   20  C3  UNL     1      20.711  -0.653  53.200  1.00  0.00    -0.009 A 
HETATM   21  C4  UNL     1      20.659   0.097  51.942  1.00  0.00     0.055 A 
HETATM   22  C5  UNL     1      21.936   0.815  51.853  1.00  0.00    -0.014 A 
BRANCH  19  23
HETATM   23  C1  UNL     1      22.295  -0.897  54.925  1.00  0.00     0.389 C 
HETATM   24  O1  UNL     1      22.881  -1.600  55.775  1.00  0.00    -0.405 OA
ENDBRANCH  19  23
ENDBRANCH   1  18
TORSDOF 2
ENDMDL
MODEL 8
REMARK VINA RESULT:      -8.3      3.093      7.411
REMARK  2 active torsions:
REMARK  status: ('A' for Active; 'I' for Inactive)
REMARK    1  A    between atoms: C1_2  and  C2_3 
REMARK    2  A    between atoms: C6_7  and  C7_8 
ROOT
HETATM    1  C7  UNL     1      21.675   2.555  52.522  1.00  0.00     0.147 A 
HETATM    2  C8  UNL     1      20.916   1.306  52.364  1.00  0.00     0.235 A 
HETATM    3  O2  UNL     1      19.678   1.359  52.150  1.00  0.00    -0.272 OA
HETATM    4  N1  UNL     1      21.788   0.183  52.492  1.00  0.00    -0.326 N 
HETATM    5  C9  UNL     1      23.109   0.664  52.730  1.00  0.00     0.043 A 
HETATM    6  C10 UNL     1      24.322   0.031  52.926  1.00  0.00     0.042 A 
HETATM    7  C11 UNL     1      25.504   0.711  53.143  1.00  0.00    -0.024 A 
HETATM    8  C12 UNL     1      26.804   0.138  53.358  1.00  0.00    -0.026 A 
HETATM    9  C13 UNL     1      27.243  -1.030  52.816  1.00  0.00     0.012 A 
HETATM   10  C14 UNL     1      28.493  -1.592  53.016  1.00  0.00     0.001 A 
HETATM   11  C15 UNL     1      29.358  -0.897  53.839  1.00  0.00     0.000 A 
HETATM   12  C16 UNL     1      28.982   0.295  54.424  1.00  0.00     0.001 A 
HETATM   13  C17 UNL     1      27.709   0.795  54.175  1.00  0.00     0.012 A 
HETATM   14  C18 UNL     1      25.380   2.105  53.150  1.00  0.00     0.013 A 
HETATM   15  C19 UNL     1      24.187   2.808  52.959  1.00  0.00     0.011 A 
HETATM   16  C20 UNL     1      23.057   2.046  52.750  1.00  0.00    -0.014 A 
HETATM   17  H7  UNL     1      21.482  -0.819  52.421  1.00  0.00     0.169 HD
ENDROOT
BRANCH   1  18
HETATM   18  C6  UNL     1      21.637   3.454  51.369  1.00  0.00    -0.032 A 
HETATM   19  C2  UNL     1      21.723   3.169  49.973  1.00  0.00    -0.009 A 
HETATM   20  C3  UNL     1      21.660   4.169  49.127  1.00  0.00    -0.009 A 
HETATM   21  C4  UNL     1      21.509   5.319  50.022  1.00  0.00     0.055 A 
HETATM   22  C5  UNL     1      21.506   4.767  51.382  1.00  0.00    -0.014 A 
BRANCH  19  23
HETATM   23  C1  UNL     1      21.878   1.844  49.428  1.00  0.00     0.389 C 
HETATM   24  O1  UNL     1      21.617   0.728  48.933  1.00  0.00    -0.405 OA
ENDBRANCH  19  23
ENDBRANCH   1  18
TORSDOF 2
ENDMDL
MODEL 9
REMARK VINA RESULT:      -8.2      3.795      6.325
REMARK  2 active torsions:
REMARK  status: ('A' for Active; 'I' for Inactive)
REMARK    1  A    between atoms: C1_2  and  C2_3 
REMARK    2  A    between atoms: C6_7  and  C7_8 
ROOT
HETATM    1  C7  UNL     1      25.032   4.235  49.343  1.00  0.00     0.147 A 
HETATM    2  C8  UNL     1      26.460   3.974  49.571  1.00  0.00     0.235 A 
HETATM    3  O2  UNL     1      27.319   4.651  48.950  1.00  0.00    -0.272 OA
HETATM    4  N1  UNL     1      26.620   2.923  50.525  1.00  0.00    -0.326 N 
HETATM    5  C9  UNL     1      25.326   2.486  50.934  1.00  0.00     0.043 A 
HETATM    6  C10 UNL     1      24.894   1.517  51.820  1.00  0.00     0.042 A 
HETATM    7  C11 UNL     1      23.562   1.258  52.068  1.00  0.00    -0.024 A 
HETATM    8  C12 UNL     1      23.024   0.273  52.966  1.00  0.00    -0.026 A 
HETATM    9  C13 UNL     1      23.614  -0.134  54.122  1.00  0.00     0.012 A 
HETATM   10  C14 UNL     1      23.106  -1.082  54.996  1.00  0.00     0.001 A 
HETATM   11  C15 UNL     1      21.898  -1.656  54.649  1.00  0.00     0.000 A 
HETATM   12  C16 UNL     1      21.242  -1.293  53.490  1.00  0.00     0.001 A 
HETATM   13  C17 UNL     1      21.816  -0.333  52.665  1.00  0.00     0.012 A 
HETATM   14  C18 UNL     1      22.669   2.059  51.346  1.00  0.00     0.013 A 
HETATM   15  C19 UNL     1      23.037   3.055  50.436  1.00  0.00     0.011 A 
HETATM   16  C20 UNL     1      24.391   3.243  50.251  1.00  0.00    -0.014 A 
HETATM   17  H7  UNL     1      27.546   2.554  50.852  1.00  0.00     0.169 HD
ENDROOT
BRANCH   1  18
HETATM   18  C6  UNL     1      24.590   5.593  49.663  1.00  0.00    -0.032 A 
HETATM   19  C2  UNL     1      23.783   6.501  48.915  1.00  0.00    -0.009 A 
HETATM   20  C3  UNL     1      23.525   7.679  49.432  1.00  0.00    -0.009 A 
HETATM   21  C4  UNL     1      24.233   7.612  50.714  1.00  0.00     0.055 A 
HETATM   22  C5  UNL     1      24.855   6.283  50.755  1.00  0.00    -0.014 A 
BRANCH  19  23
HETATM   23  C1  UNL     1      23.230   6.209  47.617  1.00  0.00     0.389 C 
HETATM   24  O1  UNL     1      22.418   6.069  46.678  1.00  0.00    -0.405 OA
ENDBRANCH  19  23
ENDBRANCH   1  18
TORSDOF 2
ENDMDL
