MODEL 1
REMARK VINA RESULT:      -9.4      0.000      0.000
REMARK  4 active torsions:
REMARK  status: ('A' for Active; 'I' for Inactive)
REMARK    1  A    between atoms: C2_4  and  C3_5 
REMARK       I    between atoms: C3_5  and  N3_6 
REMARK    2  A    between atoms: C7_12  and  N5_13 
REMARK    3  A    between atoms: N5_13  and  C8_14 
REMARK    4  A    between atoms: N6_17  and  C11_18 
ROOT
HETATM    1  C1  UNL     1      25.916   2.999  50.573  1.00  0.00     0.180 C 
HETATM    2  N1  UNL     1      26.474   2.289  51.697  1.00  0.00    -0.271 N 
HETATM    3  N2  UNL     1      27.702   2.394  52.144  1.00  0.00    -0.166 NA
HETATM    4  C2  UNL     1      27.879   1.578  53.218  1.00  0.00     0.153 A 
HETATM    5  C4  UNL     1      26.693   0.942  53.436  1.00  0.00     0.009 A 
HETATM    6  C5  UNL     1      25.834   1.399  52.478  1.00  0.00     0.091 A 
HETATM    7  C6  UNL     1      24.477   0.903  52.447  1.00  0.00     0.112 A 
HETATM    8  N4  UNL     1      23.551   1.284  51.549  1.00  0.00    -0.060 NA
HETATM    9  C7  UNL     1      22.296   0.770  51.588  1.00  0.00     0.723 A 
HETATM   10  N7  UNL     1      21.948  -0.144  52.535  1.00  0.00    -0.075 NA
HETATM   11  C19 UNL     1      22.864  -0.553  53.461  1.00  0.00     0.146 A 
HETATM   12  C20 UNL     1      24.157  -0.021  53.419  1.00  0.00    -0.008 A 
HETATM   13  C21 UNL     1      25.009  -0.578  54.494  1.00  0.00     0.047 A 
HETATM   14  C22 UNL     1      26.396  -0.037  54.486  1.00  0.00     0.048 A 
ENDROOT
BRANCH   9  15
HETATM   15  N5  UNL     1      21.303   1.171  50.635  1.00  0.00    -0.216 N 
HETATM   16  H6  UNL     1      20.964   0.461  49.943  1.00  0.00     0.178 HD
BRANCH  15  17
HETATM   17  C8  UNL     1      20.782   2.508  50.619  1.00  0.00     0.129 C 
HETATM   18  C9  UNL     1      20.846   3.228  51.920  1.00  0.00     0.057 C 
HETATM   19  C10 UNL     1      21.714   4.445  51.695  1.00  0.00     0.276 C 
HETATM   20  N6  UNL     1      21.664   4.646  50.282  1.00  0.00     0.111 N 
HETATM   21  C18 UNL     1      21.606   3.340  49.661  1.00  0.00     0.299 C 
BRANCH  20  22
HETATM   22  C11 UNL     1      22.686   5.482  49.735  1.00  0.00     0.237 A 
HETATM   23  C12 UNL     1      23.192   4.771  48.475  1.00  0.00     0.063 C 
HETATM   24  C13 UNL     1      23.784   5.809  50.661  1.00  0.00     0.022 A 
HETATM   25  C14 UNL     1      24.213   7.002  51.043  1.00  0.00    -0.001 A 
HETATM   26  C15 UNL     1      23.515   8.155  50.480  1.00  0.00     0.003 A 
HETATM   27  C16 UNL     1      22.490   8.097  49.621  1.00  0.00     0.053 A 
HETATM   28  C17 UNL     1      22.076   6.746  49.248  1.00  0.00     0.191 A 
HETATM   29  O2  UNL     1      21.105   6.691  48.435  1.00  0.00    -0.290 OA
ENDBRANCH  20  22
ENDBRANCH  15  17
ENDBRANCH   9  15
BRANCH   4  30
HETATM   30  C3  UNL     1      29.141   1.449  53.965  1.00  0.00     0.270 C 
HETATM   31  N3  UNL     1      30.102   0.480  53.585  1.00  0.00    -0.365 N 
HETATM   32  H4  UNL     1      30.634   0.303  52.716  1.00  0.00     0.159 HD
HETATM   33  H5  UNL     1      30.585  -0.346  54.017  1.00  0.00     0.159 HD
HETATM   34  O1  UNL     1      29.417   2.176  54.952  1.00  0.00    -0.266 OA
ENDBRANCH   4  30
TORSDOF 4
ENDMDL
MODEL 2
REMARK VINA RESULT:      -8.7      3.626      5.595
REMARK  4 active torsions:
REMARK  status: ('A' for Active; 'I' for Inactive)
REMARK    1  A    between atoms: C2_4  and  C3_5 
REMARK       I    between atoms: C3_5  and  N3_6 
REMARK    2  A    between atoms: C7_12  and  N5_13 
REMARK    3  A    between atoms: N5_13  and  C8_14 
REMARK    4  A    between atoms: N6_17  and  C11_18 
ROOT
HETATM    1  C1  UNL     1      25.481   2.921  50.812  1.00  0.00     0.180 C 
HETATM    2  N1  UNL     1      26.184   2.242  51.873  1.00  0.00    -0.271 N 
HETATM    3  N2  UNL     1      27.437   2.426  52.210  1.00  0.00    -0.166 NA
HETATM    4  C2  UNL     1      27.763   1.615  53.253  1.00  0.00     0.153 A 
HETATM    5  C4  UNL     1      26.645   0.899  53.566  1.00  0.00     0.009 A 
HETATM    6  C5  UNL     1      25.676   1.305  52.695  1.00  0.00     0.091 A 
HETATM    7  C6  UNL     1      24.357   0.719  52.778  1.00  0.00     0.112 A 
HETATM    8  N4  UNL     1      23.331   1.044  51.971  1.00  0.00    -0.060 NA
HETATM    9  C7  UNL     1      22.122   0.447  52.114  1.00  0.00     0.723 A 
HETATM   10  N7  UNL     1      21.921  -0.496  53.076  1.00  0.00    -0.075 NA
HETATM   11  C19 UNL     1      22.941  -0.849  53.911  1.00  0.00     0.146 A 
HETATM   12  C20 UNL     1      24.187  -0.231  53.762  1.00  0.00    -0.008 A 
HETATM   13  C21 UNL     1      25.167  -0.738  54.749  1.00  0.00     0.047 A 
HETATM   14  C22 UNL     1      26.509  -0.106  54.626  1.00  0.00     0.048 A 
ENDROOT
BRANCH   9  15
HETATM   15  N5  UNL     1      21.023   0.788  51.258  1.00  0.00    -0.216 N 
HETATM   16  H6  UNL     1      21.129   0.627  50.229  1.00  0.00     0.178 HD
BRANCH  15  17
HETATM   17  C8  UNL     1      19.808   1.336  51.789  1.00  0.00     0.129 C 
HETATM   18  C9  UNL     1      19.115   2.313  50.906  1.00  0.00     0.057 C 
HETATM   19  C10 UNL     1      17.753   1.731  50.606  1.00  0.00     0.276 C 
HETATM   20  N6  UNL     1      17.536   0.801  51.669  1.00  0.00     0.111 N 
HETATM   21  C18 UNL     1      18.817   0.212  51.996  1.00  0.00     0.299 C 
BRANCH  20  22
HETATM   22  C11 UNL     1      16.512  -0.170  51.446  1.00  0.00     0.237 A 
HETATM   23  C12 UNL     1      16.802  -1.326  52.412  1.00  0.00     0.063 C 
HETATM   24  C13 UNL     1      16.385  -0.635  50.055  1.00  0.00     0.022 A 
HETATM   25  C14 UNL     1      15.322  -0.597  49.266  1.00  0.00    -0.001 A 
HETATM   26  C15 UNL     1      14.108  -0.022  49.839  1.00  0.00     0.003 A 
HETATM   27  C16 UNL     1      13.991   0.462  51.082  1.00  0.00     0.053 A 
HETATM   28  C17 UNL     1      15.207   0.384  51.889  1.00  0.00     0.191 A 
HETATM   29  O2  UNL     1      15.095   0.843  53.065  1.00  0.00    -0.290 OA
ENDBRANCH  20  22
ENDBRANCH  15  17
ENDBRANCH   9  15
BRANCH   4  30
HETATM   30  C3  UNL     1      29.092   1.565  53.883  1.00  0.00     0.270 C 
HETATM   31  N3  UNL     1      30.045   0.602  53.469  1.00  0.00    -0.365 N 
HETATM   32  H4  UNL     1      30.500   0.389  52.565  1.00  0.00     0.159 HD
HETATM   33  H5  UNL     1      30.593  -0.183  53.899  1.00  0.00     0.159 HD
HETATM   34  O1  UNL     1      29.434   2.356  54.797  1.00  0.00    -0.266 OA
ENDBRANCH   4  30
TORSDOF 4
ENDMDL
MODEL 3
REMARK VINA RESULT:      -8.6      4.193      6.268
REMARK  4 active torsions:
REMARK  status: ('A' for Active; 'I' for Inactive)
REMARK    1  A    between atoms: C2_4  and  C3_5 
REMARK       I    between atoms: C3_5  and  N3_6 
REMARK    2  A    between atoms: C7_12  and  N5_13 
REMARK    3  A    between atoms: N5_13  and  C8_14 
REMARK    4  A    between atoms: N6_17  and  C11_18 
ROOT
HETATM    1  C1  UNL     1      24.591  -1.018  55.385  1.00  0.00     0.180 C 
HETATM    2  N1  UNL     1      25.615  -0.407  54.576  1.00  0.00    -0.271 N 
HETATM    3  N2  UNL     1      26.909  -0.546  54.733  1.00  0.00    -0.166 NA
HETATM    4  C2  UNL     1      27.574   0.175  53.790  1.00  0.00     0.153 A 
HETATM    5  C4  UNL     1      26.631   0.784  53.016  1.00  0.00     0.009 A 
HETATM    6  C5  UNL     1      25.421   0.409  53.523  1.00  0.00     0.091 A 
HETATM    7  C6  UNL     1      24.210   0.901  52.906  1.00  0.00     0.112 A 
HETATM    8  N4  UNL     1      22.968   0.595  53.324  1.00  0.00    -0.060 NA
HETATM    9  C7  UNL     1      21.880   1.099  52.689  1.00  0.00     0.723 A 
HETATM   10  N7  UNL     1      22.023   1.926  51.616  1.00  0.00    -0.075 NA
HETATM   11  C19 UNL     1      23.268   2.256  51.167  1.00  0.00     0.146 A 
HETATM   12  C20 UNL     1      24.389   1.735  51.823  1.00  0.00    -0.008 A 
HETATM   13  C21 UNL     1      25.649   2.200  51.200  1.00  0.00     0.047 A 
HETATM   14  C22 UNL     1      26.867   1.667  51.869  1.00  0.00     0.048 A 
ENDROOT
BRANCH   9  15
HETATM   15  N5  UNL     1      20.554   0.778  53.127  1.00  0.00    -0.216 N 
HETATM   16  H6  UNL     1      20.114   1.385  53.860  1.00  0.00     0.178 HD
BRANCH  15  17
HETATM   17  C8  UNL     1      19.840  -0.341  52.585  1.00  0.00     0.129 C 
HETATM   18  C9  UNL     1      19.148  -1.197  53.586  1.00  0.00     0.057 C 
HETATM   19  C10 UNL     1      17.675  -1.147  53.250  1.00  0.00     0.276 C 
HETATM   20  N6  UNL     1      17.650  -0.749  51.878  1.00  0.00     0.111 N 
HETATM   21  C18 UNL     1      18.747   0.174  51.675  1.00  0.00     0.299 C 
BRANCH  20  22
HETATM   22  C11 UNL     1      16.400  -0.250  51.397  1.00  0.00     0.237 A 
HETATM   23  C12 UNL     1      16.459  -0.350  49.869  1.00  0.00     0.063 C 
HETATM   24  C13 UNL     1      16.059   1.111  51.846  1.00  0.00     0.022 A 
HETATM   25  C14 UNL     1      14.985   1.516  52.506  1.00  0.00    -0.001 A 
HETATM   26  C15 UNL     1      14.001   0.490  52.839  1.00  0.00     0.003 A 
HETATM   27  C16 UNL     1      14.101  -0.809  52.532  1.00  0.00     0.053 A 
HETATM   28  C17 UNL     1      15.313  -1.177  51.804  1.00  0.00     0.191 A 
HETATM   29  O2  UNL     1      15.408  -2.407  51.514  1.00  0.00    -0.290 OA
ENDBRANCH  20  22
ENDBRANCH  15  17
ENDBRANCH   9  15
BRANCH   4  30
HETATM   30  C3  UNL     1      29.040   0.243  53.676  1.00  0.00     0.270 C 
HETATM   31  N3  UNL     1      29.725   1.447  53.973  1.00  0.00    -0.365 N 
HETATM   32  H4  UNL     1      29.794   2.042  54.815  1.00  0.00     0.159 HD
HETATM   33  H5  UNL     1      30.364   2.118  53.480  1.00  0.00     0.159 HD
HETATM   34  O1  UNL     1      29.735  -0.741  53.319  1.00  0.00    -0.266 OA
ENDBRANCH   4  30
TORSDOF 4
ENDMDL
MODEL 4
REMARK VINA RESULT:      -8.5      3.502      5.649
REMARK  4 active torsions:
REMARK  status: ('A' for Active; 'I' for Inactive)
REMARK    1  A    between atoms: C2_4  and  C3_5 
REMARK       I    between atoms: C3_5  and  N3_6 
REMARK    2  A    between atoms: C7_12  and  N5_13 
REMARK    3  A    between atoms: N5_13  and  C8_14 
REMARK    4  A    between atoms: N6_17  and  C11_18 
ROOT
HETATM    1  C1  UNL     1      21.379   2.592  51.124  1.00  0.00     0.180 C 
HETATM    2  N1  UNL     1      21.848   1.546  51.998  1.00  0.00    -0.271 N 
HETATM    3  N2  UNL     1      21.100   0.769  52.742  1.00  0.00    -0.166 NA
HETATM    4  C2  UNL     1      21.880  -0.103  53.438  1.00  0.00     0.153 A 
HETATM    5  C4  UNL     1      23.174   0.159  53.095  1.00  0.00     0.009 A 
HETATM    6  C5  UNL     1      23.130   1.188  52.200  1.00  0.00     0.091 A 
HETATM    7  C6  UNL     1      24.364   1.699  51.645  1.00  0.00     0.112 A 
HETATM    8  N4  UNL     1      24.435   2.707  50.757  1.00  0.00    -0.060 NA
HETATM    9  C7  UNL     1      25.634   3.128  50.283  1.00  0.00     0.723 A 
HETATM   10  N7  UNL     1      26.791   2.541  50.698  1.00  0.00    -0.075 NA
HETATM   11  C19 UNL     1      26.754   1.515  51.597  1.00  0.00     0.146 A 
HETATM   12  C20 UNL     1      25.515   1.082  52.084  1.00  0.00    -0.008 A 
HETATM   13  C21 UNL     1      25.669  -0.033  53.046  1.00  0.00     0.047 A 
HETATM   14  C22 UNL     1      24.373  -0.524  53.590  1.00  0.00     0.048 A 
ENDROOT
BRANCH   9  15
HETATM   15  N5  UNL     1      25.720   4.202  49.337  1.00  0.00    -0.216 N 
HETATM   16  H6  UNL     1      25.137   4.144  48.468  1.00  0.00     0.178 HD
BRANCH  15  17
HETATM   17  C8  UNL     1      26.577   5.330  49.565  1.00  0.00     0.129 C 
HETATM   18  C9  UNL     1      27.682   5.494  48.583  1.00  0.00     0.057 C 
HETATM   19  C10 UNL     1      27.470   6.834  47.916  1.00  0.00     0.276 C 
HETATM   20  N6  UNL     1      26.650   7.551  48.841  1.00  0.00     0.111 N 
HETATM   21  C18 UNL     1      25.755   6.595  49.457  1.00  0.00     0.299 C 
BRANCH  20  22
HETATM   22  C11 UNL     1      25.976   8.696  48.317  1.00  0.00     0.237 A 
HETATM   23  C12 UNL     1      24.650   8.797  49.080  1.00  0.00     0.063 C 
HETATM   24  C13 UNL     1      25.772   8.686  46.859  1.00  0.00     0.022 A 
HETATM   25  C14 UNL     1      26.165   9.580  45.965  1.00  0.00    -0.001 A 
HETATM   26  C15 UNL     1      26.898  10.734  46.478  1.00  0.00     0.003 A 
HETATM   27  C16 UNL     1      27.198  10.952  47.765  1.00  0.00     0.053 A 
HETATM   28  C17 UNL     1      26.730   9.921  48.689  1.00  0.00     0.191 A 
HETATM   29  O2  UNL     1      27.014  10.128  49.906  1.00  0.00    -0.290 OA
ENDBRANCH  20  22
ENDBRANCH  15  17
ENDBRANCH   9  15
BRANCH   4  30
HETATM   30  C3  UNL     1      21.365  -1.118  54.371  1.00  0.00     0.270 C 
HETATM   31  N3  UNL     1      20.060  -1.643  54.208  1.00  0.00    -0.365 N 
HETATM   32  H4  UNL     1      19.582  -2.148  53.443  1.00  0.00     0.159 HD
HETATM   33  H5  UNL     1      19.172  -1.703  54.765  1.00  0.00     0.159 HD
HETATM   34  O1  UNL     1      22.045  -1.555  55.333  1.00  0.00    -0.266 OA
ENDBRANCH   4  30
TORSDOF 4
ENDMDL
MODEL 5
REMARK VINA RESULT:      -8.5      3.698      5.725
REMARK  4 active torsions:
REMARK  status: ('A' for Active; 'I' for Inactive)
REMARK    1  A    between atoms: C2_4  and  C3_5 
REMARK       I    between atoms: C3_5  and  N3_6 
REMARK    2  A    between atoms: C7_12  and  N5_13 
REMARK    3  A    between atoms: N5_13  and  C8_14 
REMARK    4  A    between atoms: N6_17  and  C11_18 
ROOT
HETATM    1  C1  UNL     1      23.429  -0.773  53.865  1.00  0.00     0.180 C 
HETATM    2  N1  UNL     1      24.749  -0.222  53.683  1.00  0.00    -0.271 N 
HETATM    3  N2  UNL     1      25.822  -0.549  54.362  1.00  0.00    -0.166 NA
HETATM    4  C2  UNL     1      26.889   0.172  53.922  1.00  0.00     0.153 A 
HETATM    5  C4  UNL     1      26.439   0.980  52.920  1.00  0.00     0.009 A 
HETATM    6  C5  UNL     1      25.106   0.719  52.789  1.00  0.00     0.091 A 
HETATM    7  C6  UNL     1      24.339   1.431  51.792  1.00  0.00     0.112 A 
HETATM    8  N4  UNL     1      23.022   1.251  51.579  1.00  0.00    -0.060 NA
HETATM    9  C7  UNL     1      22.373   1.960  50.621  1.00  0.00     0.723 A 
HETATM   10  N7  UNL     1      23.040   2.869  49.857  1.00  0.00    -0.075 NA
HETATM   11  C19 UNL     1      24.376   3.075  50.048  1.00  0.00     0.146 A 
HETATM   12  C20 UNL     1      25.043   2.342  51.035  1.00  0.00    -0.008 A 
HETATM   13  C21 UNL     1      26.479   2.697  51.099  1.00  0.00     0.047 A 
HETATM   14  C22 UNL     1      27.227   1.939  52.139  1.00  0.00     0.048 A 
ENDROOT
BRANCH   9  15
HETATM   15  N5  UNL     1      20.971   1.775  50.388  1.00  0.00    -0.216 N 
HETATM   16  H6  UNL     1      20.649   1.623  49.403  1.00  0.00     0.178 HD
BRANCH  15  17
HETATM   17  C8  UNL     1      20.026   1.798  51.467  1.00  0.00     0.129 C 
HETATM   18  C9  UNL     1      19.381   3.115  51.717  1.00  0.00     0.057 C 
HETATM   19  C10 UNL     1      17.897   2.912  51.513  1.00  0.00     0.276 C 
HETATM   20  N6  UNL     1      17.717   1.504  51.679  1.00  0.00     0.111 N 
HETATM   21  C18 UNL     1      18.892   0.852  51.140  1.00  0.00     0.299 C 
BRANCH  20  22
HETATM   22  C11 UNL     1      16.494   0.968  51.170  1.00  0.00     0.237 A 
HETATM   23  C12 UNL     1      16.877  -0.278  50.363  1.00  0.00     0.063 C 
HETATM   24  C13 UNL     1      15.684   1.909  50.378  1.00  0.00     0.022 A 
HETATM   25  C14 UNL     1      14.431   2.289  50.578  1.00  0.00    -0.001 A 
HETATM   26  C15 UNL     1      13.751   1.705  51.730  1.00  0.00     0.003 A 
HETATM   27  C16 UNL     1      14.290   0.829  52.588  1.00  0.00     0.053 A 
HETATM   28  C17 UNL     1      15.675   0.461  52.300  1.00  0.00     0.191 A 
HETATM   29  O2  UNL     1      16.185  -0.369  53.111  1.00  0.00    -0.290 OA
ENDBRANCH  20  22
ENDBRANCH  15  17
ENDBRANCH   9  15
BRANCH   4  30
HETATM   30  C3  UNL     1      28.252   0.055  54.466  1.00  0.00     0.270 C 
HETATM   31  N3  UNL     1      29.070  -1.046  54.116  1.00  0.00    -0.365 N 
HETATM   32  H4  UNL     1      29.431  -1.414  53.219  1.00  0.00     0.159 HD
HETATM   33  H5  UNL     1      29.571  -1.829  54.606  1.00  0.00     0.159 HD
HETATM   34  O1  UNL     1      28.740   0.910  55.247  1.00  0.00    -0.266 OA
ENDBRANCH   4  30
TORSDOF 4
ENDMDL
MODEL 6
REMARK VINA RESULT:      -8.4      3.954      5.589
REMARK  4 active torsions:
REMARK  status: ('A' for Active; 'I' for Inactive)
REMARK    1  A    between atoms: C2_4  and  C3_5 
REMARK       I    between atoms: C3_5  and  N3_6 
REMARK    2  A    between atoms: C7_12  and  N5_13 
REMARK    3  A    between atoms: N5_13  and  C8_14 
REMARK    4  A    between atoms: N6_17  and  C11_18 
ROOT
HETATM    1  C1  UNL     1      25.582   2.333  53.011  1.00  0.00     0.180 C 
HETATM    2  N1  UNL     1      24.492   1.395  53.121  1.00  0.00    -0.271 N 
HETATM    3  N2  UNL     1      24.314   0.528  54.087  1.00  0.00    -0.166 NA
HETATM    4  C2  UNL     1      23.182  -0.193  53.863  1.00  0.00     0.153 A 
HETATM    5  C4  UNL     1      22.643   0.261  52.696  1.00  0.00     0.009 A 
HETATM    6  C5  UNL     1      23.474   1.248  52.251  1.00  0.00     0.091 A 
HETATM    7  C6  UNL     1      23.165   1.933  51.017  1.00  0.00     0.112 A 
HETATM    8  N4  UNL     1      23.915   2.918  50.489  1.00  0.00    -0.060 NA
HETATM    9  C7  UNL     1      23.554   3.513  49.323  1.00  0.00     0.723 A 
HETATM   10  N7  UNL     1      22.429   3.123  48.663  1.00  0.00    -0.075 NA
HETATM   11  C19 UNL     1      21.647   2.128  49.172  1.00  0.00     0.146 A 
HETATM   12  C20 UNL     1      22.019   1.516  50.374  1.00  0.00    -0.008 A 
HETATM   13  C21 UNL     1      21.058   0.463  50.770  1.00  0.00     0.047 A 
HETATM   14  C22 UNL     1      21.418  -0.214  52.046  1.00  0.00     0.048 A 
ENDROOT
BRANCH   9  15
HETATM   15  N5  UNL     1      24.347   4.563  48.754  1.00  0.00    -0.216 N 
HETATM   16  H6  UNL     1      24.050   4.963  47.832  1.00  0.00     0.178 HD
BRANCH  15  17
HETATM   17  C8  UNL     1      25.517   5.058  49.420  1.00  0.00     0.129 C 
HETATM   18  C9  UNL     1      26.768   4.297  49.154  1.00  0.00     0.057 C 
HETATM   19  C10 UNL     1      27.731   5.266  48.508  1.00  0.00     0.276 C 
HETATM   20  N6  UNL     1      27.238   6.550  48.894  1.00  0.00     0.111 N 
HETATM   21  C18 UNL     1      25.794   6.464  48.934  1.00  0.00     0.299 C 
BRANCH  20  22
HETATM   22  C11 UNL     1      27.714   7.657  48.126  1.00  0.00     0.237 A 
HETATM   23  C12 UNL     1      26.477   8.290  47.477  1.00  0.00     0.063 C 
HETATM   24  C13 UNL     1      28.749   7.326  47.133  1.00  0.00     0.022 A 
HETATM   25  C14 UNL     1      29.968   7.828  47.014  1.00  0.00    -0.001 A 
HETATM   26  C15 UNL     1      30.351   8.844  47.989  1.00  0.00     0.003 A 
HETATM   27  C16 UNL     1      29.574   9.300  48.980  1.00  0.00     0.053 A 
HETATM   28  C17 UNL     1      28.244   8.698  49.044  1.00  0.00     0.191 A 
HETATM   29  O2  UNL     1      27.509   9.129  49.982  1.00  0.00    -0.290 OA
ENDBRANCH  20  22
ENDBRANCH  15  17
ENDBRANCH   9  15
BRANCH   4  30
HETATM   30  C3  UNL     1      22.683  -1.254  54.753  1.00  0.00     0.270 C 
HETATM   31  N3  UNL     1      23.438  -1.655  55.883  1.00  0.00    -0.365 N 
HETATM   32  H4  UNL     1      23.789  -1.161  56.720  1.00  0.00     0.159 HD
HETATM   33  H5  UNL     1      23.879  -2.534  56.250  1.00  0.00     0.159 HD
HETATM   34  O1  UNL     1      21.589  -1.840  54.556  1.00  0.00    -0.266 OA
ENDBRANCH   4  30
TORSDOF 4
ENDMDL
MODEL 7
REMARK VINA RESULT:      -8.4      2.632      7.220
REMARK  4 active torsions:
REMARK  status: ('A' for Active; 'I' for Inactive)
REMARK    1  A    between atoms: C2_4  and  C3_5 
REMARK       I    between atoms: C3_5  and  N3_6 
REMARK    2  A    between atoms: C7_12  and  N5_13 
REMARK    3  A    between atoms: N5_13  and  C8_14 
REMARK    4  A    between atoms: N6_17  and  C11_18 
ROOT
HETATM    1  C1  UNL     1      26.556   3.623  49.339  1.00  0.00     0.180 C 
HETATM    2  N1  UNL     1      26.229   5.020  49.198  1.00  0.00    -0.271 N 
HETATM    3  N2  UNL     1      26.935   5.916  48.552  1.00  0.00    -0.166 NA
HETATM    4  C2  UNL     1      26.327   7.131  48.627  1.00  0.00     0.153 A 
HETATM    5  C4  UNL     1      25.189   6.964  49.360  1.00  0.00     0.009 A 
HETATM    6  C5  UNL     1      25.149   5.644  49.705  1.00  0.00     0.091 A 
HETATM    7  C6  UNL     1      24.045   5.151  50.497  1.00  0.00     0.112 A 
HETATM    8  N4  UNL     1      23.907   3.872  50.892  1.00  0.00    -0.060 NA
HETATM    9  C7  UNL     1      22.839   3.489  51.635  1.00  0.00     0.723 A 
HETATM   10  N7  UNL     1      21.884   4.390  51.997  1.00  0.00    -0.075 NA
HETATM   11  C19 UNL     1      21.994   5.694  51.613  1.00  0.00     0.146 A 
HETATM   12  C20 UNL     1      23.096   6.088  50.846  1.00  0.00    -0.008 A 
HETATM   13  C21 UNL     1      23.048   7.532  50.525  1.00  0.00     0.047 A 
HETATM   14  C22 UNL     1      24.205   7.993  49.710  1.00  0.00     0.048 A 
ENDROOT
BRANCH   9  15
HETATM   15  N5  UNL     1      22.684   2.128  52.059  1.00  0.00    -0.216 N 
HETATM   16  H6  UNL     1      21.988   1.528  51.556  1.00  0.00     0.178 HD
BRANCH  15  17
HETATM   17  C8  UNL     1      23.456   1.594  53.144  1.00  0.00     0.129 C 
HETATM   18  C9  UNL     1      23.341   0.123  53.340  1.00  0.00     0.057 C 
HETATM   19  C10 UNL     1      24.731  -0.444  53.158  1.00  0.00     0.276 C 
HETATM   20  N6  UNL     1      25.590   0.674  53.388  1.00  0.00     0.111 N 
HETATM   21  C18 UNL     1      24.921   1.848  52.870  1.00  0.00     0.299 C 
BRANCH  20  22
HETATM   22  C11 UNL     1      26.931   0.536  52.914  1.00  0.00     0.237 A 
HETATM   23  C12 UNL     1      27.015   1.358  51.623  1.00  0.00     0.063 C 
HETATM   24  C13 UNL     1      27.381  -0.852  52.714  1.00  0.00     0.022 A 
HETATM   25  C14 UNL     1      28.423  -1.466  53.252  1.00  0.00    -0.001 A 
HETATM   26  C15 UNL     1      29.243  -0.677  54.165  1.00  0.00     0.003 A 
HETATM   27  C16 UNL     1      29.025   0.602  54.496  1.00  0.00     0.053 A 
HETATM   28  C17 UNL     1      27.857   1.209  53.861  1.00  0.00     0.191 A 
HETATM   29  O2  UNL     1      27.650   2.420  54.174  1.00  0.00    -0.290 OA
ENDBRANCH  20  22
ENDBRANCH  15  17
ENDBRANCH   9  15
BRANCH   4  30
HETATM   30  C3  UNL     1      26.849   8.362  48.011  1.00  0.00     0.270 C 
HETATM   31  N3  UNL     1      28.182   8.774  48.254  1.00  0.00    -0.365 N 
HETATM   32  H4  UNL     1      29.106   8.339  48.095  1.00  0.00     0.159 HD
HETATM   33  H5  UNL     1      28.675   9.611  48.655  1.00  0.00     0.159 HD
HETATM   34  O1  UNL     1      26.152   9.086  47.256  1.00  0.00    -0.266 OA
ENDBRANCH   4  30
TORSDOF 4
ENDMDL
MODEL 8
REMARK VINA RESULT:      -8.3      1.561      2.482
REMARK  4 active torsions:
REMARK  status: ('A' for Active; 'I' for Inactive)
REMARK    1  A    between atoms: C2_4  and  C3_5 
REMARK       I    between atoms: C3_5  and  N3_6 
REMARK    2  A    between atoms: C7_12  and  N5_13 
REMARK    3  A    between atoms: N5_13  and  C8_14 
REMARK    4  A    between atoms: N6_17  and  C11_18 
ROOT
HETATM    1  C1  UNL     1      26.564   2.899  50.631  1.00  0.00     0.180 C 
HETATM    2  N1  UNL     1      26.569   1.853  51.622  1.00  0.00    -0.271 N 
HETATM    3  N2  UNL     1      27.625   1.370  52.230  1.00  0.00    -0.166 NA
HETATM    4  C2  UNL     1      27.255   0.392  53.101  1.00  0.00     0.153 A 
HETATM    5  C4  UNL     1      25.899   0.275  53.018  1.00  0.00     0.009 A 
HETATM    6  C5  UNL     1      25.494   1.192  52.092  1.00  0.00     0.091 A 
HETATM    7  C6  UNL     1      24.087   1.310  51.780  1.00  0.00     0.112 A 
HETATM    8  N4  UNL     1      23.580   2.178  50.885  1.00  0.00    -0.060 NA
HETATM    9  C7  UNL     1      22.245   2.227  50.649  1.00  0.00     0.723 A 
HETATM   10  N7  UNL     1      21.391   1.397  51.310  1.00  0.00    -0.075 NA
HETATM   11  C19 UNL     1      21.873   0.506  52.224  1.00  0.00     0.146 A 
HETATM   12  C20 UNL     1      23.250   0.457  52.466  1.00  0.00    -0.008 A 
HETATM   13  C21 UNL     1      23.588  -0.566  53.482  1.00  0.00     0.047 A 
HETATM   14  C22 UNL     1      25.046  -0.650  53.770  1.00  0.00     0.048 A 
ENDROOT
BRANCH   9  15
HETATM   15  N5  UNL     1      21.696   3.148  49.698  1.00  0.00    -0.216 N 
HETATM   16  H6  UNL     1      20.669   3.102  49.499  1.00  0.00     0.178 HD
BRANCH  15  17
HETATM   17  C8  UNL     1      22.524   4.111  49.029  1.00  0.00     0.129 C 
HETATM   18  C9  UNL     1      21.977   4.638  47.750  1.00  0.00     0.057 C 
HETATM   19  C10 UNL     1      21.814   6.129  47.934  1.00  0.00     0.276 C 
HETATM   20  N6  UNL     1      22.702   6.441  49.009  1.00  0.00     0.111 N 
HETATM   21  C18 UNL     1      22.683   5.320  49.924  1.00  0.00     0.299 C 
BRANCH  20  22
HETATM   22  C11 UNL     1      22.481   7.697  49.655  1.00  0.00     0.237 A 
HETATM   23  C12 UNL     1      23.509   7.781  50.789  1.00  0.00     0.063 C 
HETATM   24  C13 UNL     1      21.108   7.914  50.139  1.00  0.00     0.022 A 
HETATM   25  C14 UNL     1      20.274   8.899  49.841  1.00  0.00    -0.001 A 
HETATM   26  C15 UNL     1      20.768   9.909  48.910  1.00  0.00     0.003 A 
HETATM   27  C16 UNL     1      21.982   9.914  48.343  1.00  0.00     0.053 A 
HETATM   28  C17 UNL     1      22.842   8.796  48.723  1.00  0.00     0.191 A 
HETATM   29  O2  UNL     1      23.990   8.802  48.187  1.00  0.00    -0.290 OA
ENDBRANCH  20  22
ENDBRANCH  15  17
ENDBRANCH   9  15
BRANCH   4  30
HETATM   30  C3  UNL     1      28.192  -0.363  53.949  1.00  0.00     0.270 C 
HETATM   31  N3  UNL     1      28.850  -1.510  53.443  1.00  0.00    -0.365 N 
HETATM   32  H4  UNL     1      29.487  -1.676  52.646  1.00  0.00     0.159 HD
HETATM   33  H5  UNL     1      28.924  -2.531  53.679  1.00  0.00     0.159 HD
HETATM   34  O1  UNL     1      28.445  -0.031  55.135  1.00  0.00    -0.266 OA
ENDBRANCH   4  30
TORSDOF 4
ENDMDL
MODEL 9
REMARK VINA RESULT:      -8.3      2.405      8.503
REMARK  4 active torsions:
REMARK  status: ('A' for Active; 'I' for Inactive)
REMARK    1  A    between atoms: C2_4  and  C3_5 
REMARK       I    between atoms: C3_5  and  N3_6 
REMARK    2  A    between atoms: C7_12  and  N5_13 
REMARK    3  A    between atoms: N5_13  and  C8_14 
REMARK    4  A    between atoms: N6_17  and  C11_18 
ROOT
HETATM    1  C1  UNL     1      24.292   7.310  50.967  1.00  0.00     0.180 C 
HETATM    2  N1  UNL     1      23.009   7.549  50.354  1.00  0.00    -0.271 N 
HETATM    3  N2  UNL     1      22.653   8.632  49.707  1.00  0.00    -0.166 NA
HETATM    4  C2  UNL     1      21.371   8.510  49.266  1.00  0.00     0.153 A 
HETATM    5  C4  UNL     1      20.925   7.286  49.667  1.00  0.00     0.009 A 
HETATM    6  C5  UNL     1      21.959   6.706  50.343  1.00  0.00     0.091 A 
HETATM    7  C6  UNL     1      21.790   5.383  50.899  1.00  0.00     0.112 A 
HETATM    8  N4  UNL     1      22.742   4.721  51.581  1.00  0.00    -0.060 NA
HETATM    9  C7  UNL     1      22.504   3.478  52.072  1.00  0.00     0.723 A 
HETATM   10  N7  UNL     1      21.297   2.876  51.885  1.00  0.00    -0.075 NA
HETATM   11  C19 UNL     1      20.310   3.521  51.198  1.00  0.00     0.146 A 
HETATM   12  C20 UNL     1      20.558   4.802  50.692  1.00  0.00    -0.008 A 
HETATM   13  C21 UNL     1      19.378   5.343  49.979  1.00  0.00     0.047 A 
HETATM   14  C22 UNL     1      19.600   6.707  49.425  1.00  0.00     0.048 A 
ENDROOT
BRANCH   9  15
HETATM   15  N5  UNL     1      23.512   2.765  52.800  1.00  0.00    -0.216 N 
HETATM   16  H6  UNL     1      23.606   2.950  53.827  1.00  0.00     0.178 HD
BRANCH  15  17
HETATM   17  C8  UNL     1      24.377   1.824  52.148  1.00  0.00     0.129 C 
HETATM   18  C9  UNL     1      25.509   2.422  51.391  1.00  0.00     0.057 C 
HETATM   19  C10 UNL     1      26.776   1.895  52.026  1.00  0.00     0.276 C 
HETATM   20  N6  UNL     1      26.355   0.707  52.698  1.00  0.00     0.111 N 
HETATM   21  C18 UNL     1      25.018   0.945  53.199  1.00  0.00     0.299 C 
BRANCH  20  22
HETATM   22  C11 UNL     1      27.248   0.205  53.694  1.00  0.00     0.237 A 
HETATM   23  C12 UNL     1      26.404  -0.003  54.958  1.00  0.00     0.063 C 
HETATM   24  C13 UNL     1      28.428   1.047  53.953  1.00  0.00     0.022 A 
HETATM   25  C14 UNL     1      29.708   0.720  53.873  1.00  0.00    -0.001 A 
HETATM   26  C15 UNL     1      30.004  -0.654  53.477  1.00  0.00     0.003 A 
HETATM   27  C16 UNL     1      29.092  -1.593  53.193  1.00  0.00     0.053 A 
HETATM   28  C17 UNL     1      27.703  -1.154  53.305  1.00  0.00     0.191 A 
HETATM   29  O2  UNL     1      26.840  -2.043  53.036  1.00  0.00    -0.290 OA
ENDBRANCH  20  22
ENDBRANCH  15  17
ENDBRANCH   9  15
BRANCH   4  30
HETATM   30  C3  UNL     1      20.654   9.543  48.501  1.00  0.00     0.270 C 
HETATM   31  N3  UNL     1      20.057  10.642  49.167  1.00  0.00    -0.365 N 
HETATM   32  H4  UNL     1      20.421  11.392  49.779  1.00  0.00     0.159 HD
HETATM   33  H5  UNL     1      19.099  11.060  49.271  1.00  0.00     0.159 HD
HETATM   34  O1  UNL     1      20.541   9.499  47.250  1.00  0.00    -0.266 OA
ENDBRANCH   4  30
TORSDOF 4
ENDMDL
