MODEL 1
REMARK VINA RESULT:      -7.2      0.000      0.000
REMARK  9 active torsions:
REMARK  status: ('A' for Active; 'I' for Inactive)
REMARK    1  A    between atoms: C2_2  and  C3_3 
REMARK    2  A    between atoms: C3_3  and  C4_4 
REMARK    3  A    between atoms: C4_4  and  C5_5 
REMARK    4  A    between atoms: C5_5  and  C6_6 
REMARK    5  A    between atoms: C6_6  and  N1_10 
REMARK    6  A    between atoms: C7_7  and  O1_8 
REMARK    7  A    between atoms: C11_14  and  N3_15 
REMARK    8  A    between atoms: N3_15  and  C12_16 
REMARK    9  A    between atoms: C17_21  and  O2_22 
ROOT
HETATM    1  N1  UNL     1      22.836   1.513  51.765  1.00  0.00    -0.167 N 
HETATM    2  N2  UNL     1      23.004   2.919  51.853  1.00  0.00    -0.163 NA
HETATM    3  C9  UNL     1      23.933   3.474  52.530  1.00  0.00     0.144 A 
HETATM    4  C10 UNL     1      24.912   2.666  53.281  1.00  0.00     0.071 A 
HETATM    5  C11 UNL     1      24.754   1.360  53.199  1.00  0.00     0.123 A 
HETATM    6  N4  UNL     1      23.744   0.686  52.464  1.00  0.00    -0.262 N 
HETATM    7  H22 UNL     1      23.650  -0.346  52.422  1.00  0.00     0.191 HD
ENDROOT
BRANCH   5   8
HETATM    8  N3  UNL     1      25.643   0.501  53.885  1.00  0.00    -0.339 N 
HETATM    9  H14 UNL     1      25.662   0.295  54.897  1.00  0.00     0.167 HD
BRANCH   8  10
HETATM   10  C12 UNL     1      26.741  -0.342  53.580  1.00  0.00     0.067 A 
HETATM   11  C13 UNL     1      26.606  -1.583  52.982  1.00  0.00     0.032 A 
HETATM   12  C14 UNL     1      27.708  -2.389  52.695  1.00  0.00     0.002 A 
HETATM   13  C15 UNL     1      28.960  -1.903  53.031  1.00  0.00     0.003 A 
HETATM   14  C16 UNL     1      29.168  -0.677  53.627  1.00  0.00     0.039 A 
HETATM   15  C17 UNL     1      28.040   0.082  53.891  1.00  0.00     0.094 A 
BRANCH  15  16
HETATM   16  O2  UNL     1      28.174   1.332  54.492  1.00  0.00    -0.354 OA
HETATM   17  C18 UNL     1      28.693   2.423  53.749  1.00  0.00     0.210 C 
ENDBRANCH  15  16
ENDBRANCH   8  10
ENDBRANCH   5   8
BRANCH   1  18
HETATM   18  C6  UNL     1      21.807   0.974  51.012  1.00  0.00     0.123 C 
HETATM   19  C7  UNL     1      21.571   0.868  49.595  1.00  0.00     0.236 C 
BRANCH  18  20
HETATM   20  C5  UNL     1      20.881   0.467  51.809  1.00  0.00    -0.097 C 
BRANCH  20  21
HETATM   21  C4  UNL     1      20.133  -0.029  52.778  1.00  0.00     0.057 C 
BRANCH  21  22
HETATM   22  C3  UNL     1      20.725  -0.220  54.056  1.00  0.00     0.004 C 
BRANCH  22  23
HETATM   23  C2  UNL     1      21.390  -1.285  54.460  1.00  0.00    -0.030 C 
HETATM   24  C1  UNL     1      22.698  -1.288  55.192  1.00  0.00     0.036 C 
ENDBRANCH  22  23
ENDBRANCH  21  22
ENDBRANCH  20  21
ENDBRANCH  18  20
BRANCH  19  25
HETATM   25  O1  UNL     1      21.469   2.015  48.862  1.00  0.00    -0.389 OA
HETATM   26  C8  UNL     1      22.367   2.027  47.807  1.00  0.00     0.202 C 
ENDBRANCH  19  25
ENDBRANCH   1  18
TORSDOF 9
ENDMDL
MODEL 2
REMARK VINA RESULT:      -6.9      3.259      5.418
REMARK  9 active torsions:
REMARK  status: ('A' for Active; 'I' for Inactive)
REMARK    1  A    between atoms: C2_2  and  C3_3 
REMARK    2  A    between atoms: C3_3  and  C4_4 
REMARK    3  A    between atoms: C4_4  and  C5_5 
REMARK    4  A    between atoms: C5_5  and  C6_6 
REMARK    5  A    between atoms: C6_6  and  N1_10 
REMARK    6  A    between atoms: C7_7  and  O1_8 
REMARK    7  A    between atoms: C11_14  and  N3_15 
REMARK    8  A    between atoms: N3_15  and  C12_16 
REMARK    9  A    between atoms: C17_21  and  O2_22 
ROOT
HETATM    1  N1  UNL     1      24.592   3.501  51.019  1.00  0.00    -0.167 N 
HETATM    2  N2  UNL     1      23.293   3.021  50.707  1.00  0.00    -0.163 NA
HETATM    3  C9  UNL     1      22.803   1.951  51.201  1.00  0.00     0.144 A 
HETATM    4  C10 UNL     1      23.577   1.128  52.149  1.00  0.00     0.071 A 
HETATM    5  C11 UNL     1      24.782   1.575  52.438  1.00  0.00     0.123 A 
HETATM    6  N4  UNL     1      25.381   2.755  51.923  1.00  0.00    -0.262 N 
HETATM    7  H22 UNL     1      26.334   3.077  52.173  1.00  0.00     0.191 HD
ENDROOT
BRANCH   5   8
HETATM    8  N3  UNL     1      25.601   0.855  53.338  1.00  0.00    -0.339 N 
HETATM    9  H14 UNL     1      25.581   0.889  54.370  1.00  0.00     0.167 HD
BRANCH   8  10
HETATM   10  C12 UNL     1      26.654  -0.092  53.279  1.00  0.00     0.067 A 
HETATM   11  C13 UNL     1      26.516  -1.354  52.726  1.00  0.00     0.032 A 
HETATM   12  C14 UNL     1      27.574  -2.262  52.684  1.00  0.00     0.002 A 
HETATM   13  C15 UNL     1      28.784  -1.858  53.220  1.00  0.00     0.003 A 
HETATM   14  C16 UNL     1      28.993  -0.618  53.785  1.00  0.00     0.039 A 
HETATM   15  C17 UNL     1      27.910   0.245  53.802  1.00  0.00     0.094 A 
BRANCH  15  16
HETATM   16  O2  UNL     1      28.047   1.515  54.358  1.00  0.00    -0.354 OA
HETATM   17  C18 UNL     1      28.758   2.522  53.656  1.00  0.00     0.210 C 
ENDBRANCH  15  16
ENDBRANCH   8  10
ENDBRANCH   5   8
BRANCH   1  18
HETATM   18  C6  UNL     1      25.064   4.671  50.450  1.00  0.00     0.123 C 
HETATM   19  C7  UNL     1      24.686   6.055  50.578  1.00  0.00     0.236 C 
BRANCH  18  20
HETATM   20  C5  UNL     1      26.066   4.401  49.630  1.00  0.00    -0.097 C 
BRANCH  20  21
HETATM   21  C4  UNL     1      27.205   4.252  48.976  1.00  0.00     0.057 C 
BRANCH  21  22
HETATM   22  C3  UNL     1      27.871   5.417  48.509  1.00  0.00     0.004 C 
BRANCH  22  23
HETATM   23  C2  UNL     1      27.313   6.577  48.222  1.00  0.00    -0.030 C 
HETATM   24  C1  UNL     1      27.901   7.655  47.361  1.00  0.00     0.036 C 
ENDBRANCH  22  23
ENDBRANCH  21  22
ENDBRANCH  20  21
ENDBRANCH  18  20
BRANCH  19  25
HETATM   25  O1  UNL     1      23.422   6.423  50.219  1.00  0.00    -0.389 OA
HETATM   26  C8  UNL     1      23.128   7.711  50.637  1.00  0.00     0.202 C 
ENDBRANCH  19  25
ENDBRANCH   1  18
TORSDOF 9
ENDMDL
MODEL 3
REMARK VINA RESULT:      -6.9      1.868      3.578
REMARK  9 active torsions:
REMARK  status: ('A' for Active; 'I' for Inactive)
REMARK    1  A    between atoms: C2_2  and  C3_3 
REMARK    2  A    between atoms: C3_3  and  C4_4 
REMARK    3  A    between atoms: C4_4  and  C5_5 
REMARK    4  A    between atoms: C5_5  and  C6_6 
REMARK    5  A    between atoms: C6_6  and  N1_10 
REMARK    6  A    between atoms: C7_7  and  O1_8 
REMARK    7  A    between atoms: C11_14  and  N3_15 
REMARK    8  A    between atoms: N3_15  and  C12_16 
REMARK    9  A    between atoms: C17_21  and  O2_22 
ROOT
HETATM    1  N1  UNL     1      22.175  -0.429  53.524  1.00  0.00    -0.167 N 
HETATM    2  N2  UNL     1      22.106  -1.022  54.812  1.00  0.00    -0.163 NA
HETATM    3  C9  UNL     1      23.138  -1.328  55.500  1.00  0.00     0.144 A 
HETATM    4  C10 UNL     1      24.496  -1.076  54.984  1.00  0.00     0.071 A 
HETATM    5  C11 UNL     1      24.558  -0.526  53.789  1.00  0.00     0.123 A 
HETATM    6  N4  UNL     1      23.451  -0.164  52.977  1.00  0.00    -0.262 N 
HETATM    7  H22 UNL     1      23.537   0.269  52.039  1.00  0.00     0.191 HD
ENDROOT
BRANCH   5   8
HETATM    8  N3  UNL     1      25.817  -0.246  53.209  1.00  0.00    -0.339 N 
HETATM    9  H14 UNL     1      26.041   0.487  52.515  1.00  0.00     0.167 HD
BRANCH   8  10
HETATM   10  C12 UNL     1      27.145  -0.738  53.281  1.00  0.00     0.067 A 
HETATM   11  C13 UNL     1      27.503  -2.022  52.910  1.00  0.00     0.032 A 
HETATM   12  C14 UNL     1      28.821  -2.475  52.993  1.00  0.00     0.002 A 
HETATM   13  C15 UNL     1      29.772  -1.588  53.465  1.00  0.00     0.003 A 
HETATM   14  C16 UNL     1      29.487  -0.296  53.851  1.00  0.00     0.039 A 
HETATM   15  C17 UNL     1      28.164   0.102  53.749  1.00  0.00     0.094 A 
BRANCH  15  16
HETATM   16  O2  UNL     1      27.801   1.395  54.122  1.00  0.00    -0.354 OA
HETATM   17  C18 UNL     1      28.597   2.498  53.717  1.00  0.00     0.210 C 
ENDBRANCH  15  16
ENDBRANCH   8  10
ENDBRANCH   5   8
BRANCH   1  18
HETATM   18  C6  UNL     1      21.018  -0.121  52.830  1.00  0.00     0.123 C 
HETATM   19  C7  UNL     1      19.623  -0.112  53.189  1.00  0.00     0.236 C 
BRANCH  18  20
HETATM   20  C5  UNL     1      21.316   0.230  51.590  1.00  0.00    -0.097 C 
BRANCH  20  21
HETATM   21  C4  UNL     1      21.506   0.795  50.411  1.00  0.00     0.057 C 
BRANCH  21  22
HETATM   22  C3  UNL     1      22.293   1.977  50.350  1.00  0.00     0.004 C 
BRANCH  22  23
HETATM   23  C2  UNL     1      22.177   3.036  51.127  1.00  0.00    -0.030 C 
HETATM   24  C1  UNL     1      23.134   3.457  52.202  1.00  0.00     0.036 C 
ENDBRANCH  22  23
ENDBRANCH  21  22
ENDBRANCH  20  21
ENDBRANCH  18  20
BRANCH  19  25
HETATM   25  O1  UNL     1      19.042  -1.282  53.582  1.00  0.00    -0.389 OA
HETATM   26  C8  UNL     1      17.728  -1.370  53.149  1.00  0.00     0.202 C 
ENDBRANCH  19  25
ENDBRANCH   1  18
TORSDOF 9
ENDMDL
MODEL 4
REMARK VINA RESULT:      -6.9      1.557      3.276
REMARK  9 active torsions:
REMARK  status: ('A' for Active; 'I' for Inactive)
REMARK    1  A    between atoms: C2_2  and  C3_3 
REMARK    2  A    between atoms: C3_3  and  C4_4 
REMARK    3  A    between atoms: C4_4  and  C5_5 
REMARK    4  A    between atoms: C5_5  and  C6_6 
REMARK    5  A    between atoms: C6_6  and  N1_10 
REMARK    6  A    between atoms: C7_7  and  O1_8 
REMARK    7  A    between atoms: C11_14  and  N3_15 
REMARK    8  A    between atoms: N3_15  and  C12_16 
REMARK    9  A    between atoms: C17_21  and  O2_22 
ROOT
HETATM    1  N1  UNL     1      22.744   1.447  52.900  1.00  0.00    -0.167 N 
HETATM    2  N2  UNL     1      22.994   2.597  52.105  1.00  0.00    -0.163 NA
HETATM    3  C9  UNL     1      24.158   3.092  51.936  1.00  0.00     0.144 A 
HETATM    4  C10 UNL     1      25.342   2.484  52.571  1.00  0.00     0.071 A 
HETATM    5  C11 UNL     1      25.108   1.418  53.308  1.00  0.00     0.123 A 
HETATM    6  N4  UNL     1      23.840   0.820  53.534  1.00  0.00    -0.262 N 
HETATM    7  H22 UNL     1      23.693  -0.021  54.121  1.00  0.00     0.191 HD
ENDROOT
BRANCH   5   8
HETATM    8  N3  UNL     1      26.180   0.764  53.958  1.00  0.00    -0.339 N 
HETATM    9  H14 UNL     1      26.506   0.904  54.929  1.00  0.00     0.167 HD
BRANCH   8  10
HETATM   10  C12 UNL     1      27.154  -0.221  53.656  1.00  0.00     0.067 A 
HETATM   11  C13 UNL     1      26.861  -1.414  53.019  1.00  0.00     0.032 A 
HETATM   12  C14 UNL     1      27.844  -2.362  52.736  1.00  0.00     0.002 A 
HETATM   13  C15 UNL     1      29.142  -2.070  53.118  1.00  0.00     0.003 A 
HETATM   14  C16 UNL     1      29.506  -0.903  53.755  1.00  0.00     0.039 A 
HETATM   15  C17 UNL     1      28.491   0.004  54.012  1.00  0.00     0.094 A 
BRANCH  15  16
HETATM   16  O2  UNL     1      28.784   1.206  54.654  1.00  0.00    -0.354 OA
HETATM   17  C18 UNL     1      29.054   2.369  53.888  1.00  0.00     0.210 C 
ENDBRANCH  15  16
ENDBRANCH   8  10
ENDBRANCH   5   8
BRANCH   1  18
HETATM   18  C6  UNL     1      21.456   0.959  53.042  1.00  0.00     0.123 C 
HETATM   19  C7  UNL     1      20.690   0.508  54.175  1.00  0.00     0.236 C 
BRANCH  18  20
HETATM   20  C5  UNL     1      20.856   0.921  51.864  1.00  0.00    -0.097 C 
BRANCH  20  21
HETATM   21  C4  UNL     1      20.414   0.701  50.638  1.00  0.00     0.057 C 
BRANCH  21  22
HETATM   22  C3  UNL     1      21.366   0.605  49.587  1.00  0.00     0.004 C 
BRANCH  22  23
HETATM   23  C2  UNL     1      21.529   1.462  48.597  1.00  0.00    -0.030 C 
HETATM   24  C1  UNL     1      22.630   2.473  48.472  1.00  0.00     0.036 C 
ENDBRANCH  22  23
ENDBRANCH  21  22
ENDBRANCH  20  21
ENDBRANCH  18  20
BRANCH  19  25
HETATM   25  O1  UNL     1      21.145  -0.564  54.887  1.00  0.00    -0.389 OA
HETATM   26  C8  UNL     1      21.210  -1.705  54.104  1.00  0.00     0.202 C 
ENDBRANCH  19  25
ENDBRANCH   1  18
TORSDOF 9
ENDMDL
MODEL 5
REMARK VINA RESULT:      -6.8      2.547      7.419
REMARK  9 active torsions:
REMARK  status: ('A' for Active; 'I' for Inactive)
REMARK    1  A    between atoms: C2_2  and  C3_3 
REMARK    2  A    between atoms: C3_3  and  C4_4 
REMARK    3  A    between atoms: C4_4  and  C5_5 
REMARK    4  A    between atoms: C5_5  and  C6_6 
REMARK    5  A    between atoms: C6_6  and  N1_10 
REMARK    6  A    between atoms: C7_7  and  O1_8 
REMARK    7  A    between atoms: C11_14  and  N3_15 
REMARK    8  A    between atoms: N3_15  and  C12_16 
REMARK    9  A    between atoms: C17_21  and  O2_22 
ROOT
HETATM    1  N1  UNL     1      23.681   0.295  53.605  1.00  0.00    -0.167 N 
HETATM    2  N2  UNL     1      23.897  -0.803  54.478  1.00  0.00    -0.163 NA
HETATM    3  C9  UNL     1      22.950  -1.495  54.984  1.00  0.00     0.144 A 
HETATM    4  C10 UNL     1      21.540  -1.185  54.684  1.00  0.00     0.071 A 
HETATM    5  C11 UNL     1      21.341  -0.165  53.874  1.00  0.00     0.123 A 
HETATM    6  N4  UNL     1      22.349   0.640  53.281  1.00  0.00    -0.262 N 
HETATM    7  H22 UNL     1      22.155   1.437  52.647  1.00  0.00     0.191 HD
ENDROOT
BRANCH   5   8
HETATM    8  N3  UNL     1      20.022   0.210  53.528  1.00  0.00    -0.339 N 
HETATM    9  H14 UNL     1      19.313   0.648  54.138  1.00  0.00     0.167 HD
BRANCH   8  10
HETATM   10  C12 UNL     1      19.181   0.176  52.387  1.00  0.00     0.067 A 
HETATM   11  C13 UNL     1      19.484   0.814  51.197  1.00  0.00     0.032 A 
HETATM   12  C14 UNL     1      18.634   0.760  50.092  1.00  0.00     0.002 A 
HETATM   13  C15 UNL     1      17.460   0.038  50.224  1.00  0.00     0.003 A 
HETATM   14  C16 UNL     1      17.096  -0.622  51.378  1.00  0.00     0.039 A 
HETATM   15  C17 UNL     1      17.975  -0.536  52.444  1.00  0.00     0.094 A 
BRANCH  15  16
HETATM   16  O2  UNL     1      17.673  -1.178  53.643  1.00  0.00    -0.354 OA
HETATM   17  C18 UNL     1      17.739  -2.593  53.725  1.00  0.00     0.210 C 
ENDBRANCH  15  16
ENDBRANCH   8  10
ENDBRANCH   5   8
BRANCH   1  18
HETATM   18  C6  UNL     1      24.752   1.004  53.089  1.00  0.00     0.123 C 
HETATM   19  C7  UNL     1      25.060   2.408  53.006  1.00  0.00     0.236 C 
BRANCH  18  20
HETATM   20  C5  UNL     1      25.643   0.168  52.583  1.00  0.00    -0.097 C 
BRANCH  20  21
HETATM   21  C4  UNL     1      26.696  -0.541  52.214  1.00  0.00     0.057 C 
BRANCH  21  22
HETATM   22  C3  UNL     1      27.619  -0.945  53.215  1.00  0.00     0.004 C 
BRANCH  22  23
HETATM   23  C2  UNL     1      28.776  -0.375  53.491  1.00  0.00    -0.030 C 
HETATM   24  C1  UNL     1      30.081  -1.080  53.718  1.00  0.00     0.036 C 
ENDBRANCH  22  23
ENDBRANCH  21  22
ENDBRANCH  20  21
ENDBRANCH  18  20
BRANCH  19  25
HETATM   25  O1  UNL     1      24.220   3.221  52.301  1.00  0.00    -0.389 OA
HETATM   26  C8  UNL     1      24.709   3.483  51.031  1.00  0.00     0.202 C 
ENDBRANCH  19  25
ENDBRANCH   1  18
TORSDOF 9
ENDMDL
MODEL 6
REMARK VINA RESULT:      -6.8      2.057      7.070
REMARK  9 active torsions:
REMARK  status: ('A' for Active; 'I' for Inactive)
REMARK    1  A    between atoms: C2_2  and  C3_3 
REMARK    2  A    between atoms: C3_3  and  C4_4 
REMARK    3  A    between atoms: C4_4  and  C5_5 
REMARK    4  A    between atoms: C5_5  and  C6_6 
REMARK    5  A    between atoms: C6_6  and  N1_10 
REMARK    6  A    between atoms: C7_7  and  O1_8 
REMARK    7  A    between atoms: C11_14  and  N3_15 
REMARK    8  A    between atoms: N3_15  and  C12_16 
REMARK    9  A    between atoms: C17_21  and  O2_22 
ROOT
HETATM    1  N1  UNL     1      25.170  -0.678  53.806  1.00  0.00    -0.167 N 
HETATM    2  N2  UNL     1      25.265  -1.049  55.172  1.00  0.00    -0.163 NA
HETATM    3  C9  UNL     1      24.250  -1.316  55.899  1.00  0.00     0.144 A 
HETATM    4  C10 UNL     1      22.884  -1.254  55.347  1.00  0.00     0.071 A 
HETATM    5  C11 UNL     1      22.797  -0.909  54.079  1.00  0.00     0.123 A 
HETATM    6  N4  UNL     1      23.886  -0.601  53.221  1.00  0.00    -0.262 N 
HETATM    7  H22 UNL     1      23.781  -0.333  52.225  1.00  0.00     0.191 HD
ENDROOT
BRANCH   5   8
HETATM    8  N3  UNL     1      21.529  -0.821  53.460  1.00  0.00    -0.339 N 
HETATM    9  H14 UNL     1      20.657  -1.298  53.743  1.00  0.00     0.167 HD
BRANCH   8  10
HETATM   10  C12 UNL     1      20.939  -0.159  52.354  1.00  0.00     0.067 A 
HETATM   11  C13 UNL     1      21.670   0.401  51.320  1.00  0.00     0.032 A 
HETATM   12  C14 UNL     1      21.056   1.045  50.245  1.00  0.00     0.002 A 
HETATM   13  C15 UNL     1      19.674   1.109  50.244  1.00  0.00     0.003 A 
HETATM   14  C16 UNL     1      18.883   0.573  51.238  1.00  0.00     0.039 A 
HETATM   15  C17 UNL     1      19.543  -0.055  52.282  1.00  0.00     0.094 A 
BRANCH  15  16
HETATM   16  O2  UNL     1      18.809  -0.620  53.323  1.00  0.00    -0.354 OA
HETATM   17  C18 UNL     1      17.726  -1.489  53.034  1.00  0.00     0.210 C 
ENDBRANCH  15  16
ENDBRANCH   8  10
ENDBRANCH   5   8
BRANCH   1  18
HETATM   18  C6  UNL     1      26.311  -0.402  53.072  1.00  0.00     0.123 C 
HETATM   19  C7  UNL     1      27.623  -0.995  53.025  1.00  0.00     0.236 C 
BRANCH  18  20
HETATM   20  C5  UNL     1      26.093   0.625  52.267  1.00  0.00    -0.097 C 
BRANCH  20  21
HETATM   21  C4  UNL     1      26.087   1.737  51.554  1.00  0.00     0.057 C 
BRANCH  21  22
HETATM   22  C3  UNL     1      24.867   2.455  51.437  1.00  0.00     0.004 C 
BRANCH  22  23
HETATM   23  C2  UNL     1      24.229   3.081  52.407  1.00  0.00    -0.030 C 
HETATM   24  C1  UNL     1      22.867   3.703  52.317  1.00  0.00     0.036 C 
ENDBRANCH  22  23
ENDBRANCH  21  22
ENDBRANCH  20  21
ENDBRANCH  18  20
BRANCH  19  25
HETATM   25  O1  UNL     1      28.384  -0.988  54.157  1.00  0.00    -0.389 OA
HETATM   26  C8  UNL     1      28.931   0.262  54.397  1.00  0.00     0.202 C 
ENDBRANCH  19  25
ENDBRANCH   1  18
TORSDOF 9
ENDMDL
MODEL 7
REMARK VINA RESULT:      -6.8      2.092      3.883
REMARK  9 active torsions:
REMARK  status: ('A' for Active; 'I' for Inactive)
REMARK    1  A    between atoms: C2_2  and  C3_3 
REMARK    2  A    between atoms: C3_3  and  C4_4 
REMARK    3  A    between atoms: C4_4  and  C5_5 
REMARK    4  A    between atoms: C5_5  and  C6_6 
REMARK    5  A    between atoms: C6_6  and  N1_10 
REMARK    6  A    between atoms: C7_7  and  O1_8 
REMARK    7  A    between atoms: C11_14  and  N3_15 
REMARK    8  A    between atoms: N3_15  and  C12_16 
REMARK    9  A    between atoms: C17_21  and  O2_22 
ROOT
HETATM    1  N1  UNL     1      22.749   1.686  52.399  1.00  0.00    -0.167 N 
HETATM    2  N2  UNL     1      21.914   0.561  52.621  1.00  0.00    -0.163 NA
HETATM    3  C9  UNL     1      22.323  -0.521  53.163  1.00  0.00     0.144 A 
HETATM    4  C10 UNL     1      23.723  -0.668  53.601  1.00  0.00     0.071 A 
HETATM    5  C11 UNL     1      24.498   0.378  53.394  1.00  0.00     0.123 A 
HETATM    6  N4  UNL     1      24.102   1.605  52.799  1.00  0.00    -0.262 N 
HETATM    7  H22 UNL     1      24.740   2.409  52.651  1.00  0.00     0.191 HD
ENDROOT
BRANCH   5   8
HETATM    8  N3  UNL     1      25.857   0.333  53.781  1.00  0.00    -0.339 N 
HETATM    9  H14 UNL     1      26.359   0.999  54.390  1.00  0.00     0.167 HD
BRANCH   8  10
HETATM   10  C12 UNL     1      26.988  -0.493  53.565  1.00  0.00     0.067 A 
HETATM   11  C13 UNL     1      26.930  -1.709  52.905  1.00  0.00     0.032 A 
HETATM   12  C14 UNL     1      28.064  -2.498  52.708  1.00  0.00     0.002 A 
HETATM   13  C15 UNL     1      29.267  -2.022  53.201  1.00  0.00     0.003 A 
HETATM   14  C16 UNL     1      29.398  -0.822  53.866  1.00  0.00     0.039 A 
HETATM   15  C17 UNL     1      28.241  -0.078  54.034  1.00  0.00     0.094 A 
BRANCH  15  16
HETATM   16  O2  UNL     1      28.298   1.146  54.698  1.00  0.00    -0.354 OA
HETATM   17  C18 UNL     1      29.336   2.066  54.399  1.00  0.00     0.210 C 
ENDBRANCH  15  16
ENDBRANCH   8  10
ENDBRANCH   5   8
BRANCH   1  18
HETATM   18  C6  UNL     1      22.243   2.831  51.807  1.00  0.00     0.123 C 
HETATM   19  C7  UNL     1      21.295   3.827  52.234  1.00  0.00     0.236 C 
BRANCH  18  20
HETATM   20  C5  UNL     1      22.774   2.991  50.606  1.00  0.00    -0.097 C 
BRANCH  20  21
HETATM   21  C4  UNL     1      23.519   3.162  49.528  1.00  0.00     0.057 C 
BRANCH  21  22
HETATM   22  C3  UNL     1      24.929   3.231  49.689  1.00  0.00     0.004 C 
BRANCH  22  23
HETATM   23  C2  UNL     1      25.637   4.314  49.944  1.00  0.00    -0.030 C 
HETATM   24  C1  UNL     1      25.849   5.474  49.018  1.00  0.00     0.036 C 
ENDBRANCH  22  23
ENDBRANCH  21  22
ENDBRANCH  20  21
ENDBRANCH  18  20
BRANCH  19  25
HETATM   25  O1  UNL     1      20.016   3.438  52.509  1.00  0.00    -0.389 OA
HETATM   26  C8  UNL     1      19.202   3.536  51.392  1.00  0.00     0.202 C 
ENDBRANCH  19  25
ENDBRANCH   1  18
TORSDOF 9
ENDMDL
MODEL 8
REMARK VINA RESULT:      -6.7      3.940      6.281
REMARK  9 active torsions:
REMARK  status: ('A' for Active; 'I' for Inactive)
REMARK    1  A    between atoms: C2_2  and  C3_3 
REMARK    2  A    between atoms: C3_3  and  C4_4 
REMARK    3  A    between atoms: C4_4  and  C5_5 
REMARK    4  A    between atoms: C5_5  and  C6_6 
REMARK    5  A    between atoms: C6_6  and  N1_10 
REMARK    6  A    between atoms: C7_7  and  O1_8 
REMARK    7  A    between atoms: C11_14  and  N3_15 
REMARK    8  A    between atoms: N3_15  and  C12_16 
REMARK    9  A    between atoms: C17_21  and  O2_22 
ROOT
HETATM    1  N1  UNL     1      24.696   3.177  52.361  1.00  0.00    -0.167 N 
HETATM    2  N2  UNL     1      23.554   3.884  52.820  1.00  0.00    -0.163 NA
HETATM    3  C9  UNL     1      23.039   4.868  52.190  1.00  0.00     0.144 A 
HETATM    4  C10 UNL     1      23.613   5.340  50.917  1.00  0.00     0.071 A 
HETATM    5  C11 UNL     1      24.673   4.682  50.492  1.00  0.00     0.123 A 
HETATM    6  N4  UNL     1      25.291   3.583  51.145  1.00  0.00    -0.262 N 
HETATM    7  H22 UNL     1      26.126   3.088  50.781  1.00  0.00     0.191 HD
ENDROOT
BRANCH   5   8
HETATM    8  N3  UNL     1      25.295   5.061  49.280  1.00  0.00    -0.339 N 
HETATM    9  H14 UNL     1      24.902   5.001  48.326  1.00  0.00     0.167 HD
BRANCH   8  10
HETATM   10  C12 UNL     1      26.532   5.607  48.855  1.00  0.00     0.067 A 
HETATM   11  C13 UNL     1      27.671   4.847  48.649  1.00  0.00     0.032 A 
HETATM   12  C14 UNL     1      28.874   5.417  48.229  1.00  0.00     0.002 A 
HETATM   13  C15 UNL     1      28.894   6.786  48.022  1.00  0.00     0.003 A 
HETATM   14  C16 UNL     1      27.799   7.602  48.207  1.00  0.00     0.039 A 
HETATM   15  C17 UNL     1      26.631   6.986  48.624  1.00  0.00     0.094 A 
BRANCH  15  16
HETATM   16  O2  UNL     1      25.483   7.748  48.832  1.00  0.00    -0.354 OA
HETATM   17  C18 UNL     1      25.403   8.617  49.951  1.00  0.00     0.210 C 
ENDBRANCH  15  16
ENDBRANCH   8  10
ENDBRANCH   5   8
BRANCH   1  18
HETATM   18  C6  UNL     1      25.206   2.117  53.091  1.00  0.00     0.123 C 
HETATM   19  C7  UNL     1      26.476   1.873  53.724  1.00  0.00     0.236 C 
BRANCH  18  20
HETATM   20  C5  UNL     1      24.296   1.162  53.194  1.00  0.00    -0.097 C 
BRANCH  20  21
HETATM   21  C4  UNL     1      23.483   0.126  53.086  1.00  0.00     0.057 C 
BRANCH  21  22
HETATM   22  C3  UNL     1      23.326  -0.727  54.211  1.00  0.00     0.004 C 
BRANCH  22  23
HETATM   23  C2  UNL     1      22.191  -1.041  54.805  1.00  0.00    -0.030 C 
HETATM   24  C1  UNL     1      20.877  -1.298  54.128  1.00  0.00     0.036 C 
ENDBRANCH  22  23
ENDBRANCH  21  22
ENDBRANCH  20  21
ENDBRANCH  18  20
BRANCH  19  25
HETATM   25  O1  UNL     1      27.598   1.841  52.949  1.00  0.00    -0.389 OA
HETATM   26  C8  UNL     1      28.678   2.426  53.590  1.00  0.00     0.202 C 
ENDBRANCH  19  25
ENDBRANCH   1  18
TORSDOF 9
ENDMDL
MODEL 9
REMARK VINA RESULT:      -6.7      1.941      6.905
REMARK  9 active torsions:
REMARK  status: ('A' for Active; 'I' for Inactive)
REMARK    1  A    between atoms: C2_2  and  C3_3 
REMARK    2  A    between atoms: C3_3  and  C4_4 
REMARK    3  A    between atoms: C4_4  and  C5_5 
REMARK    4  A    between atoms: C5_5  and  C6_6 
REMARK    5  A    between atoms: C6_6  and  N1_10 
REMARK    6  A    between atoms: C7_7  and  O1_8 
REMARK    7  A    between atoms: C11_14  and  N3_15 
REMARK    8  A    between atoms: N3_15  and  C12_16 
REMARK    9  A    between atoms: C17_21  and  O2_22 
ROOT
HETATM    1  N1  UNL     1      24.079   0.023  53.534  1.00  0.00    -0.167 N 
HETATM    2  N2  UNL     1      24.096  -0.908  54.605  1.00  0.00    -0.163 NA
HETATM    3  C9  UNL     1      23.045  -1.287  55.222  1.00  0.00     0.144 A 
HETATM    4  C10 UNL     1      21.716  -0.767  54.849  1.00  0.00     0.071 A 
HETATM    5  C11 UNL     1      21.702   0.098  53.855  1.00  0.00     0.123 A 
HETATM    6  N4  UNL     1      22.834   0.557  53.131  1.00  0.00    -0.262 N 
HETATM    7  H22 UNL     1      22.786   1.239  52.352  1.00  0.00     0.191 HD
ENDROOT
BRANCH   5   8
HETATM    8  N3  UNL     1      20.475   0.653  53.425  1.00  0.00    -0.339 N 
HETATM    9  H14 UNL     1      19.940   1.416  53.872  1.00  0.00     0.167 HD
BRANCH   8  10
HETATM   10  C12 UNL     1      19.549   0.473  52.367  1.00  0.00     0.067 A 
HETATM   11  C13 UNL     1      18.412  -0.308  52.473  1.00  0.00     0.032 A 
HETATM   12  C14 UNL     1      17.519  -0.464  51.412  1.00  0.00     0.002 A 
HETATM   13  C15 UNL     1      17.810   0.197  50.231  1.00  0.00     0.003 A 
HETATM   14  C16 UNL     1      18.923   0.992  50.055  1.00  0.00     0.039 A 
HETATM   15  C17 UNL     1      19.776   1.112  51.140  1.00  0.00     0.094 A 
BRANCH  15  16
HETATM   16  O2  UNL     1      20.921   1.898  51.035  1.00  0.00    -0.354 OA
HETATM   17  C18 UNL     1      21.727   1.823  49.870  1.00  0.00     0.210 C 
ENDBRANCH  15  16
ENDBRANCH   8  10
ENDBRANCH   5   8
BRANCH   1  18
HETATM   18  C6  UNL     1      25.256   0.392  52.905  1.00  0.00     0.123 C 
HETATM   19  C7  UNL     1      25.708   1.614  52.293  1.00  0.00     0.236 C 
BRANCH  18  20
HETATM   20  C5  UNL     1      26.100  -0.627  52.894  1.00  0.00    -0.097 C 
BRANCH  20  21
HETATM   21  C4  UNL     1      27.117  -1.470  52.884  1.00  0.00     0.057 C 
BRANCH  21  22
HETATM   22  C3  UNL     1      28.413  -0.964  53.172  1.00  0.00     0.004 C 
BRANCH  22  23
HETATM   23  C2  UNL     1      28.773  -0.297  54.251  1.00  0.00    -0.030 C 
HETATM   24  C1  UNL     1      29.145   1.154  54.314  1.00  0.00     0.036 C 
ENDBRANCH  22  23
ENDBRANCH  21  22
ENDBRANCH  20  21
ENDBRANCH  18  20
BRANCH  19  25
HETATM   25  O1  UNL     1      25.017   2.105  51.224  1.00  0.00    -0.389 OA
HETATM   26  C8  UNL     1      25.522   3.325  50.805  1.00  0.00     0.202 C 
ENDBRANCH  19  25
ENDBRANCH   1  18
TORSDOF 9
ENDMDL
