MODEL 1
REMARK VINA RESULT:      -6.7      0.000      0.000
REMARK  7 active torsions:
REMARK  status: ('A' for Active; 'I' for Inactive)
REMARK    1  A    between atoms: C2_2  and  O1_3 
REMARK    2  A    between atoms: O1_3  and  C3_4 
REMARK    3  A    between atoms: C10_11  and  N1_12 
REMARK    4  A    between atoms: N1_12  and  C11_13 
REMARK    5  A    between atoms: C11_13  and  C12_14 
REMARK    6  A    between atoms: C13_15  and  C14_16 
REMARK    7  A    between atoms: C14_16  and  N2_17 
ROOT
HETATM    1  N1  UNL     1      26.284   2.974  50.345  1.00  0.00    -0.384 N 
HETATM    2  H12 UNL     1      25.636   2.480  49.651  1.00  0.00     0.160 HD
ENDROOT
BRANCH   1   3
HETATM    3  C10 UNL     1      26.382   4.182  49.665  1.00  0.00     0.073 A 
HETATM    4  C3  UNL     1      25.044   4.817  49.660  1.00  0.00     0.092 A 
HETATM    5  C4  UNL     1      24.808   5.968  49.060  1.00  0.00     0.017 A 
HETATM    6  C5  UNL     1      25.835   6.739  48.332  1.00  0.00     0.070 A 
HETATM    7  C6  UNL     1      27.100   6.002  48.432  1.00  0.00    -0.035 A 
HETATM    8  C7  UNL     1      28.411   5.492  48.366  1.00  0.00    -0.041 A 
HETATM    9  C9  UNL     1      27.399   4.744  49.069  1.00  0.00     0.007 A 
HETATM   10  C8  UNL     1      29.801   5.541  47.909  1.00  0.00     0.049 C 
BRANCH   4  11
HETATM   11  O1  UNL     1      23.873   4.349  50.251  1.00  0.00    -0.349 OA
BRANCH  11  12
HETATM   12  C2  UNL     1      22.798   3.907  49.473  1.00  0.00     0.171 C 
HETATM   13  C1  UNL     1      23.072   2.706  48.635  1.00  0.00     0.034 C 
ENDBRANCH  11  12
ENDBRANCH   4  11
ENDBRANCH   1   3
BRANCH   1  14
HETATM   14  C11 UNL     1      26.648   2.159  51.488  1.00  0.00     0.147 C 
BRANCH  14  15
HETATM   15  C12 UNL     1      25.416   1.952  52.361  1.00  0.00    -0.010 C 
HETATM   16  C13 UNL     1      24.337   1.278  51.948  1.00  0.00     0.001 C 
BRANCH  16  17
HETATM   17  C14 UNL     1      22.980   0.773  52.252  1.00  0.00     0.299 C 
BRANCH  17  18
HETATM   18  N2  UNL     1      22.747   0.618  53.700  1.00  0.00     0.096 N 
HETATM   19  C15 UNL     1      23.366  -0.664  54.031  1.00  0.00     0.299 C 
HETATM   20  C16 UNL     1      22.668  -1.362  55.158  1.00  0.00     0.198 C 
HETATM   21  O2  UNL     1      21.318  -1.601  54.904  1.00  0.00    -0.388 OA
HETATM   22  C17 UNL     1      20.911  -0.988  53.726  1.00  0.00     0.198 C 
HETATM   23  C18 UNL     1      21.289   0.493  53.842  1.00  0.00     0.299 C 
ENDBRANCH  17  18
ENDBRANCH  16  17
ENDBRANCH  14  15
ENDBRANCH   1  14
TORSDOF 7
ENDMDL
MODEL 2
REMARK VINA RESULT:      -6.6      2.898      6.702
REMARK  7 active torsions:
REMARK  status: ('A' for Active; 'I' for Inactive)
REMARK    1  A    between atoms: C2_2  and  O1_3 
REMARK    2  A    between atoms: O1_3  and  C3_4 
REMARK    3  A    between atoms: C10_11  and  N1_12 
REMARK    4  A    between atoms: N1_12  and  C11_13 
REMARK    5  A    between atoms: C11_13  and  C12_14 
REMARK    6  A    between atoms: C13_15  and  C14_16 
REMARK    7  A    between atoms: C14_16  and  N2_17 
ROOT
HETATM    1  N1  UNL     1      26.102   2.374  52.321  1.00  0.00    -0.384 N 
HETATM    2  H12 UNL     1      25.899   3.168  53.009  1.00  0.00     0.160 HD
ENDROOT
BRANCH   1   3
HETATM    3  C10 UNL     1      25.496   1.353  53.046  1.00  0.00     0.073 A 
HETATM    4  C3  UNL     1      26.454   0.891  54.077  1.00  0.00     0.092 A 
HETATM    5  C4  UNL     1      26.179  -0.096  54.908  1.00  0.00     0.017 A 
HETATM    6  C5  UNL     1      24.906  -0.844  54.901  1.00  0.00     0.070 A 
HETATM    7  C6  UNL     1      24.059  -0.272  53.847  1.00  0.00    -0.035 A 
HETATM    8  C7  UNL     1      23.073   0.077  52.905  1.00  0.00    -0.041 A 
HETATM    9  C9  UNL     1      24.322   0.797  52.916  1.00  0.00     0.007 A 
HETATM   10  C8  UNL     1      21.774  -0.109  52.256  1.00  0.00     0.049 C 
BRANCH   4  11
HETATM   11  O1  UNL     1      27.729   1.383  54.341  1.00  0.00    -0.349 OA
BRANCH  11  12
HETATM   12  C2  UNL     1      28.763   0.531  54.742  1.00  0.00     0.171 C 
HETATM   13  C1  UNL     1      29.591  -0.029  53.636  1.00  0.00     0.034 C 
ENDBRANCH  11  12
ENDBRANCH   4  11
ENDBRANCH   1   3
BRANCH   1  14
HETATM   14  C11 UNL     1      26.829   2.795  51.139  1.00  0.00     0.147 C 
BRANCH  14  15
HETATM   15  C12 UNL     1      25.910   3.645  50.270  1.00  0.00    -0.010 C 
HETATM   16  C13 UNL     1      24.747   4.139  50.707  1.00  0.00     0.001 C 
BRANCH  16  17
HETATM   17  C14 UNL     1      23.535   4.937  50.420  1.00  0.00     0.299 C 
BRANCH  17  18
HETATM   18  N2  UNL     1      22.615   4.997  51.570  1.00  0.00     0.096 N 
HETATM   19  C15 UNL     1      22.180   3.615  51.759  1.00  0.00     0.299 C 
HETATM   20  C16 UNL     1      20.787   3.522  52.302  1.00  0.00     0.198 C 
HETATM   21  O2  UNL     1      19.840   4.153  51.497  1.00  0.00    -0.388 OA
HETATM   22  C17 UNL     1      20.445   4.854  50.462  1.00  0.00     0.198 C 
HETATM   23  C18 UNL     1      21.471   5.795  51.104  1.00  0.00     0.299 C 
ENDBRANCH  17  18
ENDBRANCH  16  17
ENDBRANCH  14  15
ENDBRANCH   1  14
TORSDOF 7
ENDMDL
MODEL 3
REMARK VINA RESULT:      -6.6      3.625      7.025
REMARK  7 active torsions:
REMARK  status: ('A' for Active; 'I' for Inactive)
REMARK    1  A    between atoms: C2_2  and  O1_3 
REMARK    2  A    between atoms: O1_3  and  C3_4 
REMARK    3  A    between atoms: C10_11  and  N1_12 
REMARK    4  A    between atoms: N1_12  and  C11_13 
REMARK    5  A    between atoms: C11_13  and  C12_14 
REMARK    6  A    between atoms: C13_15  and  C14_16 
REMARK    7  A    between atoms: C14_16  and  N2_17 
ROOT
HETATM    1  N1  UNL     1      21.933   2.268  52.512  1.00  0.00    -0.384 N 
HETATM    2  H12 UNL     1      21.315   2.920  53.092  1.00  0.00     0.160 HD
ENDROOT
BRANCH   1   3
HETATM    3  C10 UNL     1      21.399   1.068  52.967  1.00  0.00     0.073 A 
HETATM    4  C3  UNL     1      20.054   0.908  52.370  1.00  0.00     0.092 A 
HETATM    5  C4  UNL     1      19.277  -0.125  52.637  1.00  0.00     0.017 A 
HETATM    6  C5  UNL     1      19.655  -1.220  53.552  1.00  0.00     0.070 A 
HETATM    7  C6  UNL     1      21.005  -0.936  54.053  1.00  0.00    -0.035 A 
HETATM    8  C7  UNL     1      22.263  -0.888  54.684  1.00  0.00    -0.041 A 
HETATM    9  C9  UNL     1      21.882   0.179  53.794  1.00  0.00     0.007 A 
HETATM   10  C8  UNL     1      23.272  -1.410  55.608  1.00  0.00     0.049 C 
BRANCH   4  11
HETATM   11  O1  UNL     1      19.408   1.758  51.475  1.00  0.00    -0.349 OA
BRANCH  11  12
HETATM   12  C2  UNL     1      19.223   1.394  50.138  1.00  0.00     0.171 C 
HETATM   13  C1  UNL     1      20.472   1.270  49.334  1.00  0.00     0.034 C 
ENDBRANCH  11  12
ENDBRANCH   4  11
ENDBRANCH   1   3
BRANCH   1  14
HETATM   14  C11 UNL     1      22.886   2.962  51.668  1.00  0.00     0.147 C 
BRANCH  14  15
HETATM   15  C12 UNL     1      24.215   3.068  52.406  1.00  0.00    -0.010 C 
HETATM   16  C13 UNL     1      25.304   2.381  52.047  1.00  0.00     0.001 C 
BRANCH  16  17
HETATM   17  C14 UNL     1      26.727   2.063  52.296  1.00  0.00     0.299 C 
BRANCH  17  18
HETATM   18  N2  UNL     1      26.954   1.515  53.646  1.00  0.00     0.096 N 
HETATM   19  C15 UNL     1      28.406   1.390  53.748  1.00  0.00     0.299 C 
HETATM   20  C16 UNL     1      28.823   0.248  54.623  1.00  0.00     0.198 C 
HETATM   21  O2  UNL     1      28.325  -0.981  54.196  1.00  0.00    -0.388 OA
HETATM   22  C17 UNL     1      27.428  -0.825  53.147  1.00  0.00     0.198 C 
HETATM   23  C18 UNL     1      26.362   0.170  53.618  1.00  0.00     0.299 C 
ENDBRANCH  17  18
ENDBRANCH  16  17
ENDBRANCH  14  15
ENDBRANCH   1  14
TORSDOF 7
ENDMDL
MODEL 4
REMARK VINA RESULT:      -6.5      3.515      7.061
REMARK  7 active torsions:
REMARK  status: ('A' for Active; 'I' for Inactive)
REMARK    1  A    between atoms: C2_2  and  O1_3 
REMARK    2  A    between atoms: O1_3  and  C3_4 
REMARK    3  A    between atoms: C10_11  and  N1_12 
REMARK    4  A    between atoms: N1_12  and  C11_13 
REMARK    5  A    between atoms: C11_13  and  C12_14 
REMARK    6  A    between atoms: C13_15  and  C14_16 
REMARK    7  A    between atoms: C14_16  and  N2_17 
ROOT
HETATM    1  N1  UNL     1      22.811   1.107  51.532  1.00  0.00    -0.384 N 
HETATM    2  H12 UNL     1      22.738   0.406  50.727  1.00  0.00     0.160 HD
ENDROOT
BRANCH   1   3
HETATM    3  C10 UNL     1      22.349   0.267  52.540  1.00  0.00     0.073 A 
HETATM    4  C3  UNL     1      20.898   0.056  52.334  1.00  0.00     0.092 A 
HETATM    5  C4  UNL     1      20.165  -0.676  53.151  1.00  0.00     0.017 A 
HETATM    6  C5  UNL     1      20.701  -1.353  54.349  1.00  0.00     0.070 A 
HETATM    7  C6  UNL     1      22.139  -1.067  54.417  1.00  0.00    -0.035 A 
HETATM    8  C7  UNL     1      23.508  -0.933  54.716  1.00  0.00    -0.041 A 
HETATM    9  C9  UNL     1      22.974  -0.271  53.553  1.00  0.00     0.007 A 
HETATM   10  C8  UNL     1      24.680  -1.166  55.561  1.00  0.00     0.049 C 
BRANCH   4  11
HETATM   11  O1  UNL     1      20.099   0.553  51.308  1.00  0.00    -0.349 OA
BRANCH  11  12
HETATM   12  C2  UNL     1      18.734   0.786  51.504  1.00  0.00     0.171 C 
HETATM   13  C1  UNL     1      17.844   0.317  50.404  1.00  0.00     0.034 C 
ENDBRANCH  11  12
ENDBRANCH   4  11
ENDBRANCH   1   3
BRANCH   1  14
HETATM   14  C11 UNL     1      23.304   2.410  51.130  1.00  0.00     0.147 C 
BRANCH  14  15
HETATM   15  C12 UNL     1      24.802   2.477  51.402  1.00  0.00    -0.010 C 
HETATM   16  C13 UNL     1      25.334   2.250  52.608  1.00  0.00     0.001 C 
BRANCH  16  17
HETATM   17  C14 UNL     1      26.548   2.163  53.448  1.00  0.00     0.299 C 
BRANCH  17  18
HETATM   18  N2  UNL     1      27.582   1.294  52.856  1.00  0.00     0.096 N 
HETATM   19  C15 UNL     1      26.981  -0.038  52.860  1.00  0.00     0.299 C 
HETATM   20  C16 UNL     1      28.000  -1.125  53.021  1.00  0.00     0.198 C 
HETATM   21  O2  UNL     1      28.754  -1.002  54.186  1.00  0.00    -0.388 OA
HETATM   22  C17 UNL     1      28.484   0.194  54.838  1.00  0.00     0.198 C 
HETATM   23  C18 UNL     1      28.696   1.316  53.816  1.00  0.00     0.299 C 
ENDBRANCH  17  18
ENDBRANCH  16  17
ENDBRANCH  14  15
ENDBRANCH   1  14
TORSDOF 7
ENDMDL
MODEL 5
REMARK VINA RESULT:      -6.5      3.594      6.996
REMARK  7 active torsions:
REMARK  status: ('A' for Active; 'I' for Inactive)
REMARK    1  A    between atoms: C2_2  and  O1_3 
REMARK    2  A    between atoms: O1_3  and  C3_4 
REMARK    3  A    between atoms: C10_11  and  N1_12 
REMARK    4  A    between atoms: N1_12  and  C11_13 
REMARK    5  A    between atoms: C11_13  and  C12_14 
REMARK    6  A    between atoms: C13_15  and  C14_16 
REMARK    7  A    between atoms: C14_16  and  N2_17 
ROOT
HETATM    1  N1  UNL     1      22.106  -0.184  52.507  1.00  0.00    -0.384 N 
HETATM    2  H12 UNL     1      23.007   0.113  52.014  1.00  0.00     0.160 HD
ENDROOT
BRANCH   1   3
HETATM    3  C10 UNL     1      21.215   0.352  51.585  1.00  0.00     0.073 A 
HETATM    4  C3  UNL     1      21.967   1.266  50.696  1.00  0.00     0.092 A 
HETATM    5  C4  UNL     1      21.387   1.955  49.732  1.00  0.00     0.017 A 
HETATM    6  C5  UNL     1      19.941   1.894  49.436  1.00  0.00     0.070 A 
HETATM    7  C6  UNL     1      19.333   0.948  50.379  1.00  0.00    -0.035 A 
HETATM    8  C7  UNL     1      18.515   0.113  51.163  1.00  0.00    -0.041 A 
HETATM    9  C9  UNL     1      19.926   0.183  51.447  1.00  0.00     0.007 A 
HETATM   10  C8  UNL     1      17.215  -0.438  51.551  1.00  0.00     0.049 C 
BRANCH   4  11
HETATM   11  O1  UNL     1      23.331   1.545  50.713  1.00  0.00    -0.349 OA
BRANCH  11  12
HETATM   12  C2  UNL     1      23.811   2.779  51.162  1.00  0.00     0.171 C 
HETATM   13  C1  UNL     1      23.821   2.958  52.642  1.00  0.00     0.034 C 
ENDBRANCH  11  12
ENDBRANCH   4  11
ENDBRANCH   1   3
BRANCH   1  14
HETATM   14  C11 UNL     1      22.327  -0.907  53.745  1.00  0.00     0.147 C 
BRANCH  14  15
HETATM   15  C12 UNL     1      23.767  -0.688  54.195  1.00  0.00    -0.010 C 
HETATM   16  C13 UNL     1      24.779  -0.519  53.338  1.00  0.00     0.001 C 
BRANCH  16  17
HETATM   17  C14 UNL     1      26.226  -0.289  53.134  1.00  0.00     0.299 C 
BRANCH  17  18
HETATM   18  N2  UNL     1      26.748   0.800  53.980  1.00  0.00     0.096 N 
HETATM   19  C15 UNL     1      27.424   1.695  53.042  1.00  0.00     0.299 C 
HETATM   20  C16 UNL     1      28.591   2.400  53.663  1.00  0.00     0.198 C 
HETATM   21  O2  UNL     1      29.550   1.528  54.174  1.00  0.00    -0.388 OA
HETATM   22  C17 UNL     1      29.111   0.211  54.125  1.00  0.00     0.198 C 
HETATM   23  C18 UNL     1      27.757   0.167  54.842  1.00  0.00     0.299 C 
ENDBRANCH  17  18
ENDBRANCH  16  17
ENDBRANCH  14  15
ENDBRANCH   1  14
TORSDOF 7
ENDMDL
MODEL 6
REMARK VINA RESULT:      -6.4      3.876      7.744
REMARK  7 active torsions:
REMARK  status: ('A' for Active; 'I' for Inactive)
REMARK    1  A    between atoms: C2_2  and  O1_3 
REMARK    2  A    between atoms: O1_3  and  C3_4 
REMARK    3  A    between atoms: C10_11  and  N1_12 
REMARK    4  A    between atoms: N1_12  and  C11_13 
REMARK    5  A    between atoms: C11_13  and  C12_14 
REMARK    6  A    between atoms: C13_15  and  C14_16 
REMARK    7  A    between atoms: C14_16  and  N2_17 
ROOT
HETATM    1  N1  UNL     1      22.736   1.149  52.117  1.00  0.00    -0.384 N 
HETATM    2  H12 UNL     1      23.280   0.379  51.612  1.00  0.00     0.160 HD
ENDROOT
BRANCH   1   3
HETATM    3  C10 UNL     1      21.737   0.341  52.647  1.00  0.00     0.073 A 
HETATM    4  C3  UNL     1      22.343  -0.513  53.694  1.00  0.00     0.092 A 
HETATM    5  C4  UNL     1      21.649  -1.414  54.363  1.00  0.00     0.017 A 
HETATM    6  C5  UNL     1      20.212  -1.672  54.143  1.00  0.00     0.070 A 
HETATM    7  C6  UNL     1      19.749  -0.753  53.097  1.00  0.00    -0.035 A 
HETATM    8  C7  UNL     1      19.067  -0.002  52.120  1.00  0.00    -0.041 A 
HETATM    9  C9  UNL     1      20.472   0.238  52.338  1.00  0.00     0.007 A 
HETATM   10  C8  UNL     1      17.877   0.329  51.335  1.00  0.00     0.049 C 
BRANCH   4  11
HETATM   11  O1  UNL     1      23.663  -0.517  54.136  1.00  0.00    -0.349 OA
BRANCH  11  12
HETATM   12  C2  UNL     1      24.059  -1.306  55.220  1.00  0.00     0.171 C 
HETATM   13  C1  UNL     1      25.206  -0.773  56.009  1.00  0.00     0.034 C 
ENDBRANCH  11  12
ENDBRANCH   4  11
ENDBRANCH   1   3
BRANCH   1  14
HETATM   14  C11 UNL     1      23.313   2.471  51.962  1.00  0.00     0.147 C 
BRANCH  14  15
HETATM   15  C12 UNL     1      24.354   2.688  53.054  1.00  0.00    -0.010 C 
HETATM   16  C13 UNL     1      25.636   2.336  52.917  1.00  0.00     0.001 C 
BRANCH  16  17
HETATM   17  C14 UNL     1      26.991   2.273  53.507  1.00  0.00     0.299 C 
BRANCH  17  18
HETATM   18  N2  UNL     1      27.845   1.265  52.854  1.00  0.00     0.096 N 
HETATM   19  C15 UNL     1      27.046   0.041  52.882  1.00  0.00     0.299 C 
HETATM   20  C16 UNL     1      27.892  -1.192  52.979  1.00  0.00     0.198 C 
HETATM   21  O2  UNL     1      28.717  -1.204  54.102  1.00  0.00    -0.388 OA
HETATM   22  C17 UNL     1      28.670   0.009  54.776  1.00  0.00     0.198 C 
HETATM   23  C18 UNL     1      28.998   1.100  53.751  1.00  0.00     0.299 C 
ENDBRANCH  17  18
ENDBRANCH  16  17
ENDBRANCH  14  15
ENDBRANCH   1  14
TORSDOF 7
ENDMDL
MODEL 7
REMARK VINA RESULT:      -6.4      2.751      7.957
REMARK  7 active torsions:
REMARK  status: ('A' for Active; 'I' for Inactive)
REMARK    1  A    between atoms: C2_2  and  O1_3 
REMARK    2  A    between atoms: O1_3  and  C3_4 
REMARK    3  A    between atoms: C10_11  and  N1_12 
REMARK    4  A    between atoms: N1_12  and  C11_13 
REMARK    5  A    between atoms: C11_13  and  C12_14 
REMARK    6  A    between atoms: C13_15  and  C14_16 
REMARK    7  A    between atoms: C14_16  and  N2_17 
ROOT
HETATM    1  N1  UNL     1      26.365   2.687  50.954  1.00  0.00    -0.384 N 
HETATM    2  H12 UNL     1      26.452   3.392  51.754  1.00  0.00     0.160 HD
ENDROOT
BRANCH   1   3
HETATM    3  C10 UNL     1      26.054   1.577  51.731  1.00  0.00     0.073 A 
HETATM    4  C3  UNL     1      24.584   1.527  51.895  1.00  0.00     0.092 A 
HETATM    5  C4  UNL     1      23.981   0.598  52.613  1.00  0.00     0.017 A 
HETATM    6  C5  UNL     1      24.697  -0.480  53.326  1.00  0.00     0.070 A 
HETATM    7  C6  UNL     1      26.131  -0.312  53.064  1.00  0.00    -0.035 A 
HETATM    8  C7  UNL     1      27.536  -0.362  52.983  1.00  0.00    -0.041 A 
HETATM    9  C9  UNL     1      26.829   0.689  52.295  1.00  0.00     0.007 A 
HETATM   10  C8  UNL     1      28.836  -0.935  53.335  1.00  0.00     0.049 C 
BRANCH   4  11
HETATM   11  O1  UNL     1      23.633   2.390  51.356  1.00  0.00    -0.349 OA
BRANCH  11  12
HETATM   12  C2  UNL     1      22.866   3.223  52.177  1.00  0.00     0.171 C 
HETATM   13  C1  UNL     1      23.587   4.399  52.740  1.00  0.00     0.034 C 
ENDBRANCH  11  12
ENDBRANCH   4  11
ENDBRANCH   1   3
BRANCH   1  14
HETATM   14  C11 UNL     1      26.604   3.258  49.643  1.00  0.00     0.147 C 
BRANCH  14  15
HETATM   15  C12 UNL     1      25.670   4.446  49.443  1.00  0.00    -0.010 C 
HETATM   16  C13 UNL     1      26.070   5.604  48.907  1.00  0.00     0.001 C 
BRANCH  16  17
HETATM   17  C14 UNL     1      25.722   6.978  48.483  1.00  0.00     0.299 C 
BRANCH  17  18
HETATM   18  N2  UNL     1      26.859   7.681  47.862  1.00  0.00     0.096 N 
HETATM   19  C15 UNL     1      28.038   6.985  48.373  1.00  0.00     0.299 C 
HETATM   20  C16 UNL     1      29.224   7.891  48.508  1.00  0.00     0.198 C 
HETATM   21  O2  UNL     1      28.988   8.984  49.340  1.00  0.00    -0.388 OA
HETATM   22  C17 UNL     1      27.653   9.051  49.718  1.00  0.00     0.198 C 
HETATM   23  C18 UNL     1      26.826   9.038  48.428  1.00  0.00     0.299 C 
ENDBRANCH  17  18
ENDBRANCH  16  17
ENDBRANCH  14  15
ENDBRANCH   1  14
TORSDOF 7
ENDMDL
MODEL 8
REMARK VINA RESULT:      -6.3      2.690      5.623
REMARK  7 active torsions:
REMARK  status: ('A' for Active; 'I' for Inactive)
REMARK    1  A    between atoms: C2_2  and  O1_3 
REMARK    2  A    between atoms: O1_3  and  C3_4 
REMARK    3  A    between atoms: C10_11  and  N1_12 
REMARK    4  A    between atoms: N1_12  and  C11_13 
REMARK    5  A    between atoms: C11_13  and  C12_14 
REMARK    6  A    between atoms: C13_15  and  C14_16 
REMARK    7  A    between atoms: C14_16  and  N2_17 
ROOT
HETATM    1  N1  UNL     1      23.881   3.214  52.093  1.00  0.00    -0.384 N 
HETATM    2  H12 UNL     1      23.392   2.923  51.188  1.00  0.00     0.160 HD
ENDROOT
BRANCH   1   3
HETATM    3  C10 UNL     1      24.480   1.991  52.372  1.00  0.00     0.073 A 
HETATM    4  C3  UNL     1      25.842   2.003  51.790  1.00  0.00     0.092 A 
HETATM    5  C4  UNL     1      26.653   0.965  51.863  1.00  0.00     0.017 A 
HETATM    6  C5  UNL     1      26.297  -0.310  52.519  1.00  0.00     0.070 A 
HETATM    7  C6  UNL     1      24.938  -0.171  53.055  1.00  0.00    -0.035 A 
HETATM    8  C7  UNL     1      23.664  -0.299  53.641  1.00  0.00    -0.041 A 
HETATM    9  C9  UNL     1      24.019   0.938  52.992  1.00  0.00     0.007 A 
HETATM   10  C8  UNL     1      22.625  -1.063  54.335  1.00  0.00     0.049 C 
BRANCH   4  11
HETATM   11  O1  UNL     1      26.473   3.042  51.111  1.00  0.00    -0.349 OA
BRANCH  11  12
HETATM   12  C2  UNL     1      26.502   3.078  49.713  1.00  0.00     0.171 C 
HETATM   13  C1  UNL     1      26.871   4.395  49.119  1.00  0.00     0.034 C 
ENDBRANCH  11  12
ENDBRANCH   4  11
ENDBRANCH   1   3
BRANCH   1  14
HETATM   14  C11 UNL     1      23.649   4.597  52.465  1.00  0.00     0.147 C 
BRANCH  14  15
HETATM   15  C12 UNL     1      22.167   4.912  52.295  1.00  0.00    -0.010 C 
HETATM   16  C13 UNL     1      21.308   4.074  51.707  1.00  0.00     0.001 C 
BRANCH  16  17
HETATM   17  C14 UNL     1      19.920   3.796  51.275  1.00  0.00     0.299 C 
BRANCH  17  18
HETATM   18  N2  UNL     1      19.290   2.721  52.061  1.00  0.00     0.096 N 
HETATM   19  C15 UNL     1      20.354   1.737  52.250  1.00  0.00     0.299 C 
HETATM   20  C16 UNL     1      19.832   0.336  52.331  1.00  0.00     0.198 C 
HETATM   21  O2  UNL     1      19.105  -0.045  51.205  1.00  0.00    -0.388 OA
HETATM   22  C17 UNL     1      18.906   1.028  50.346  1.00  0.00     0.198 C 
HETATM   23  C18 UNL     1      18.266   2.147  51.174  1.00  0.00     0.299 C 
ENDBRANCH  17  18
ENDBRANCH  16  17
ENDBRANCH  14  15
ENDBRANCH   1  14
TORSDOF 7
ENDMDL
MODEL 9
REMARK VINA RESULT:      -6.2      2.848      5.249
REMARK  7 active torsions:
REMARK  status: ('A' for Active; 'I' for Inactive)
REMARK    1  A    between atoms: C2_2  and  O1_3 
REMARK    2  A    between atoms: O1_3  and  C3_4 
REMARK    3  A    between atoms: C10_11  and  N1_12 
REMARK    4  A    between atoms: N1_12  and  C11_13 
REMARK    5  A    between atoms: C11_13  and  C12_14 
REMARK    6  A    between atoms: C13_15  and  C14_16 
REMARK    7  A    between atoms: C14_16  and  N2_17 
ROOT
HETATM    1  N1  UNL     1      22.724   1.303  52.244  1.00  0.00    -0.384 N 
HETATM    2  H12 UNL     1      23.360   2.029  52.705  1.00  0.00     0.160 HD
ENDROOT
BRANCH   1   3
HETATM    3  C10 UNL     1      22.840   1.770  50.940  1.00  0.00     0.073 A 
HETATM    4  C3  UNL     1      21.721   1.208  50.150  1.00  0.00     0.092 A 
HETATM    5  C4  UNL     1      21.574   1.445  48.860  1.00  0.00     0.017 A 
HETATM    6  C5  UNL     1      22.499   2.283  48.070  1.00  0.00     0.070 A 
HETATM    7  C6  UNL     1      23.540   2.777  48.979  1.00  0.00    -0.035 A 
HETATM    8  C7  UNL     1      24.646   3.361  49.626  1.00  0.00    -0.041 A 
HETATM    9  C9  UNL     1      23.741   2.537  50.386  1.00  0.00     0.007 A 
HETATM   10  C8  UNL     1      25.879   4.151  49.630  1.00  0.00     0.049 C 
BRANCH   4  11
HETATM   11  O1  UNL     1      20.688   0.387  50.593  1.00  0.00    -0.349 OA
BRANCH  11  12
HETATM   12  C2  UNL     1      19.372   0.854  50.661  1.00  0.00     0.171 C 
HETATM   13  C1  UNL     1      19.119   1.894  51.700  1.00  0.00     0.034 C 
ENDBRANCH  11  12
ENDBRANCH   4  11
ENDBRANCH   1   3
BRANCH   1  14
HETATM   14  C11 UNL     1      22.162   0.342  53.174  1.00  0.00     0.147 C 
BRANCH  14  15
HETATM   15  C12 UNL     1      23.273  -0.581  53.663  1.00  0.00    -0.010 C 
HETATM   16  C13 UNL     1      24.541  -0.182  53.804  1.00  0.00     0.001 C 
BRANCH  16  17
HETATM   17  C14 UNL     1      25.930  -0.523  54.184  1.00  0.00     0.299 C 
BRANCH  17  18
HETATM   18  N2  UNL     1      26.720   0.665  54.554  1.00  0.00     0.096 N 
HETATM   19  C15 UNL     1      26.737   1.481  53.342  1.00  0.00     0.299 C 
HETATM   20  C16 UNL     1      27.993   2.287  53.211  1.00  0.00     0.198 C 
HETATM   21  O2  UNL     1      29.148   1.505  53.206  1.00  0.00    -0.388 OA
HETATM   22  C17 UNL     1      28.858   0.176  53.485  1.00  0.00     0.198 C 
HETATM   23  C18 UNL     1      28.078   0.158  54.804  1.00  0.00     0.299 C 
ENDBRANCH  17  18
ENDBRANCH  16  17
ENDBRANCH  14  15
ENDBRANCH   1  14
TORSDOF 7
ENDMDL
