MODEL 1
REMARK VINA RESULT:      -9.1      0.000      0.000
REMARK  4 active torsions:
REMARK  status: ('A' for Active; 'I' for Inactive)
REMARK    1  A    between atoms: C2_2  and  O1_3 
REMARK    2  A    between atoms: C2_2  and  C4_5 
REMARK    3  A    between atoms: C18_22  and  C19_23 
REMARK    4  A    between atoms: C19_23  and  N4_24 
ROOT
HETATM    1  C4  UNL     1      24.006   0.241  53.117  1.00  0.00     0.102 C 
HETATM    2  C5  UNL     1      25.203  -0.009  53.622  1.00  0.00     0.056 C 
HETATM    3  C6  UNL     1      26.453   0.664  53.506  1.00  0.00     0.030 A 
HETATM    4  C7  UNL     1      27.409  -0.045  54.263  1.00  0.00     0.133 A 
HETATM    5  N1  UNL     1      28.740   0.219  54.465  1.00  0.00    -0.253 NA
HETATM    6  C8  UNL     1      29.161   1.332  53.828  1.00  0.00     0.234 A 
HETATM    7  N2  UNL     1      28.339   2.077  53.084  1.00  0.00    -0.224 NA
HETATM    8  C9  UNL     1      27.061   1.755  52.937  1.00  0.00     0.137 A 
HETATM    9  N3  UNL     1      26.505   2.791  52.044  1.00  0.00    -0.369 N 
HETATM   10  C10 UNL     1      25.124   2.785  52.001  1.00  0.00     0.094 C 
HETATM   11  C11 UNL     1      24.733   3.114  53.355  1.00  0.00     0.033 C 
HETATM   12  C12 UNL     1      24.049   3.165  51.118  1.00  0.00     0.029 A 
HETATM   13  C13 UNL     1      23.524   4.503  51.436  1.00  0.00    -0.012 A 
HETATM   14  C14 UNL     1      23.288   5.596  50.749  1.00  0.00    -0.003 A 
HETATM   15  C15 UNL     1      23.613   5.507  49.317  1.00  0.00    -0.004 A 
HETATM   16  C16 UNL     1      24.097   4.319  48.988  1.00  0.00    -0.025 A 
HETATM   17  C17 UNL     1      24.403   3.043  49.679  1.00  0.00     0.045 A 
HETATM   18  C18 UNL     1      22.976   2.086  51.557  1.00  0.00     0.171 C 
HETATM   19  O3  UNL     1      23.500   1.150  52.349  1.00  0.00    -0.340 OA
HETATM   20  H9  UNL     1      26.977   3.476  51.480  1.00  0.00     0.161 HD
ENDROOT
BRANCH  18  21
HETATM   21  C19 UNL     1      22.281   1.507  50.365  1.00  0.00     0.306 C 
BRANCH  21  22
HETATM   22  N4  UNL     1      20.810   1.612  50.429  1.00  0.00     0.095 N 
HETATM   23  C20 UNL     1      20.365   0.396  51.124  1.00  0.00     0.298 C 
HETATM   24  C21 UNL     1      18.901   0.506  51.422  1.00  0.00     0.198 C 
HETATM   25  O2  UNL     1      18.364   1.768  51.161  1.00  0.00    -0.388 OA
HETATM   26  C22 UNL     1      19.103   2.723  51.824  1.00  0.00     0.198 C 
HETATM   27  C23 UNL     1      20.525   2.707  51.319  1.00  0.00     0.298 C 
ENDBRANCH  21  22
ENDBRANCH  18  21
BRANCH   1  28
HETATM   28  C2  UNL     1      22.962  -0.744  53.509  1.00  0.00     0.092 C 
HETATM   29  C1  UNL     1      22.640  -0.934  54.760  1.00  0.00     0.053 C 
BRANCH  28  30
HETATM   30  O1  UNL     1      21.982  -1.709  53.449  1.00  0.00    -0.354 OA
HETATM   31  C3  UNL     1      20.849  -1.642  54.298  1.00  0.00     0.210 C 
ENDBRANCH  28  30
ENDBRANCH   1  28
TORSDOF 4
ENDMDL
MODEL 2
REMARK VINA RESULT:      -8.7      2.269      3.465
REMARK  4 active torsions:
REMARK  status: ('A' for Active; 'I' for Inactive)
REMARK    1  A    between atoms: C2_2  and  O1_3 
REMARK    2  A    between atoms: C2_2  and  C4_5 
REMARK    3  A    between atoms: C18_22  and  C19_23 
REMARK    4  A    between atoms: C19_23  and  N4_24 
ROOT
HETATM    1  C4  UNL     1      22.747   1.206  51.573  1.00  0.00     0.102 C 
HETATM    2  C5  UNL     1      23.336   0.510  52.530  1.00  0.00     0.056 C 
HETATM    3  C6  UNL     1      24.576   0.672  53.212  1.00  0.00     0.030 A 
HETATM    4  C7  UNL     1      24.704  -0.371  54.153  1.00  0.00     0.133 A 
HETATM    5  N1  UNL     1      25.715  -0.628  55.045  1.00  0.00    -0.253 NA
HETATM    6  C8  UNL     1      26.718   0.272  54.983  1.00  0.00     0.234 A 
HETATM    7  N2  UNL     1      26.698   1.298  54.127  1.00  0.00    -0.224 NA
HETATM    8  C9  UNL     1      25.682   1.480  53.294  1.00  0.00     0.137 A 
HETATM    9  N3  UNL     1      26.037   2.683  52.515  1.00  0.00    -0.369 N 
HETATM   10  C10 UNL     1      24.976   3.193  51.792  1.00  0.00     0.094 C 
HETATM   11  C11 UNL     1      24.024   3.590  52.807  1.00  0.00     0.033 C 
HETATM   12  C12 UNL     1      24.727   3.980  50.609  1.00  0.00     0.029 A 
HETATM   13  C13 UNL     1      24.532   5.404  50.927  1.00  0.00    -0.012 A 
HETATM   14  C14 UNL     1      25.041   6.532  50.493  1.00  0.00    -0.003 A 
HETATM   15  C15 UNL     1      26.055   6.384  49.436  1.00  0.00    -0.004 A 
HETATM   16  C16 UNL     1      26.268   5.116  49.123  1.00  0.00    -0.025 A 
HETATM   17  C17 UNL     1      25.757   3.791  49.554  1.00  0.00     0.045 A 
HETATM   18  C18 UNL     1      23.331   3.362  50.190  1.00  0.00     0.171 C 
HETATM   19  O3  UNL     1      23.035   2.267  50.893  1.00  0.00    -0.340 OA
HETATM   20  H9  UNL     1      26.916   3.164  52.438  1.00  0.00     0.161 HD
ENDROOT
BRANCH  18  21
HETATM   21  C19 UNL     1      23.270   3.129  48.713  1.00  0.00     0.306 C 
BRANCH  21  22
HETATM   22  N4  UNL     1      22.156   3.835  48.049  1.00  0.00     0.095 N 
HETATM   23  C20 UNL     1      22.693   5.155  47.690  1.00  0.00     0.298 C 
HETATM   24  C21 UNL     1      21.701   5.873  46.827  1.00  0.00     0.198 C 
HETATM   25  O2  UNL     1      20.628   5.078  46.418  1.00  0.00    -0.388 OA
HETATM   26  C22 UNL     1      21.110   3.937  45.816  1.00  0.00     0.198 C 
HETATM   27  C23 UNL     1      21.927   3.145  46.808  1.00  0.00     0.298 C 
ENDBRANCH  21  22
ENDBRANCH  18  21
BRANCH   1  28
HETATM   28  C2  UNL     1      21.426   0.666  51.151  1.00  0.00     0.092 C 
HETATM   29  C1  UNL     1      21.116   0.536  49.889  1.00  0.00     0.053 C 
BRANCH  28  30
HETATM   30  O1  UNL     1      20.152   0.146  51.183  1.00  0.00    -0.354 OA
HETATM   31  C3  UNL     1      19.142   0.757  51.969  1.00  0.00     0.210 C 
ENDBRANCH  28  30
ENDBRANCH   1  28
TORSDOF 4
ENDMDL
MODEL 3
REMARK VINA RESULT:      -8.5      2.734      5.759
REMARK  4 active torsions:
REMARK  status: ('A' for Active; 'I' for Inactive)
REMARK    1  A    between atoms: C2_2  and  O1_3 
REMARK    2  A    between atoms: C2_2  and  C4_5 
REMARK    3  A    between atoms: C18_22  and  C19_23 
REMARK    4  A    between atoms: C19_23  and  N4_24 
ROOT
HETATM    1  C4  UNL     1      24.746   1.624  52.230  1.00  0.00     0.102 C 
HETATM    2  C5  UNL     1      24.260   0.675  53.012  1.00  0.00     0.056 C 
HETATM    3  C6  UNL     1      22.929   0.280  53.330  1.00  0.00     0.030 A 
HETATM    4  C7  UNL     1      22.992  -0.806  54.228  1.00  0.00     0.133 A 
HETATM    5  N1  UNL     1      21.977  -1.529  54.803  1.00  0.00    -0.253 NA
HETATM    6  C8  UNL     1      20.751  -1.108  54.430  1.00  0.00     0.234 A 
HETATM    7  N2  UNL     1      20.577  -0.088  53.586  1.00  0.00    -0.224 NA
HETATM    8  C9  UNL     1      21.612   0.562  53.070  1.00  0.00     0.137 A 
HETATM    9  N3  UNL     1      21.018   1.613  52.219  1.00  0.00    -0.369 N 
HETATM   10  C10 UNL     1      21.936   2.213  51.379  1.00  0.00     0.094 C 
HETATM   11  C11 UNL     1      22.368   1.137  50.513  1.00  0.00     0.033 C 
HETATM   12  C12 UNL     1      22.141   3.459  50.683  1.00  0.00     0.029 A 
HETATM   13  C13 UNL     1      21.673   3.394  49.288  1.00  0.00    -0.012 A 
HETATM   14  C14 UNL     1      20.886   4.127  48.537  1.00  0.00    -0.003 A 
HETATM   15  C15 UNL     1      20.312   5.303  49.209  1.00  0.00    -0.004 A 
HETATM   16  C16 UNL     1      20.701   5.397  50.470  1.00  0.00    -0.025 A 
HETATM   17  C17 UNL     1      21.568   4.630  51.398  1.00  0.00     0.045 A 
HETATM   18  C18 UNL     1      23.724   3.484  50.681  1.00  0.00     0.171 C 
HETATM   19  O3  UNL     1      24.242   2.539  51.468  1.00  0.00    -0.340 OA
HETATM   20  H9  UNL     1      20.070   1.943  52.171  1.00  0.00     0.161 HD
ENDROOT
BRANCH  18  21
HETATM   21  C19 UNL     1      24.239   4.851  51.011  1.00  0.00     0.306 C 
BRANCH  21  22
HETATM   22  N4  UNL     1      24.880   5.532  49.869  1.00  0.00     0.095 N 
HETATM   23  C20 UNL     1      25.360   6.814  50.403  1.00  0.00     0.298 C 
HETATM   24  C21 UNL     1      26.208   7.491  49.370  1.00  0.00     0.198 C 
HETATM   25  O2  UNL     1      26.497   6.693  48.262  1.00  0.00    -0.388 OA
HETATM   26  C22 UNL     1      27.048   5.504  48.689  1.00  0.00     0.198 C 
HETATM   27  C23 UNL     1      26.055   4.765  49.553  1.00  0.00     0.298 C 
ENDBRANCH  21  22
ENDBRANCH  18  21
BRANCH   1  28
HETATM   28  C2  UNL     1      26.232   1.681  52.191  1.00  0.00     0.092 C 
HETATM   29  C1  UNL     1      26.957   0.596  52.250  1.00  0.00     0.053 C 
BRANCH  28  30
HETATM   30  O1  UNL     1      27.525   2.151  52.127  1.00  0.00    -0.354 OA
HETATM   31  C3  UNL     1      28.304   2.284  53.305  1.00  0.00     0.210 C 
ENDBRANCH  28  30
ENDBRANCH   1  28
TORSDOF 4
ENDMDL
MODEL 4
REMARK VINA RESULT:      -8.0      2.486      4.875
REMARK  4 active torsions:
REMARK  status: ('A' for Active; 'I' for Inactive)
REMARK    1  A    between atoms: C2_2  and  O1_3 
REMARK    2  A    between atoms: C2_2  and  C4_5 
REMARK    3  A    between atoms: C18_22  and  C19_23 
REMARK    4  A    between atoms: C19_23  and  N4_24 
ROOT
HETATM    1  C4  UNL     1      25.801   1.844  51.572  1.00  0.00     0.102 C 
HETATM    2  C5  UNL     1      26.418   2.771  50.859  1.00  0.00     0.056 C 
HETATM    3  C6  UNL     1      25.936   3.841  50.051  1.00  0.00     0.030 A 
HETATM    4  C7  UNL     1      27.045   4.528  49.517  1.00  0.00     0.133 A 
HETATM    5  N1  UNL     1      27.085   5.627  48.696  1.00  0.00    -0.253 NA
HETATM    6  C8  UNL     1      25.860   6.090  48.373  1.00  0.00     0.234 A 
HETATM    7  N2  UNL     1      24.742   5.514  48.824  1.00  0.00    -0.224 NA
HETATM    8  C9  UNL     1      24.786   4.452  49.617  1.00  0.00     0.137 A 
HETATM    9  N3  UNL     1      23.374   4.106  49.873  1.00  0.00    -0.369 N 
HETATM   10  C10 UNL     1      23.216   3.200  50.904  1.00  0.00     0.094 C 
HETATM   11  C11 UNL     1      23.716   3.905  52.065  1.00  0.00     0.033 C 
HETATM   12  C12 UNL     1      22.283   2.197  51.354  1.00  0.00     0.029 A 
HETATM   13  C13 UNL     1      21.348   2.727  52.360  1.00  0.00    -0.012 A 
HETATM   14  C14 UNL     1      20.045   2.734  52.505  1.00  0.00    -0.003 A 
HETATM   15  C15 UNL     1      19.301   2.064  51.427  1.00  0.00    -0.004 A 
HETATM   16  C16 UNL     1      20.103   1.577  50.494  1.00  0.00    -0.025 A 
HETATM   17  C17 UNL     1      21.564   1.525  50.240  1.00  0.00     0.045 A 
HETATM   18  C18 UNL     1      23.299   1.221  52.076  1.00  0.00     0.171 C 
HETATM   19  O3  UNL     1      24.569   1.538  51.820  1.00  0.00    -0.340 OA
HETATM   20  H9  UNL     1      22.539   4.428  49.414  1.00  0.00     0.161 HD
ENDROOT
BRANCH  18  21
HETATM   21  C19 UNL     1      22.988  -0.208  51.757  1.00  0.00     0.306 C 
BRANCH  21  22
HETATM   22  N4  UNL     1      22.727  -1.037  52.950  1.00  0.00     0.095 N 
HETATM   23  C20 UNL     1      23.580  -0.474  54.006  1.00  0.00     0.298 C 
HETATM   24  C21 UNL     1      23.233  -1.118  55.314  1.00  0.00     0.198 C 
HETATM   25  O2  UNL     1      22.095  -1.924  55.264  1.00  0.00    -0.388 OA
HETATM   26  C22 UNL     1      21.044  -1.196  54.749  1.00  0.00     0.198 C 
HETATM   27  C23 UNL     1      21.370  -0.760  53.341  1.00  0.00     0.298 C 
ENDBRANCH  21  22
ENDBRANCH  18  21
BRANCH   1  28
HETATM   28  C2  UNL     1      26.717   0.906  52.276  1.00  0.00     0.092 C 
HETATM   29  C1  UNL     1      26.729  -0.370  51.999  1.00  0.00     0.053 C 
BRANCH  28  30
HETATM   30  O1  UNL     1      27.678   0.400  53.122  1.00  0.00    -0.354 OA
HETATM   31  C3  UNL     1      27.408   0.235  54.504  1.00  0.00     0.210 C 
ENDBRANCH  28  30
ENDBRANCH   1  28
TORSDOF 4
ENDMDL
MODEL 5
REMARK VINA RESULT:      -7.9      1.604      4.554
REMARK  4 active torsions:
REMARK  status: ('A' for Active; 'I' for Inactive)
REMARK    1  A    between atoms: C2_2  and  O1_3 
REMARK    2  A    between atoms: C2_2  and  C4_5 
REMARK    3  A    between atoms: C18_22  and  C19_23 
REMARK    4  A    between atoms: C19_23  and  N4_24 
ROOT
HETATM    1  C4  UNL     1      25.514   2.270  51.604  1.00  0.00     0.102 C 
HETATM    2  C5  UNL     1      26.720   2.169  52.137  1.00  0.00     0.056 C 
HETATM    3  C6  UNL     1      27.235   1.378  53.204  1.00  0.00     0.030 A 
HETATM    4  C7  UNL     1      28.607   1.671  53.351  1.00  0.00     0.133 A 
HETATM    5  N1  UNL     1      29.525   1.156  54.231  1.00  0.00    -0.253 NA
HETATM    6  C8  UNL     1      29.000   0.234  55.064  1.00  0.00     0.234 A 
HETATM    7  N2  UNL     1      27.712  -0.118  55.012  1.00  0.00    -0.224 NA
HETATM    8  C9  UNL     1      26.885   0.428  54.130  1.00  0.00     0.137 A 
HETATM    9  N3  UNL     1      25.573  -0.195  54.400  1.00  0.00    -0.369 N 
HETATM   10  C10 UNL     1      24.648   0.037  53.401  1.00  0.00     0.094 C 
HETATM   11  C11 UNL     1      25.217  -0.618  52.242  1.00  0.00     0.033 C 
HETATM   12  C12 UNL     1      23.219   0.110  53.220  1.00  0.00     0.029 A 
HETATM   13  C13 UNL     1      22.660  -1.165  52.738  1.00  0.00    -0.012 A 
HETATM   14  C14 UNL     1      21.680  -1.951  53.114  1.00  0.00    -0.003 A 
HETATM   15  C15 UNL     1      20.937  -1.488  54.297  1.00  0.00    -0.004 A 
HETATM   16  C16 UNL     1      21.411  -0.346  54.769  1.00  0.00    -0.025 A 
HETATM   17  C17 UNL     1      22.501   0.601  54.425  1.00  0.00     0.045 A 
HETATM   18  C18 UNL     1      23.173   1.159  52.035  1.00  0.00     0.171 C 
HETATM   19  O3  UNL     1      24.362   1.723  51.816  1.00  0.00    -0.340 OA
HETATM   20  H9  UNL     1      25.270  -0.743  55.186  1.00  0.00     0.161 HD
ENDROOT
BRANCH  18  21
HETATM   21  C19 UNL     1      22.091   2.169  52.256  1.00  0.00     0.306 C 
BRANCH  21  22
HETATM   22  N4  UNL     1      21.072   2.187  51.188  1.00  0.00     0.095 N 
HETATM   23  C20 UNL     1      21.709   1.535  50.035  1.00  0.00     0.298 C 
HETATM   24  C21 UNL     1      20.684   1.319  48.963  1.00  0.00     0.198 C 
HETATM   25  O2  UNL     1      19.377   1.593  49.367  1.00  0.00    -0.388 OA
HETATM   26  C22 UNL     1      19.093   0.877  50.509  1.00  0.00     0.198 C 
HETATM   27  C23 UNL     1      20.024   1.300  51.620  1.00  0.00     0.298 C 
ENDBRANCH  21  22
ENDBRANCH  18  21
BRANCH   1  28
HETATM   28  C2  UNL     1      25.424   3.241  50.480  1.00  0.00     0.092 C 
HETATM   29  C1  UNL     1      26.358   3.318  49.571  1.00  0.00     0.053 C 
BRANCH  28  30
HETATM   30  O1  UNL     1      24.976   4.234  49.639  1.00  0.00    -0.354 OA
HETATM   31  C3  UNL     1      23.662   4.752  49.769  1.00  0.00     0.210 C 
ENDBRANCH  28  30
ENDBRANCH   1  28
TORSDOF 4
ENDMDL
MODEL 6
REMARK VINA RESULT:      -7.9      2.232      7.472
REMARK  4 active torsions:
REMARK  status: ('A' for Active; 'I' for Inactive)
REMARK    1  A    between atoms: C2_2  and  O1_3 
REMARK    2  A    between atoms: C2_2  and  C4_5 
REMARK    3  A    between atoms: C18_22  and  C19_23 
REMARK    4  A    between atoms: C19_23  and  N4_24 
ROOT
HETATM    1  C4  UNL     1      22.858   3.597  50.477  1.00  0.00     0.102 C 
HETATM    2  C5  UNL     1      21.917   3.903  49.601  1.00  0.00     0.056 C 
HETATM    3  C6  UNL     1      20.625   3.358  49.348  1.00  0.00     0.030 A 
HETATM    4  C7  UNL     1      20.041   4.077  48.285  1.00  0.00     0.133 A 
HETATM    5  N1  UNL     1      18.809   3.928  47.697  1.00  0.00    -0.253 NA
HETATM    6  C8  UNL     1      18.078   2.936  48.246  1.00  0.00     0.234 A 
HETATM    7  N2  UNL     1      18.535   2.192  49.257  1.00  0.00    -0.224 NA
HETATM    8  C9  UNL     1      19.740   2.399  49.772  1.00  0.00     0.137 A 
HETATM    9  N3  UNL     1      19.881   1.381  50.833  1.00  0.00    -0.369 N 
HETATM   10  C10 UNL     1      20.954   1.617  51.670  1.00  0.00     0.094 C 
HETATM   11  C11 UNL     1      20.628   2.875  52.307  1.00  0.00     0.033 C 
HETATM   12  C12 UNL     1      21.854   0.895  52.536  1.00  0.00     0.029 A 
HETATM   13  C13 UNL     1      21.408   0.924  53.939  1.00  0.00    -0.012 A 
HETATM   14  C14 UNL     1      21.206   0.021  54.869  1.00  0.00    -0.003 A 
HETATM   15  C15 UNL     1      21.475  -1.364  54.453  1.00  0.00    -0.004 A 
HETATM   16  C16 UNL     1      21.872  -1.438  53.192  1.00  0.00    -0.025 A 
HETATM   17  C17 UNL     1      22.121  -0.493  52.076  1.00  0.00     0.045 A 
HETATM   18  C18 UNL     1      23.130   1.821  52.394  1.00  0.00     0.171 C 
HETATM   19  O3  UNL     1      22.991   2.723  51.421  1.00  0.00    -0.340 OA
HETATM   20  H9  UNL     1      19.324   0.566  51.022  1.00  0.00     0.161 HD
ENDROOT
BRANCH  18  21
HETATM   21  C19 UNL     1      24.373   1.001  52.244  1.00  0.00     0.306 C 
BRANCH  21  22
HETATM   22  N4  UNL     1      25.426   1.338  53.222  1.00  0.00     0.095 N 
HETATM   23  C20 UNL     1      25.657   0.103  53.983  1.00  0.00     0.298 C 
HETATM   24  C21 UNL     1      26.855   0.284  54.865  1.00  0.00     0.198 C 
HETATM   25  O2  UNL     1      27.562   1.463  54.623  1.00  0.00    -0.388 OA
HETATM   26  C22 UNL     1      27.886   1.534  53.286  1.00  0.00     0.198 C 
HETATM   27  C23 UNL     1      26.624   1.567  52.458  1.00  0.00     0.298 C 
ENDBRANCH  21  22
ENDBRANCH  18  21
BRANCH   1  28
HETATM   28  C2  UNL     1      24.076   4.447  50.387  1.00  0.00     0.092 C 
HETATM   29  C1  UNL     1      25.175   4.004  49.839  1.00  0.00     0.053 C 
BRANCH  28  30
HETATM   30  O1  UNL     1      24.943   5.510  50.498  1.00  0.00    -0.354 OA
HETATM   31  C3  UNL     1      24.475   6.785  50.907  1.00  0.00     0.210 C 
ENDBRANCH  28  30
ENDBRANCH   1  28
TORSDOF 4
ENDMDL
MODEL 7
REMARK VINA RESULT:      -7.7      1.901      6.190
REMARK  4 active torsions:
REMARK  status: ('A' for Active; 'I' for Inactive)
REMARK    1  A    between atoms: C2_2  and  O1_3 
REMARK    2  A    between atoms: C2_2  and  C4_5 
REMARK    3  A    between atoms: C18_22  and  C19_23 
REMARK    4  A    between atoms: C19_23  and  N4_24 
ROOT
HETATM    1  C4  UNL     1      20.996   1.128  52.494  1.00  0.00     0.102 C 
HETATM    2  C5  UNL     1      19.749   1.497  52.257  1.00  0.00     0.056 C 
HETATM    3  C6  UNL     1      19.191   2.568  51.501  1.00  0.00     0.030 A 
HETATM    4  C7  UNL     1      17.786   2.486  51.588  1.00  0.00     0.133 A 
HETATM    5  N1  UNL     1      16.824   3.285  51.021  1.00  0.00    -0.253 NA
HETATM    6  C8  UNL     1      17.339   4.286  50.278  1.00  0.00     0.234 A 
HETATM    7  N2  UNL     1      18.656   4.456  50.130  1.00  0.00    -0.224 NA
HETATM    8  C9  UNL     1      19.524   3.639  50.711  1.00  0.00     0.137 A 
HETATM    9  N3  UNL     1      20.853   4.161  50.332  1.00  0.00    -0.369 N 
HETATM   10  C10 UNL     1      21.880   3.280  50.609  1.00  0.00     0.094 C 
HETATM   11  C11 UNL     1      21.596   2.140  49.764  1.00  0.00     0.033 C 
HETATM   12  C12 UNL     1      23.295   3.292  50.888  1.00  0.00     0.029 A 
HETATM   13  C13 UNL     1      24.096   3.047  49.677  1.00  0.00    -0.012 A 
HETATM   14  C14 UNL     1      25.107   3.647  49.094  1.00  0.00    -0.003 A 
HETATM   15  C15 UNL     1      25.584   4.858  49.780  1.00  0.00    -0.004 A 
HETATM   16  C16 UNL     1      24.886   5.121  50.874  1.00  0.00    -0.025 A 
HETATM   17  C17 UNL     1      23.740   4.518  51.600  1.00  0.00     0.045 A 
HETATM   18  C18 UNL     1      23.375   2.009  51.812  1.00  0.00     0.171 C 
HETATM   19  O3  UNL     1      22.167   1.562  52.158  1.00  0.00    -0.340 OA
HETATM   20  H9  UNL     1      21.104   5.041  49.916  1.00  0.00     0.161 HD
ENDROOT
BRANCH  18  21
HETATM   21  C19 UNL     1      24.257   2.257  52.997  1.00  0.00     0.306 C 
BRANCH  21  22
HETATM   22  N4  UNL     1      24.955   1.049  53.478  1.00  0.00     0.095 N 
HETATM   23  C20 UNL     1      25.466   0.390  52.267  1.00  0.00     0.298 C 
HETATM   24  C21 UNL     1      26.367  -0.739  52.664  1.00  0.00     0.198 C 
HETATM   25  O2  UNL     1      26.659  -0.778  54.028  1.00  0.00    -0.388 OA
HETATM   26  C22 UNL     1      27.154   0.446  54.423  1.00  0.00     0.198 C 
HETATM   27  C23 UNL     1      26.110   1.513  54.198  1.00  0.00     0.298 C 
ENDBRANCH  21  22
ENDBRANCH  18  21
BRANCH   1  28
HETATM   28  C2  UNL     1      21.122  -0.080  53.355  1.00  0.00     0.092 C 
HETATM   29  C1  UNL     1      21.623  -0.009  54.559  1.00  0.00     0.053 C 
BRANCH  28  30
HETATM   30  O1  UNL     1      21.065  -1.379  53.806  1.00  0.00    -0.354 OA
HETATM   31  C3  UNL     1      21.936  -1.825  54.833  1.00  0.00     0.210 C 
ENDBRANCH  28  30
ENDBRANCH   1  28
TORSDOF 4
ENDMDL
MODEL 8
REMARK VINA RESULT:      -7.7      2.198      5.474
REMARK  4 active torsions:
REMARK  status: ('A' for Active; 'I' for Inactive)
REMARK    1  A    between atoms: C2_2  and  O1_3 
REMARK    2  A    between atoms: C2_2  and  C4_5 
REMARK    3  A    between atoms: C18_22  and  C19_23 
REMARK    4  A    between atoms: C19_23  and  N4_24 
ROOT
HETATM    1  C4  UNL     1      22.553   3.612  49.776  1.00  0.00     0.102 C 
HETATM    2  C5  UNL     1      22.956   4.687  49.120  1.00  0.00     0.056 C 
HETATM    3  C6  UNL     1      24.194   5.390  49.095  1.00  0.00     0.030 A 
HETATM    4  C7  UNL     1      24.069   6.478  48.206  1.00  0.00     0.133 A 
HETATM    5  N1  UNL     1      24.992   7.427  47.845  1.00  0.00    -0.253 NA
HETATM    6  C8  UNL     1      26.185   7.262  48.453  1.00  0.00     0.234 A 
HETATM    7  N2  UNL     1      26.412   6.265  49.312  1.00  0.00    -0.224 NA
HETATM    8  C9  UNL     1      25.466   5.384  49.610  1.00  0.00     0.137 A 
HETATM    9  N3  UNL     1      26.087   4.473  50.592  1.00  0.00    -0.369 N 
HETATM   10  C10 UNL     1      25.350   3.325  50.808  1.00  0.00     0.094 C 
HETATM   11  C11 UNL     1      25.358   2.661  49.522  1.00  0.00     0.033 C 
HETATM   12  C12 UNL     1      25.140   2.328  51.828  1.00  0.00     0.029 A 
HETATM   13  C13 UNL     1      25.978   1.136  51.613  1.00  0.00    -0.012 A 
HETATM   14  C14 UNL     1      26.807   0.438  52.351  1.00  0.00    -0.003 A 
HETATM   15  C15 UNL     1      26.970   0.929  53.729  1.00  0.00    -0.004 A 
HETATM   16  C16 UNL     1      26.238   2.006  53.964  1.00  0.00    -0.025 A 
HETATM   17  C17 UNL     1      25.290   2.861  53.207  1.00  0.00     0.045 A 
HETATM   18  C18 UNL     1      23.637   1.952  51.500  1.00  0.00     0.171 C 
HETATM   19  O3  UNL     1      23.087   2.795  50.624  1.00  0.00    -0.340 OA
HETATM   20  H9  UNL     1      26.944   4.571  51.110  1.00  0.00     0.161 HD
ENDROOT
BRANCH  18  21
HETATM   21  C19 UNL     1      22.831   1.821  52.755  1.00  0.00     0.306 C 
BRANCH  21  22
HETATM   22  N4  UNL     1      22.118   0.534  52.867  1.00  0.00     0.095 N 
HETATM   23  C20 UNL     1      22.732  -0.150  54.014  1.00  0.00     0.298 C 
HETATM   24  C21 UNL     1      21.938  -1.379  54.338  1.00  0.00     0.198 C 
HETATM   25  O2  UNL     1      20.737  -1.478  53.634  1.00  0.00    -0.388 OA
HETATM   26  C22 UNL     1      20.006  -0.324  53.815  1.00  0.00     0.198 C 
HETATM   27  C23 UNL     1      20.773   0.855  53.267  1.00  0.00     0.298 C 
ENDBRANCH  21  22
ENDBRANCH  18  21
BRANCH   1  28
HETATM   28  C2  UNL     1      21.147   3.215  49.494  1.00  0.00     0.092 C 
HETATM   29  C1  UNL     1      20.178   3.514  50.316  1.00  0.00     0.053 C 
BRANCH  28  30
HETATM   30  O1  UNL     1      20.032   2.685  48.886  1.00  0.00    -0.354 OA
HETATM   31  C3  UNL     1      19.251   1.699  49.542  1.00  0.00     0.210 C 
ENDBRANCH  28  30
ENDBRANCH   1  28
TORSDOF 4
ENDMDL
MODEL 9
REMARK VINA RESULT:      -7.6      2.260      5.940
REMARK  4 active torsions:
REMARK  status: ('A' for Active; 'I' for Inactive)
REMARK    1  A    between atoms: C2_2  and  O1_3 
REMARK    2  A    between atoms: C2_2  and  C4_5 
REMARK    3  A    between atoms: C18_22  and  C19_23 
REMARK    4  A    between atoms: C19_23  and  N4_24 
ROOT
HETATM    1  C4  UNL     1      22.828   0.641  52.724  1.00  0.00     0.102 C 
HETATM    2  C5  UNL     1      21.800  -0.087  53.125  1.00  0.00     0.056 C 
HETATM    3  C6  UNL     1      20.423  -0.090  52.760  1.00  0.00     0.030 A 
HETATM    4  C7  UNL     1      19.768  -1.089  53.510  1.00  0.00     0.133 A 
HETATM    5  N1  UNL     1      18.450  -1.472  53.497  1.00  0.00    -0.253 NA
HETATM    6  C8  UNL     1      17.702  -0.765  52.625  1.00  0.00     0.234 A 
HETATM    7  N2  UNL     1      18.222   0.203  51.866  1.00  0.00    -0.224 NA
HETATM    8  C9  UNL     1      19.509   0.516  51.935  1.00  0.00     0.137 A 
HETATM    9  N3  UNL     1      19.685   1.626  50.978  1.00  0.00    -0.369 N 
HETATM   10  C10 UNL     1      21.011   1.899  50.703  1.00  0.00     0.094 C 
HETATM   11  C11 UNL     1      21.490   0.689  50.069  1.00  0.00     0.033 C 
HETATM   12  C12 UNL     1      21.842   2.994  50.267  1.00  0.00     0.029 A 
HETATM   13  C13 UNL     1      22.079   2.960  48.814  1.00  0.00    -0.012 A 
HETATM   14  C14 UNL     1      21.961   3.823  47.832  1.00  0.00    -0.003 A 
HETATM   15  C15 UNL     1      21.478   5.153  48.236  1.00  0.00    -0.004 A 
HETATM   16  C16 UNL     1      21.245   5.227  49.537  1.00  0.00    -0.025 A 
HETATM   17  C17 UNL     1      21.339   4.321  50.708  1.00  0.00     0.045 A 
HETATM   18  C18 UNL     1      23.185   2.595  51.004  1.00  0.00     0.171 C 
HETATM   19  O3  UNL     1      23.003   1.602  51.877  1.00  0.00    -0.340 OA
HETATM   20  H9  UNL     1      18.996   2.193  50.515  1.00  0.00     0.161 HD
ENDROOT
BRANCH  18  21
HETATM   21  C19 UNL     1      23.832   3.794  51.625  1.00  0.00     0.306 C 
BRANCH  21  22
HETATM   22  N4  UNL     1      25.121   4.157  51.004  1.00  0.00     0.095 N 
HETATM   23  C20 UNL     1      25.493   2.999  50.179  1.00  0.00     0.298 C 
HETATM   24  C21 UNL     1      26.687   3.351  49.345  1.00  0.00     0.198 C 
HETATM   25  O2  UNL     1      27.032   4.703  49.394  1.00  0.00    -0.388 OA
HETATM   26  C22 UNL     1      25.931   5.466  49.074  1.00  0.00     0.198 C 
HETATM   27  C23 UNL     1      24.835   5.227  50.084  1.00  0.00     0.298 C 
ENDBRANCH  21  22
ENDBRANCH  18  21
BRANCH   1  28
HETATM   28  C2  UNL     1      24.115   0.296  53.385  1.00  0.00     0.092 C 
HETATM   29  C1  UNL     1      25.242   0.299  52.725  1.00  0.00     0.053 C 
BRANCH  28  30
HETATM   30  O1  UNL     1      25.046  -0.068  54.332  1.00  0.00    -0.354 OA
HETATM   31  C3  UNL     1      26.388   0.384  54.237  1.00  0.00     0.210 C 
ENDBRANCH  28  30
ENDBRANCH   1  28
TORSDOF 4
ENDMDL
