MODEL 1
REMARK VINA RESULT:      -7.6      0.000      0.000
REMARK  4 active torsions:
REMARK  status: ('A' for Active; 'I' for Inactive)
REMARK    1  A    between atoms: C4_4  and  N1_5 
REMARK    2  A    between atoms: N1_5  and  C5_6 
REMARK    3  A    between atoms: N2_11  and  C10_12 
REMARK    4  A    between atoms: C13_16  and  C14_17 
ROOT
HETATM    1  C1  UNL     1      22.597   1.531  50.352  1.00  0.00     0.069 C 
HETATM    2  C2  UNL     1      21.772   0.841  51.371  1.00  0.00     0.028 A 
HETATM    3  C3  UNL     1      20.518   0.429  51.163  1.00  0.00     0.027 A 
HETATM    4  C4  UNL     1      19.658  -0.262  52.145  1.00  0.00     0.126 A 
HETATM    5  C8  UNL     1      20.423  -0.422  53.408  1.00  0.00     0.020 A 
HETATM    6  C9  UNL     1      21.657  -0.050  53.707  1.00  0.00     0.113 A 
HETATM    7  N2  UNL     1      22.348   0.602  52.649  1.00  0.00    -0.159 N 
ENDROOT
BRANCH   7   8
HETATM    8  C10 UNL     1      23.680   1.028  52.902  1.00  0.00     0.733 A 
HETATM    9  N3  UNL     1      23.947   2.311  53.141  1.00  0.00    -0.074 NA
HETATM   10  C11 UNL     1      25.175   2.784  53.387  1.00  0.00     0.139 A 
HETATM   11  C12 UNL     1      26.186   1.846  53.382  1.00  0.00     0.053 A 
HETATM   12  C13 UNL     1      25.954   0.509  53.141  1.00  0.00     0.089 A 
HETATM   13  N5  UNL     1      24.688   0.135  52.904  1.00  0.00    -0.062 NA
BRANCH  12  14
HETATM   14  C14 UNL     1      26.991  -0.513  53.127  1.00  0.00     0.011 A 
HETATM   15  C15 UNL     1      28.247  -0.163  53.562  1.00  0.00     0.017 A 
HETATM   16  C16 UNL     1      29.243  -1.146  53.548  1.00  0.00     0.020 A 
HETATM   17  C17 UNL     1      29.021  -2.443  53.120  1.00  0.00     0.116 A 
HETATM   18  N4  UNL     1      27.776  -2.705  52.713  1.00  0.00    -0.272 NA
HETATM   19  C18 UNL     1      26.794  -1.806  52.706  1.00  0.00     0.130 A 
ENDBRANCH  12  14
ENDBRANCH   7   8
BRANCH   4  20
HETATM   20  N1  UNL     1      18.361   0.271  52.318  1.00  0.00    -0.407 N 
HETATM   21  H6  UNL     1      18.256   1.275  52.183  1.00  0.00     0.154 HD
BRANCH  20  22
HETATM   22  C5  UNL     1      17.252  -0.497  51.885  1.00  0.00     0.069 C 
HETATM   23  C6  UNL     1      15.992   0.363  52.083  1.00  0.00     0.031 C 
HETATM   24  C7  UNL     1      17.056  -1.653  52.879  1.00  0.00     0.031 C 
ENDBRANCH  20  22
ENDBRANCH   4  20
TORSDOF 4
ENDMDL
MODEL 2
REMARK VINA RESULT:      -7.6      4.329      7.954
REMARK  4 active torsions:
REMARK  status: ('A' for Active; 'I' for Inactive)
REMARK    1  A    between atoms: C4_4  and  N1_5 
REMARK    2  A    between atoms: N1_5  and  C5_6 
REMARK    3  A    between atoms: N2_11  and  C10_12 
REMARK    4  A    between atoms: C13_16  and  C14_17 
ROOT
HETATM    1  C1  UNL     1      24.546   3.202  53.469  1.00  0.00     0.069 C 
HETATM    2  C2  UNL     1      25.303   2.005  53.033  1.00  0.00     0.028 A 
HETATM    3  C3  UNL     1      25.732   1.049  53.863  1.00  0.00     0.027 A 
HETATM    4  C4  UNL     1      26.487  -0.159  53.477  1.00  0.00     0.126 A 
HETATM    5  C8  UNL     1      26.692  -0.135  52.007  1.00  0.00     0.020 A 
HETATM    6  C9  UNL     1      26.309   0.760  51.110  1.00  0.00     0.113 A 
HETATM    7  N2  UNL     1      25.592   1.863  51.648  1.00  0.00    -0.159 N 
ENDROOT
BRANCH   7   8
HETATM    8  C10 UNL     1      25.149   2.862  50.739  1.00  0.00     0.733 A 
HETATM    9  N3  UNL     1      23.873   2.919  50.363  1.00  0.00    -0.074 NA
HETATM   10  C11 UNL     1      23.387   3.832  49.513  1.00  0.00     0.139 A 
HETATM   11  C12 UNL     1      24.302   4.741  49.028  1.00  0.00     0.053 A 
HETATM   12  C13 UNL     1      25.631   4.719  49.390  1.00  0.00     0.089 A 
HETATM   13  N5  UNL     1      26.020   3.764  50.249  1.00  0.00    -0.062 NA
BRANCH  12  14
HETATM   14  C14 UNL     1      26.630   5.659  48.903  1.00  0.00     0.011 A 
HETATM   15  C15 UNL     1      27.851   5.161  48.516  1.00  0.00     0.017 A 
HETATM   16  C16 UNL     1      28.810   6.066  48.047  1.00  0.00     0.020 A 
HETATM   17  C17 UNL     1      28.586   7.427  47.957  1.00  0.00     0.116 A 
HETATM   18  N4  UNL     1      27.376   7.834  48.351  1.00  0.00    -0.272 NA
HETATM   19  C18 UNL     1      26.430   7.015  48.805  1.00  0.00     0.130 A 
ENDBRANCH  12  14
ENDBRANCH   7   8
BRANCH   4  20
HETATM   20  N1  UNL     1      27.659  -0.423  54.220  1.00  0.00    -0.407 N 
HETATM   21  H6  UNL     1      27.700  -1.313  54.713  1.00  0.00     0.154 HD
BRANCH  20  22
HETATM   22  C5  UNL     1      28.902   0.015  53.700  1.00  0.00     0.069 C 
HETATM   23  C6  UNL     1      29.928  -1.101  53.961  1.00  0.00     0.031 C 
HETATM   24  C7  UNL     1      29.403   1.174  54.577  1.00  0.00     0.031 C 
ENDBRANCH  20  22
ENDBRANCH   4  20
TORSDOF 4
ENDMDL
MODEL 3
REMARK VINA RESULT:      -7.6      1.364      7.844
REMARK  4 active torsions:
REMARK  status: ('A' for Active; 'I' for Inactive)
REMARK    1  A    between atoms: C4_4  and  N1_5 
REMARK    2  A    between atoms: N1_5  and  C5_6 
REMARK    3  A    between atoms: N2_11  and  C10_12 
REMARK    4  A    between atoms: C13_16  and  C14_17 
ROOT
HETATM    1  C1  UNL     1      24.769   2.972  52.577  1.00  0.00     0.069 C 
HETATM    2  C2  UNL     1      25.022   1.689  53.271  1.00  0.00     0.028 A 
HETATM    3  C3  UNL     1      26.033   1.486  54.122  1.00  0.00     0.027 A 
HETATM    4  C4  UNL     1      26.324   0.227  54.837  1.00  0.00     0.126 A 
HETATM    5  C8  UNL     1      25.304  -0.780  54.450  1.00  0.00     0.020 A 
HETATM    6  C9  UNL     1      24.276  -0.674  53.623  1.00  0.00     0.113 A 
HETATM    7  N2  UNL     1      24.137   0.605  53.018  1.00  0.00    -0.159 N 
ENDROOT
BRANCH   7   8
HETATM    8  C10 UNL     1      23.052   0.788  52.118  1.00  0.00     0.733 A 
HETATM    9  N3  UNL     1      23.237   1.402  50.950  1.00  0.00    -0.074 NA
HETATM   10  C11 UNL     1      22.264   1.609  50.055  1.00  0.00     0.139 A 
HETATM   11  C12 UNL     1      21.018   1.141  50.412  1.00  0.00     0.053 A 
HETATM   12  C13 UNL     1      20.781   0.500  51.609  1.00  0.00     0.089 A 
HETATM   13  N5  UNL     1      21.824   0.342  52.439  1.00  0.00    -0.062 NA
BRANCH  12  14
HETATM   14  C14 UNL     1      19.483  -0.009  52.024  1.00  0.00     0.011 A 
HETATM   15  C15 UNL     1      18.433   0.109  51.144  1.00  0.00     0.017 A 
HETATM   16  C16 UNL     1      17.185  -0.381  51.545  1.00  0.00     0.020 A 
HETATM   17  C17 UNL     1      16.962  -0.974  52.774  1.00  0.00     0.116 A 
HETATM   18  N4  UNL     1      18.031  -1.051  53.572  1.00  0.00    -0.272 NA
HETATM   19  C18 UNL     1      19.238  -0.600  53.240  1.00  0.00     0.130 A 
ENDBRANCH  12  14
ENDBRANCH   7   8
BRANCH   4  20
HETATM   20  N1  UNL     1      27.656  -0.238  54.756  1.00  0.00    -0.407 N 
HETATM   21  H6  UNL     1      27.915  -0.999  55.381  1.00  0.00     0.154 HD
BRANCH  20  22
HETATM   22  C5  UNL     1      28.279  -0.289  53.484  1.00  0.00     0.069 C 
HETATM   23  C6  UNL     1      28.546  -1.769  53.162  1.00  0.00     0.031 C 
HETATM   24  C7  UNL     1      29.688   0.308  53.620  1.00  0.00     0.031 C 
ENDBRANCH  20  22
ENDBRANCH   4  20
TORSDOF 4
ENDMDL
MODEL 4
REMARK VINA RESULT:      -7.5      3.840      6.718
REMARK  4 active torsions:
REMARK  status: ('A' for Active; 'I' for Inactive)
REMARK    1  A    between atoms: C4_4  and  N1_5 
REMARK    2  A    between atoms: N1_5  and  C5_6 
REMARK    3  A    between atoms: N2_11  and  C10_12 
REMARK    4  A    between atoms: C13_16  and  C14_17 
ROOT
HETATM    1  C1  UNL     1      26.435   3.243  49.623  1.00  0.00     0.069 C 
HETATM    2  C2  UNL     1      25.601   4.333  50.181  1.00  0.00     0.028 A 
HETATM    3  C3  UNL     1      25.620   5.592  49.733  1.00  0.00     0.027 A 
HETATM    4  C4  UNL     1      24.808   6.710  50.255  1.00  0.00     0.126 A 
HETATM    5  C8  UNL     1      23.967   6.200  51.366  1.00  0.00     0.020 A 
HETATM    6  C9  UNL     1      23.880   4.982  51.878  1.00  0.00     0.113 A 
HETATM    7  N2  UNL     1      24.727   4.023  51.259  1.00  0.00    -0.159 N 
ENDROOT
BRANCH   7   8
HETATM    8  C10 UNL     1      24.684   2.692  51.758  1.00  0.00     0.733 A 
HETATM    9  N3  UNL     1      23.523   2.049  51.874  1.00  0.00    -0.074 NA
HETATM   10  C11 UNL     1      23.408   0.798  52.335  1.00  0.00     0.139 A 
HETATM   11  C12 UNL     1      24.588   0.186  52.697  1.00  0.00     0.053 A 
HETATM   12  C13 UNL     1      25.811   0.813  52.594  1.00  0.00     0.089 A 
HETATM   13  N5  UNL     1      25.821   2.068  52.120  1.00  0.00    -0.062 NA
BRANCH  12  14
HETATM   14  C14 UNL     1      27.079   0.203  52.965  1.00  0.00     0.011 A 
HETATM   15  C15 UNL     1      28.121   1.035  53.300  1.00  0.00     0.017 A 
HETATM   16  C16 UNL     1      29.340   0.447  53.656  1.00  0.00     0.020 A 
HETATM   17  C17 UNL     1      29.542  -0.920  53.686  1.00  0.00     0.116 A 
HETATM   18  N4  UNL     1      28.482  -1.661  53.347  1.00  0.00    -0.272 NA
HETATM   19  C18 UNL     1      27.303  -1.152  53.000  1.00  0.00     0.130 A 
ENDBRANCH  12  14
ENDBRANCH   7   8
BRANCH   4  20
HETATM   20  N1  UNL     1      25.511   7.897  50.560  1.00  0.00    -0.407 N 
HETATM   21  H6  UNL     1      25.879   7.983  51.506  1.00  0.00     0.154 HD
BRANCH  20  22
HETATM   22  C5  UNL     1      26.333   8.472  49.559  1.00  0.00     0.069 C 
HETATM   23  C6  UNL     1      27.419   9.295  50.273  1.00  0.00     0.031 C 
HETATM   24  C7  UNL     1      25.507   9.535  48.818  1.00  0.00     0.031 C 
ENDBRANCH  20  22
ENDBRANCH   4  20
TORSDOF 4
ENDMDL
MODEL 5
REMARK VINA RESULT:      -7.5      2.206      2.982
REMARK  4 active torsions:
REMARK  status: ('A' for Active; 'I' for Inactive)
REMARK    1  A    between atoms: C4_4  and  N1_5 
REMARK    2  A    between atoms: N1_5  and  C5_6 
REMARK    3  A    between atoms: N2_11  and  C10_12 
REMARK    4  A    between atoms: C13_16  and  C14_17 
ROOT
HETATM    1  C1  UNL     1      22.651   4.426  52.401  1.00  0.00     0.069 C 
HETATM    2  C2  UNL     1      21.936   3.326  51.715  1.00  0.00     0.028 A 
HETATM    3  C3  UNL     1      20.620   3.114  51.813  1.00  0.00     0.027 A 
HETATM    4  C4  UNL     1      19.864   2.034  51.148  1.00  0.00     0.126 A 
HETATM    5  C8  UNL     1      20.813   1.219  50.350  1.00  0.00     0.020 A 
HETATM    6  C9  UNL     1      22.121   1.348  50.193  1.00  0.00     0.113 A 
HETATM    7  N2  UNL     1      22.693   2.439  50.901  1.00  0.00    -0.159 N 
ENDROOT
BRANCH   7   8
HETATM    8  C10 UNL     1      24.096   2.637  50.776  1.00  0.00     0.733 A 
HETATM    9  N3  UNL     1      24.589   3.390  49.793  1.00  0.00    -0.074 NA
HETATM   10  C11 UNL     1      25.895   3.620  49.615  1.00  0.00     0.139 A 
HETATM   11  C12 UNL     1      26.735   3.020  50.528  1.00  0.00     0.053 A 
HETATM   12  C13 UNL     1      26.269   2.234  51.559  1.00  0.00     0.089 A 
HETATM   13  N5  UNL     1      24.941   2.064  51.653  1.00  0.00    -0.062 NA
BRANCH  12  14
HETATM   14  C14 UNL     1      27.120   1.582  52.544  1.00  0.00     0.011 A 
HETATM   15  C15 UNL     1      27.127   0.208  52.583  1.00  0.00     0.017 A 
HETATM   16  C16 UNL     1      27.946  -0.416  53.529  1.00  0.00     0.020 A 
HETATM   17  C17 UNL     1      28.742   0.280  54.420  1.00  0.00     0.116 A 
HETATM   18  N4  UNL     1      28.681   1.612  54.320  1.00  0.00    -0.272 NA
HETATM   19  C18 UNL     1      27.918   2.254  53.438  1.00  0.00     0.130 A 
ENDBRANCH  12  14
ENDBRANCH   7   8
BRANCH   4  20
HETATM   20  N1  UNL     1      19.005   1.277  51.976  1.00  0.00    -0.407 N 
HETATM   21  H6  UNL     1      18.008   1.470  51.902  1.00  0.00     0.154 HD
BRANCH  20  22
HETATM   22  C5  UNL     1      19.321  -0.083  52.214  1.00  0.00     0.069 C 
HETATM   23  C6  UNL     1      17.997  -0.827  52.461  1.00  0.00     0.031 C 
HETATM   24  C7  UNL     1      20.041  -0.175  53.569  1.00  0.00     0.031 C 
ENDBRANCH  20  22
ENDBRANCH   4  20
TORSDOF 4
ENDMDL
MODEL 6
REMARK VINA RESULT:      -7.4      2.792      5.453
REMARK  4 active torsions:
REMARK  status: ('A' for Active; 'I' for Inactive)
REMARK    1  A    between atoms: C4_4  and  N1_5 
REMARK    2  A    between atoms: N1_5  and  C5_6 
REMARK    3  A    between atoms: N2_11  and  C10_12 
REMARK    4  A    between atoms: C13_16  and  C14_17 
ROOT
HETATM    1  C1  UNL     1      22.652   1.743  49.909  1.00  0.00     0.069 C 
HETATM    2  C2  UNL     1      22.967   3.019  50.592  1.00  0.00     0.028 A 
HETATM    3  C3  UNL     1      22.816   4.223  50.031  1.00  0.00     0.027 A 
HETATM    4  C4  UNL     1      23.115   5.520  50.670  1.00  0.00     0.126 A 
HETATM    5  C8  UNL     1      23.614   5.263  52.043  1.00  0.00     0.020 A 
HETATM    6  C9  UNL     1      23.797   4.118  52.681  1.00  0.00     0.113 A 
HETATM    7  N2  UNL     1      23.460   2.963  51.924  1.00  0.00    -0.159 N 
ENDROOT
BRANCH   7   8
HETATM    8  C10 UNL     1      23.632   1.697  52.549  1.00  0.00     0.733 A 
HETATM    9  N3  UNL     1      22.591   1.055  53.077  1.00  0.00    -0.074 NA
HETATM   10  C11 UNL     1      22.678  -0.137  53.679  1.00  0.00     0.139 A 
HETATM   11  C12 UNL     1      23.941  -0.687  53.728  1.00  0.00     0.053 A 
HETATM   12  C13 UNL     1      25.045  -0.059  53.195  1.00  0.00     0.089 A 
HETATM   13  N5  UNL     1      24.853   1.134  52.612  1.00  0.00    -0.062 NA
BRANCH  12  14
HETATM   14  C14 UNL     1      26.394  -0.605  53.226  1.00  0.00     0.011 A 
HETATM   15  C15 UNL     1      27.414   0.221  53.635  1.00  0.00     0.017 A 
HETATM   16  C16 UNL     1      28.710  -0.305  53.664  1.00  0.00     0.020 A 
HETATM   17  C17 UNL     1      29.008  -1.607  53.303  1.00  0.00     0.116 A 
HETATM   18  N4  UNL     1      27.964  -2.346  52.918  1.00  0.00    -0.272 NA
HETATM   19  C18 UNL     1      26.713  -1.893  52.872  1.00  0.00     0.130 A 
ENDBRANCH  12  14
ENDBRANCH   7   8
BRANCH   4  20
HETATM   20  N1  UNL     1      23.916   6.411  49.920  1.00  0.00    -0.407 N 
HETATM   21  H6  UNL     1      23.512   7.320  49.703  1.00  0.00     0.154 HD
BRANCH  20  22
HETATM   22  C5  UNL     1      25.311   6.435  50.166  1.00  0.00     0.069 C 
HETATM   23  C6  UNL     1      25.762   7.905  50.111  1.00  0.00     0.031 C 
HETATM   24  C7  UNL     1      26.018   5.799  48.958  1.00  0.00     0.031 C 
ENDBRANCH  20  22
ENDBRANCH   4  20
TORSDOF 4
ENDMDL
MODEL 7
REMARK VINA RESULT:      -7.3      1.765      7.944
REMARK  4 active torsions:
REMARK  status: ('A' for Active; 'I' for Inactive)
REMARK    1  A    between atoms: C4_4  and  N1_5 
REMARK    2  A    between atoms: N1_5  and  C5_6 
REMARK    3  A    between atoms: N2_11  and  C10_12 
REMARK    4  A    between atoms: C13_16  and  C14_17 
ROOT
HETATM    1  C1  UNL     1      22.969  -0.256  53.947  1.00  0.00     0.069 C 
HETATM    2  C2  UNL     1      24.273  -0.118  53.258  1.00  0.00     0.028 A 
HETATM    3  C3  UNL     1      25.249  -1.029  53.317  1.00  0.00     0.027 A 
HETATM    4  C4  UNL     1      26.562  -0.937  52.648  1.00  0.00     0.126 A 
HETATM    5  C8  UNL     1      26.618   0.342  51.898  1.00  0.00     0.020 A 
HETATM    6  C9  UNL     1      25.712   1.300  51.781  1.00  0.00     0.113 A 
HETATM    7  N2  UNL     1      24.502   1.054  52.487  1.00  0.00    -0.159 N 
ENDROOT
BRANCH   7   8
HETATM    8  C10 UNL     1      23.484   2.043  52.404  1.00  0.00     0.733 A 
HETATM    9  N3  UNL     1      23.775   3.331  52.573  1.00  0.00    -0.074 NA
HETATM   10  C11 UNL     1      22.869   4.315  52.509  1.00  0.00     0.139 A 
HETATM   11  C12 UNL     1      21.576   3.916  52.251  1.00  0.00     0.053 A 
HETATM   12  C13 UNL     1      21.230   2.594  52.069  1.00  0.00     0.089 A 
HETATM   13  N5  UNL     1      22.211   1.683  52.153  1.00  0.00    -0.062 NA
BRANCH  12  14
HETATM   14  C14 UNL     1      19.877   2.131  51.795  1.00  0.00     0.011 A 
HETATM   15  C15 UNL     1      19.672   0.777  51.672  1.00  0.00     0.017 A 
HETATM   16  C16 UNL     1      18.371   0.333  51.409  1.00  0.00     0.020 A 
HETATM   17  C17 UNL     1      17.293   1.188  51.267  1.00  0.00     0.116 A 
HETATM   18  N4  UNL     1      17.574   2.488  51.399  1.00  0.00    -0.272 NA
HETATM   19  C18 UNL     1      18.792   2.961  51.649  1.00  0.00     0.130 A 
ENDBRANCH  12  14
ENDBRANCH   7   8
BRANCH   4  20
HETATM   20  N1  UNL     1      27.691  -1.180  53.462  1.00  0.00    -0.407 N 
HETATM   21  H6  UNL     1      28.058  -2.130  53.466  1.00  0.00     0.154 HD
BRANCH  20  22
HETATM   22  C5  UNL     1      28.681  -0.171  53.565  1.00  0.00     0.069 C 
HETATM   23  C6  UNL     1      30.050  -0.871  53.600  1.00  0.00     0.031 C 
HETATM   24  C7  UNL     1      28.568   0.464  54.960  1.00  0.00     0.031 C 
ENDBRANCH  20  22
ENDBRANCH   4  20
TORSDOF 4
ENDMDL
MODEL 8
REMARK VINA RESULT:      -7.3      3.189      7.961
REMARK  4 active torsions:
REMARK  status: ('A' for Active; 'I' for Inactive)
REMARK    1  A    between atoms: C4_4  and  N1_5 
REMARK    2  A    between atoms: N1_5  and  C5_6 
REMARK    3  A    between atoms: N2_11  and  C10_12 
REMARK    4  A    between atoms: C13_16  and  C14_17 
ROOT
HETATM    1  C1  UNL     1      22.967   0.509  53.367  1.00  0.00     0.069 C 
HETATM    2  C2  UNL     1      24.353   0.420  52.851  1.00  0.00     0.028 A 
HETATM    3  C3  UNL     1      25.163  -0.622  53.061  1.00  0.00     0.027 A 
HETATM    4  C4  UNL     1      26.548  -0.756  52.568  1.00  0.00     0.126 A 
HETATM    5  C8  UNL     1      26.893   0.465  51.799  1.00  0.00     0.020 A 
HETATM    6  C9  UNL     1      26.166   1.541  51.540  1.00  0.00     0.113 A 
HETATM    7  N2  UNL     1      24.854   1.509  52.087  1.00  0.00    -0.159 N 
ENDROOT
BRANCH   7   8
HETATM    8  C10 UNL     1      24.017   2.634  51.846  1.00  0.00     0.733 A 
HETATM    9  N3  UNL     1      23.856   3.570  52.780  1.00  0.00    -0.074 NA
HETATM   10  C11 UNL     1      23.086   4.653  52.623  1.00  0.00     0.139 A 
HETATM   11  C12 UNL     1      22.445   4.757  51.407  1.00  0.00     0.053 A 
HETATM   12  C13 UNL     1      22.584   3.813  50.413  1.00  0.00     0.089 A 
HETATM   13  N5  UNL     1      23.380   2.762  50.668  1.00  0.00    -0.062 NA
BRANCH  12  14
HETATM   14  C14 UNL     1      21.928   3.884  49.116  1.00  0.00     0.011 A 
HETATM   15  C15 UNL     1      22.488   3.190  48.070  1.00  0.00     0.017 A 
HETATM   16  C16 UNL     1      21.855   3.260  46.824  1.00  0.00     0.020 A 
HETATM   17  C17 UNL     1      20.702   3.989  46.600  1.00  0.00     0.116 A 
HETATM   18  N4  UNL     1      20.219   4.635  47.665  1.00  0.00    -0.272 NA
HETATM   19  C18 UNL     1      20.782   4.602  48.870  1.00  0.00     0.130 A 
ENDBRANCH  12  14
ENDBRANCH   7   8
BRANCH   4  20
HETATM   20  N1  UNL     1      27.515  -1.127  53.528  1.00  0.00    -0.407 N 
HETATM   21  H6  UNL     1      27.646  -2.125  53.686  1.00  0.00     0.154 HD
BRANCH  20  22
HETATM   22  C5  UNL     1      28.703  -0.360  53.624  1.00  0.00     0.069 C 
HETATM   23  C6  UNL     1      29.880  -1.344  53.718  1.00  0.00     0.031 C 
HETATM   24  C7  UNL     1      28.709   0.338  54.994  1.00  0.00     0.031 C 
ENDBRANCH  20  22
ENDBRANCH   4  20
TORSDOF 4
ENDMDL
MODEL 9
REMARK VINA RESULT:      -7.2      1.926      7.546
REMARK  4 active torsions:
REMARK  status: ('A' for Active; 'I' for Inactive)
REMARK    1  A    between atoms: C4_4  and  N1_5 
REMARK    2  A    between atoms: N1_5  and  C5_6 
REMARK    3  A    between atoms: N2_11  and  C10_12 
REMARK    4  A    between atoms: C13_16  and  C14_17 
ROOT
HETATM    1  C1  UNL     1      24.843   3.087  49.992  1.00  0.00     0.069 C 
HETATM    2  C2  UNL     1      25.476   2.737  51.285  1.00  0.00     0.028 A 
HETATM    3  C3  UNL     1      26.772   2.444  51.426  1.00  0.00     0.027 A 
HETATM    4  C4  UNL     1      27.447   2.091  52.691  1.00  0.00     0.126 A 
HETATM    5  C8  UNL     1      26.442   2.114  53.783  1.00  0.00     0.020 A 
HETATM    6  C9  UNL     1      25.148   2.389  53.741  1.00  0.00     0.113 A 
HETATM    7  N2  UNL     1      24.657   2.711  52.446  1.00  0.00    -0.159 N 
ENDROOT
BRANCH   7   8
HETATM    8  C10 UNL     1      23.273   3.018  52.329  1.00  0.00     0.733 A 
HETATM    9  N3  UNL     1      22.873   4.270  52.116  1.00  0.00    -0.074 NA
HETATM   10  C11 UNL     1      21.590   4.632  51.995  1.00  0.00     0.139 A 
HETATM   11  C12 UNL     1      20.671   3.611  52.104  1.00  0.00     0.053 A 
HETATM   12  C13 UNL     1      21.041   2.301  52.324  1.00  0.00     0.089 A 
HETATM   13  N5  UNL     1      22.352   2.041  52.431  1.00  0.00    -0.062 NA
BRANCH  12  14
HETATM   14  C14 UNL     1      20.103   1.194  52.446  1.00  0.00     0.011 A 
HETATM   15  C15 UNL     1      19.047   1.144  51.567  1.00  0.00     0.017 A 
HETATM   16  C16 UNL     1      18.147   0.079  51.685  1.00  0.00     0.020 A 
HETATM   17  C17 UNL     1      18.272  -0.916  52.637  1.00  0.00     0.116 A 
HETATM   18  N4  UNL     1      19.323  -0.797  53.453  1.00  0.00    -0.272 NA
HETATM   19  C18 UNL     1      20.207   0.195  53.383  1.00  0.00     0.130 A 
ENDBRANCH  12  14
ENDBRANCH   7   8
BRANCH   4  20
HETATM   20  N1  UNL     1      28.244   0.924  52.664  1.00  0.00    -0.407 N 
HETATM   21  H6  UNL     1      29.249   1.057  52.560  1.00  0.00     0.154 HD
BRANCH  20  22
HETATM   22  C5  UNL     1      27.882  -0.162  53.499  1.00  0.00     0.069 C 
HETATM   23  C6  UNL     1      29.164  -0.957  53.802  1.00  0.00     0.031 C 
HETATM   24  C7  UNL     1      27.041  -1.142  52.666  1.00  0.00     0.031 C 
ENDBRANCH  20  22
ENDBRANCH   4  20
TORSDOF 4
ENDMDL
