MODEL 1
REMARK VINA RESULT:      -8.7      0.000      0.000
REMARK  2 active torsions:
REMARK  status: ('A' for Active; 'I' for Inactive)
REMARK    1  A    between atoms: C5_6  and  N1_7 
REMARK    2  A    between atoms: N1_7  and  C6_8 
ROOT
HETATM    1  C6  UNL     1      24.740   3.128  51.848  1.00  0.00     0.318 A 
HETATM    2  N2  UNL     1      23.717   3.744  52.663  1.00  0.00    -0.237 NA
HETATM    3  C7  UNL     1      23.132   4.860  52.400  1.00  0.00     0.235 A 
HETATM    4  N3  UNL     1      23.461   5.597  51.240  1.00  0.00    -0.202 NA
HETATM    5  C8  UNL     1      24.375   5.148  50.414  1.00  0.00     0.253 A 
HETATM    6  O1  UNL     1      24.585   6.001  49.308  1.00  0.00    -0.277 OA
HETATM    7  C9  UNL     1      25.877   6.246  48.798  1.00  0.00     0.089 A 
HETATM    8  C10 UNL     1      26.296   7.352  48.216  1.00  0.00     0.038 A 
HETATM    9  C11 UNL     1      27.706   7.196  47.831  1.00  0.00     0.004 A 
HETATM   10  C12 UNL     1      28.157   5.991  48.176  1.00  0.00     0.014 A 
HETATM   11  C13 UNL     1      27.030   5.320  48.807  1.00  0.00    -0.004 A 
HETATM   12  C14 UNL     1      27.008   4.096  49.309  1.00  0.00     0.007 C 
HETATM   13  C15 UNL     1      26.040   3.194  49.981  1.00  0.00     0.159 C 
HETATM   14  N4  UNL     1      25.026   3.911  50.700  1.00  0.00    -0.302 N 
ENDROOT
BRANCH   1  15
HETATM   15  N1  UNL     1      25.862   2.834  52.694  1.00  0.00    -0.351 N 
HETATM   16  H4  UNL     1      26.367   3.563  53.212  1.00  0.00     0.163 HD
BRANCH  15  17
HETATM   17  C5  UNL     1      26.294   1.483  52.824  1.00  0.00     0.032 A 
HETATM   18  C4  UNL     1      25.404   0.429  52.689  1.00  0.00     0.029 A 
HETATM   19  C3  UNL     1      25.734  -0.907  52.799  1.00  0.00     0.004 A 
HETATM   20  C2  UNL     1      27.056  -1.202  53.064  1.00  0.00     0.019 A 
HETATM   21  C1  UNL     1      28.000  -0.203  53.211  1.00  0.00     0.013 A 
HETATM   22 BR1  UNL     1      29.823  -0.658  53.578  1.00  0.00    -0.051 Br
HETATM   23  C16 UNL     1      27.585   1.106  53.086  1.00  0.00     0.048 A 
ENDBRANCH  15  17
ENDBRANCH   1  15
TORSDOF 2
ENDMDL
MODEL 2
REMARK VINA RESULT:      -8.5      1.810      2.106
REMARK  2 active torsions:
REMARK  status: ('A' for Active; 'I' for Inactive)
REMARK    1  A    between atoms: C5_6  and  N1_7 
REMARK    2  A    between atoms: N1_7  and  C6_8 
ROOT
HETATM    1  C6  UNL     1      24.472   3.723  51.183  1.00  0.00     0.318 A 
HETATM    2  N2  UNL     1      23.477   4.542  51.838  1.00  0.00    -0.237 NA
HETATM    3  C7  UNL     1      23.167   5.744  51.498  1.00  0.00     0.235 A 
HETATM    4  N3  UNL     1      23.806   6.380  50.410  1.00  0.00    -0.202 NA
HETATM    5  C8  UNL     1      24.730   5.745  49.729  1.00  0.00     0.253 A 
HETATM    6  O1  UNL     1      25.267   6.519  48.676  1.00  0.00    -0.277 OA
HETATM    7  C9  UNL     1      26.644   6.498  48.372  1.00  0.00     0.089 A 
HETATM    8  C10 UNL     1      27.353   7.490  47.871  1.00  0.00     0.038 A 
HETATM    9  C11 UNL     1      28.748   7.057  47.705  1.00  0.00     0.004 A 
HETATM   10  C12 UNL     1      28.898   5.794  48.104  1.00  0.00     0.014 A 
HETATM   11  C13 UNL     1      27.580   5.367  48.549  1.00  0.00    -0.004 A 
HETATM   12  C14 UNL     1      27.245   4.181  49.030  1.00  0.00     0.007 C 
HETATM   13  C15 UNL     1      26.029   3.497  49.537  1.00  0.00     0.159 C 
HETATM   14  N4  UNL     1      25.077   4.412  50.100  1.00  0.00    -0.302 N 
ENDROOT
BRANCH   1  15
HETATM   15  N1  UNL     1      25.374   3.235  52.188  1.00  0.00    -0.351 N 
HETATM   16  H4  UNL     1      26.052   3.844  52.661  1.00  0.00     0.163 HD
BRANCH  15  17
HETATM   17  C5  UNL     1      25.330   1.857  52.546  1.00  0.00     0.032 A 
HETATM   18  C4  UNL     1      26.421   1.028  52.343  1.00  0.00     0.029 A 
HETATM   19  C3  UNL     1      26.466  -0.315  52.659  1.00  0.00     0.004 A 
HETATM   20  C2  UNL     1      25.329  -0.862  53.220  1.00  0.00     0.019 A 
HETATM   21  C1  UNL     1      24.203  -0.096  53.452  1.00  0.00     0.013 A 
HETATM   22 BR1  UNL     1      22.649  -0.895  54.232  1.00  0.00    -0.051 Br
HETATM   23  C16 UNL     1      24.242   1.238  53.106  1.00  0.00     0.048 A 
ENDBRANCH  15  17
ENDBRANCH   1  15
TORSDOF 2
ENDMDL
MODEL 3
REMARK VINA RESULT:      -8.2      1.294      1.803
REMARK  2 active torsions:
REMARK  status: ('A' for Active; 'I' for Inactive)
REMARK    1  A    between atoms: C5_6  and  N1_7 
REMARK    2  A    between atoms: N1_7  and  C6_8 
ROOT
HETATM    1  C6  UNL     1      25.493   2.416  51.640  1.00  0.00     0.318 A 
HETATM    2  N2  UNL     1      24.273   2.409  52.415  1.00  0.00    -0.237 NA
HETATM    3  C7  UNL     1      23.215   3.086  52.138  1.00  0.00     0.235 A 
HETATM    4  N3  UNL     1      23.166   3.925  51.001  1.00  0.00    -0.202 NA
HETATM    5  C8  UNL     1      24.208   4.022  50.212  1.00  0.00     0.253 A 
HETATM    6  O1  UNL     1      23.995   4.900  49.126  1.00  0.00    -0.277 OA
HETATM    7  C9  UNL     1      25.004   5.777  48.676  1.00  0.00     0.089 A 
HETATM    8  C10 UNL     1      24.827   6.961  48.124  1.00  0.00     0.038 A 
HETATM    9  C11 UNL     1      26.135   7.548  47.800  1.00  0.00     0.004 A 
HETATM   10  C12 UNL     1      27.121   6.723  48.152  1.00  0.00     0.014 A 
HETATM   11  C13 UNL     1      26.466   5.557  48.726  1.00  0.00    -0.004 A 
HETATM   12  C14 UNL     1      27.047   4.473  49.213  1.00  0.00     0.007 C 
HETATM   13  C15 UNL     1      26.644   3.186  49.832  1.00  0.00     0.159 C 
HETATM   14  N4  UNL     1      25.384   3.273  50.513  1.00  0.00    -0.302 N 
ENDROOT
BRANCH   1  15
HETATM   15  N1  UNL     1      26.582   2.700  52.531  1.00  0.00    -0.351 N 
HETATM   16  H4  UNL     1      26.774   3.646  52.882  1.00  0.00     0.163 HD
BRANCH  15  17
HETATM   17  C5  UNL     1      27.430   1.634  52.948  1.00  0.00     0.032 A 
HETATM   18  C4  UNL     1      28.595   1.880  53.658  1.00  0.00     0.029 A 
HETATM   19  C3  UNL     1      29.473   0.911  54.100  1.00  0.00     0.004 A 
HETATM   20  C2  UNL     1      29.154  -0.399  53.806  1.00  0.00     0.019 A 
HETATM   21  C1  UNL     1      28.009  -0.720  53.103  1.00  0.00     0.013 A 
HETATM   22 BR1  UNL     1      27.607  -2.551  52.717  1.00  0.00    -0.051 Br
HETATM   23  C16 UNL     1      27.186   0.309  52.697  1.00  0.00     0.048 A 
ENDBRANCH  15  17
ENDBRANCH   1  15
TORSDOF 2
ENDMDL
MODEL 4
REMARK VINA RESULT:      -8.2      3.449      7.260
REMARK  2 active torsions:
REMARK  status: ('A' for Active; 'I' for Inactive)
REMARK    1  A    between atoms: C5_6  and  N1_7 
REMARK    2  A    between atoms: N1_7  and  C6_8 
ROOT
HETATM    1  C6  UNL     1      25.656   2.541  51.174  1.00  0.00     0.318 A 
HETATM    2  N2  UNL     1      27.017   2.490  51.657  1.00  0.00    -0.237 NA
HETATM    3  C7  UNL     1      27.480   1.615  52.479  1.00  0.00     0.235 A 
HETATM    4  N3  UNL     1      26.652   0.592  52.993  1.00  0.00    -0.202 NA
HETATM    5  C8  UNL     1      25.392   0.524  52.634  1.00  0.00     0.253 A 
HETATM    6  O1  UNL     1      24.705  -0.554  53.236  1.00  0.00    -0.277 OA
HETATM    7  C9  UNL     1      23.380  -0.418  53.700  1.00  0.00     0.089 A 
HETATM    8  C10 UNL     1      22.834  -1.059  54.715  1.00  0.00     0.038 A 
HETATM    9  C11 UNL     1      21.436  -0.630  54.866  1.00  0.00     0.004 A 
HETATM   10  C12 UNL     1      21.120   0.276  53.942  1.00  0.00     0.014 A 
HETATM   11  C13 UNL     1      22.328   0.464  53.152  1.00  0.00    -0.004 A 
HETATM   12  C14 UNL     1      22.488   1.273  52.117  1.00  0.00     0.007 C 
HETATM   13  C15 UNL     1      23.561   1.648  51.163  1.00  0.00     0.159 C 
HETATM   14  N4  UNL     1      24.874   1.490  51.721  1.00  0.00    -0.302 N 
ENDROOT
BRANCH   1  15
HETATM   15  N1  UNL     1      25.156   3.868  51.399  1.00  0.00    -0.351 N 
HETATM   16  H4  UNL     1      24.861   4.195  52.327  1.00  0.00     0.163 HD
BRANCH  15  17
HETATM   17  C5  UNL     1      25.064   4.768  50.299  1.00  0.00     0.032 A 
HETATM   18  C4  UNL     1      23.843   5.062  49.713  1.00  0.00     0.029 A 
HETATM   19  C3  UNL     1      23.661   5.920  48.647  1.00  0.00     0.004 A 
HETATM   20  C2  UNL     1      24.791   6.523  48.133  1.00  0.00     0.019 A 
HETATM   21  C1  UNL     1      26.042   6.278  48.666  1.00  0.00     0.013 A 
HETATM   22 BR1  UNL     1      27.583   7.138  47.923  1.00  0.00    -0.051 Br
HETATM   23  C16 UNL     1      26.135   5.407  49.731  1.00  0.00     0.048 A 
ENDBRANCH  15  17
ENDBRANCH   1  15
TORSDOF 2
ENDMDL
MODEL 5
REMARK VINA RESULT:      -7.9      1.354      1.723
REMARK  2 active torsions:
REMARK  status: ('A' for Active; 'I' for Inactive)
REMARK    1  A    between atoms: C5_6  and  N1_7 
REMARK    2  A    between atoms: N1_7  and  C6_8 
ROOT
HETATM    1  C6  UNL     1      23.336   4.084  51.423  1.00  0.00     0.318 A 
HETATM    2  N2  UNL     1      22.315   5.007  51.864  1.00  0.00    -0.237 NA
HETATM    3  C7  UNL     1      22.075   6.155  51.334  1.00  0.00     0.235 A 
HETATM    4  N3  UNL     1      22.827   6.617  50.230  1.00  0.00    -0.202 NA
HETATM    5  C8  UNL     1      23.786   5.875  49.732  1.00  0.00     0.253 A 
HETATM    6  O1  UNL     1      24.438   6.480  48.635  1.00  0.00    -0.277 OA
HETATM    7  C9  UNL     1      25.835   6.389  48.464  1.00  0.00     0.089 A 
HETATM    8  C10 UNL     1      26.618   7.286  47.897  1.00  0.00     0.038 A 
HETATM    9  C11 UNL     1      28.007   6.806  47.921  1.00  0.00     0.004 A 
HETATM   10  C12 UNL     1      28.080   5.610  48.504  1.00  0.00     0.014 A 
HETATM   11  C13 UNL     1      26.715   5.277  48.881  1.00  0.00    -0.004 A 
HETATM   12  C14 UNL     1      26.300   4.177  49.490  1.00  0.00     0.007 C 
HETATM   13  C15 UNL     1      25.023   3.597  49.974  1.00  0.00     0.159 C 
HETATM   14  N4  UNL     1      24.055   4.601  50.314  1.00  0.00    -0.302 N 
ENDROOT
BRANCH   1  15
HETATM   15  N1  UNL     1      24.130   3.725  52.565  1.00  0.00    -0.351 N 
HETATM   16  H4  UNL     1      24.578   4.426  53.166  1.00  0.00     0.163 HD
BRANCH  15  17
HETATM   17  C5  UNL     1      24.305   2.347  52.879  1.00  0.00     0.032 A 
HETATM   18  C4  UNL     1      23.226   1.478  52.919  1.00  0.00     0.029 A 
HETATM   19  C3  UNL     1      23.303   0.132  53.214  1.00  0.00     0.004 A 
HETATM   20  C2  UNL     1      24.557  -0.375  53.488  1.00  0.00     0.019 A 
HETATM   21  C1  UNL     1      25.678   0.431  53.466  1.00  0.00     0.013 A 
HETATM   22 BR1  UNL     1      27.398  -0.314  53.853  1.00  0.00    -0.051 Br
HETATM   23  C16 UNL     1      25.513   1.766  53.163  1.00  0.00     0.048 A 
ENDBRANCH  15  17
ENDBRANCH   1  15
TORSDOF 2
ENDMDL
MODEL 6
REMARK VINA RESULT:      -7.9      4.157      6.226
REMARK  2 active torsions:
REMARK  status: ('A' for Active; 'I' for Inactive)
REMARK    1  A    between atoms: C5_6  and  N1_7 
REMARK    2  A    between atoms: N1_7  and  C6_8 
ROOT
HETATM    1  C6  UNL     1      23.388   1.509  51.941  1.00  0.00     0.318 A 
HETATM    2  N2  UNL     1      23.078   2.764  51.293  1.00  0.00    -0.237 NA
HETATM    3  C7  UNL     1      23.946   3.628  50.897  1.00  0.00     0.235 A 
HETATM    4  N3  UNL     1      25.330   3.401  51.075  1.00  0.00    -0.202 NA
HETATM    5  C8  UNL     1      25.746   2.299  51.651  1.00  0.00     0.253 A 
HETATM    6  O1  UNL     1      27.153   2.228  51.751  1.00  0.00    -0.277 OA
HETATM    7  C9  UNL     1      27.787   1.714  52.902  1.00  0.00     0.089 A 
HETATM    8  C10 UNL     1      28.962   2.075  53.379  1.00  0.00     0.038 A 
HETATM    9  C11 UNL     1      29.254   1.297  54.592  1.00  0.00     0.004 A 
HETATM   10  C12 UNL     1      28.257   0.455  54.862  1.00  0.00     0.014 A 
HETATM   11  C13 UNL     1      27.272   0.669  53.812  1.00  0.00    -0.004 A 
HETATM   12  C14 UNL     1      26.111   0.050  53.668  1.00  0.00     0.007 C 
HETATM   13  C15 UNL     1      24.960   0.065  52.733  1.00  0.00     0.159 C 
HETATM   14  N4  UNL     1      24.789   1.337  52.090  1.00  0.00    -0.302 N 
ENDROOT
BRANCH   1  15
HETATM   15  N1  UNL     1      22.622   1.437  53.153  1.00  0.00    -0.351 N 
HETATM   16  H4  UNL     1      22.842   2.005  53.979  1.00  0.00     0.163 HD
BRANCH  15  17
HETATM   17  C5  UNL     1      21.512   0.545  53.217  1.00  0.00     0.032 A 
HETATM   18  C4  UNL     1      21.514  -0.542  54.076  1.00  0.00     0.029 A 
HETATM   19  C3  UNL     1      20.486  -1.454  54.203  1.00  0.00     0.004 A 
HETATM   20  C2  UNL     1      19.376  -1.257  53.407  1.00  0.00     0.019 A 
HETATM   21  C1  UNL     1      19.303  -0.194  52.527  1.00  0.00     0.013 A 
HETATM   22 BR1  UNL     1      17.745   0.041  51.441  1.00  0.00    -0.051 Br
HETATM   23  C16 UNL     1      20.375   0.670  52.461  1.00  0.00     0.048 A 
ENDBRANCH  15  17
ENDBRANCH   1  15
TORSDOF 2
ENDMDL
MODEL 7
REMARK VINA RESULT:      -7.8      5.184      8.885
REMARK  2 active torsions:
REMARK  status: ('A' for Active; 'I' for Inactive)
REMARK    1  A    between atoms: C5_6  and  N1_7 
REMARK    2  A    between atoms: N1_7  and  C6_8 
ROOT
HETATM    1  C6  UNL     1      29.419   7.986  48.390  1.00  0.00     0.318 A 
HETATM    2  N2  UNL     1      30.790   7.530  48.435  1.00  0.00    -0.237 NA
HETATM    3  C7  UNL     1      31.161   6.298  48.460  1.00  0.00     0.235 A 
HETATM    4  N3  UNL     1      30.211   5.252  48.444  1.00  0.00    -0.202 NA
HETATM    5  C8  UNL     1      28.930   5.530  48.404  1.00  0.00     0.253 A 
HETATM    6  O1  UNL     1      28.117   4.375  48.393  1.00  0.00    -0.277 OA
HETATM    7  C9  UNL     1      26.914   4.312  49.128  1.00  0.00     0.089 A 
HETATM    8  C10 UNL     1      26.377   3.233  49.665  1.00  0.00     0.038 A 
HETATM    9  C11 UNL     1      25.126   3.599  50.343  1.00  0.00     0.004 A 
HETATM   10  C12 UNL     1      24.891   4.905  50.224  1.00  0.00     0.014 A 
HETATM   11  C13 UNL     1      26.005   5.432  49.451  1.00  0.00    -0.004 A 
HETATM   12  C14 UNL     1      26.199   6.688  49.083  1.00  0.00     0.007 C 
HETATM   13  C15 UNL     1      27.201   7.475  48.322  1.00  0.00     0.159 C 
HETATM   14  N4  UNL     1      28.513   6.894  48.374  1.00  0.00    -0.302 N 
ENDROOT
BRANCH   1  15
HETATM   15  N1  UNL     1      29.232   8.931  49.454  1.00  0.00    -0.351 N 
HETATM   16  H4  UNL     1      29.008   8.643  50.413  1.00  0.00     0.163 HD
BRANCH  15  17
HETATM   17  C5  UNL     1      29.361  10.322  49.173  1.00  0.00     0.032 A 
HETATM   18  C4  UNL     1      30.598  10.947  49.203  1.00  0.00     0.029 A 
HETATM   19  C3  UNL     1      30.815  12.286  48.945  1.00  0.00     0.004 A 
HETATM   20  C2  UNL     1      29.708  13.049  48.635  1.00  0.00     0.019 A 
HETATM   21  C1  UNL     1      28.444  12.493  48.586  1.00  0.00     0.013 A 
HETATM   22 BR1  UNL     1      26.935  13.589  48.152  1.00  0.00    -0.051 Br
HETATM   23  C16 UNL     1      28.314  11.148  48.857  1.00  0.00     0.048 A 
ENDBRANCH  15  17
ENDBRANCH   1  15
TORSDOF 2
ENDMDL
MODEL 8
REMARK VINA RESULT:      -7.6      5.744      8.200
REMARK  2 active torsions:
REMARK  status: ('A' for Active; 'I' for Inactive)
REMARK    1  A    between atoms: C5_6  and  N1_7 
REMARK    2  A    between atoms: N1_7  and  C6_8 
ROOT
HETATM    1  C6  UNL     1      20.794   0.498  53.039  1.00  0.00     0.318 A 
HETATM    2  N2  UNL     1      20.102  -0.653  53.574  1.00  0.00    -0.237 NA
HETATM    3  C7  UNL     1      20.653  -1.604  54.243  1.00  0.00     0.235 A 
HETATM    4  N3  UNL     1      22.040  -1.592  54.514  1.00  0.00    -0.202 NA
HETATM    5  C8  UNL     1      22.785  -0.603  54.084  1.00  0.00     0.253 A 
HETATM    6  O1  UNL     1      24.145  -0.743  54.439  1.00  0.00    -0.277 OA
HETATM    7  C9  UNL     1      25.181  -0.405  53.543  1.00  0.00     0.089 A 
HETATM    8  C10 UNL     1      26.374  -0.962  53.475  1.00  0.00     0.038 A 
HETATM    9  C11 UNL     1      27.152  -0.318  52.407  1.00  0.00     0.004 A 
HETATM   10  C12 UNL     1      26.437   0.639  51.816  1.00  0.00     0.014 A 
HETATM   11  C13 UNL     1      25.151   0.641  52.498  1.00  0.00    -0.004 A 
HETATM   12  C14 UNL     1      24.117   1.429  52.251  1.00  0.00     0.007 C 
HETATM   13  C15 UNL     1      22.743   1.643  52.768  1.00  0.00     0.159 C 
HETATM   14  N4  UNL     1      22.179   0.455  53.344  1.00  0.00    -0.302 N 
ENDROOT
BRANCH   1  15
HETATM   15  N1  UNL     1      20.469   0.599  51.644  1.00  0.00    -0.351 N 
HETATM   16  H4  UNL     1      21.149   0.391  50.904  1.00  0.00     0.163 HD
BRANCH  15  17
HETATM   17  C5  UNL     1      19.156   1.002  51.268  1.00  0.00     0.032 A 
HETATM   18  C4  UNL     1      18.656   2.244  51.627  1.00  0.00     0.029 A 
HETATM   19  C3  UNL     1      17.398   2.715  51.306  1.00  0.00     0.004 A 
HETATM   20  C2  UNL     1      16.587   1.875  50.571  1.00  0.00     0.019 A 
HETATM   21  C1  UNL     1      17.018   0.623  50.177  1.00  0.00     0.013 A 
HETATM   22 BR1  UNL     1      15.859  -0.509  49.158  1.00  0.00    -0.051 Br
HETATM   23  C16 UNL     1      18.288   0.229  50.540  1.00  0.00     0.048 A 
ENDBRANCH  15  17
ENDBRANCH   1  15
TORSDOF 2
ENDMDL
MODEL 9
REMARK VINA RESULT:      -7.4      3.786      5.982
REMARK  2 active torsions:
REMARK  status: ('A' for Active; 'I' for Inactive)
REMARK    1  A    between atoms: C5_6  and  N1_7 
REMARK    2  A    between atoms: N1_7  and  C6_8 
ROOT
HETATM    1  C6  UNL     1      23.372   2.304  52.733  1.00  0.00     0.318 A 
HETATM    2  N2  UNL     1      23.758   3.639  52.337  1.00  0.00    -0.237 NA
HETATM    3  C7  UNL     1      22.944   4.580  52.011  1.00  0.00     0.235 A 
HETATM    4  N3  UNL     1      21.547   4.366  52.017  1.00  0.00    -0.202 NA
HETATM    5  C8  UNL     1      21.063   3.196  52.358  1.00  0.00     0.253 A 
HETATM    6  O1  UNL     1      19.652   3.149  52.311  1.00  0.00    -0.277 OA
HETATM    7  C9  UNL     1      18.966   2.016  51.826  1.00  0.00     0.089 A 
HETATM    8  C10 UNL     1      17.799   2.006  51.214  1.00  0.00     0.038 A 
HETATM    9  C11 UNL     1      17.439   0.623  50.872  1.00  0.00     0.004 A 
HETATM   10  C12 UNL     1      18.387  -0.222  51.276  1.00  0.00     0.014 A 
HETATM   11  C13 UNL     1      19.406   0.606  51.901  1.00  0.00    -0.004 A 
HETATM   12  C14 UNL     1      20.539   0.200  52.452  1.00  0.00     0.007 C 
HETATM   13  C15 UNL     1      21.712   0.798  53.135  1.00  0.00     0.159 C 
HETATM   14  N4  UNL     1      21.961   2.150  52.722  1.00  0.00    -0.302 N 
ENDROOT
BRANCH   1  15
HETATM   15  N1  UNL     1      24.104   1.373  51.921  1.00  0.00    -0.351 N 
HETATM   16  H4  UNL     1      23.769   1.062  51.002  1.00  0.00     0.163 HD
BRANCH  15  17
HETATM   17  C5  UNL     1      25.341   0.859  52.404  1.00  0.00     0.032 A 
HETATM   18  C4  UNL     1      25.563  -0.506  52.501  1.00  0.00     0.029 A 
HETATM   19  C3  UNL     1      26.728  -1.090  52.956  1.00  0.00     0.004 A 
HETATM   20  C2  UNL     1      27.742  -0.238  53.342  1.00  0.00     0.019 A 
HETATM   21  C1  UNL     1      27.594   1.134  53.273  1.00  0.00     0.013 A 
HETATM   22 BR1  UNL     1      29.028   2.279  53.819  1.00  0.00    -0.051 Br
HETATM   23  C16 UNL     1      26.397   1.635  52.807  1.00  0.00     0.048 A 
ENDBRANCH  15  17
ENDBRANCH   1  15
TORSDOF 2
ENDMDL
