MODEL 1
REMARK VINA RESULT:      -9.0      0.000      0.000
REMARK  4 active torsions:
REMARK  status: ('A' for Active; 'I' for Inactive)
REMARK    1  A    between atoms: C2_2  and  C3_3 
REMARK       I    between atoms: C3_3  and  N1_5 
REMARK    2  A    between atoms: N1_5  and  C4_6 
REMARK    3  A    between atoms: C10_12  and  N2_13 
REMARK    4  A    between atoms: N2_13  and  C11_14 
ROOT
HETATM    1  C4  UNL     1      26.088   0.330  53.009  1.00  0.00     0.035 A 
HETATM    2  C5  UNL     1      25.191  -0.603  53.472  1.00  0.00     0.032 A 
HETATM    3  C6  UNL     1      23.854  -0.271  53.424  1.00  0.00     0.034 A 
HETATM    4  C7  UNL     1      23.387   0.925  52.946  1.00  0.00     0.068 A 
HETATM    5  C8  UNL     1      24.270   1.865  52.481  1.00  0.00     0.016 A 
HETATM    6  C9  UNL     1      25.637   1.561  52.514  1.00  0.00     0.043 A 
HETATM    7  C10 UNL     1      24.119   3.240  51.909  1.00  0.00     0.237 A 
HETATM    8  N3  UNL     1      22.665   3.468  51.900  1.00  0.00    -0.252 N 
HETATM    9  C18 UNL     1      22.028   4.619  51.433  1.00  0.00     0.187 C 
HETATM   10  N4  UNL     1      21.512   5.591  51.038  1.00  0.00    -0.172 NA
HETATM   11  C19 UNL     1      21.743   2.497  52.383  1.00  0.00     0.223 A 
HETATM   12  N5  UNL     1      22.037   1.341  52.860  1.00  0.00    -0.243 NA
ENDROOT
BRANCH   7  13
HETATM   13  N2  UNL     1      24.688   3.267  50.583  1.00  0.00    -0.364 N 
HETATM   14  H9  UNL     1      24.406   2.460  49.945  1.00  0.00     0.162 HD
BRANCH  13  15
HETATM   15  C11 UNL     1      25.567   4.140  49.885  1.00  0.00     0.030 A 
HETATM   16  C12 UNL     1      26.798   3.765  49.333  1.00  0.00     0.029 A 
HETATM   17  C13 UNL     1      27.543   4.733  48.709  1.00  0.00     0.003 A 
HETATM   18  C14 UNL     1      27.170   6.053  48.582  1.00  0.00     0.007 A 
HETATM   19  C15 UNL     1      25.956   6.435  49.124  1.00  0.00    -0.060 A 
HETATM   20  C16 UNL     1      25.607   7.854  48.961  1.00  0.00     0.048 C 
HETATM   21  C17 UNL     1      25.204   5.465  49.753  1.00  0.00     0.036 A 
ENDBRANCH  13  15
ENDBRANCH   7  13
BRANCH   1  22
HETATM   22  N1  UNL     1      27.455  -0.050  53.074  1.00  0.00    -0.324 N 
HETATM   23  C3  UNL     1      28.505   0.291  53.963  1.00  0.00     0.244 C 
HETATM   24  O1  UNL     1      28.468   1.054  54.958  1.00  0.00    -0.268 OA
HETATM   25  H4  UNL     1      27.578  -0.687  52.281  1.00  0.00     0.169 HD
BRANCH  23  26
HETATM   26  C2  UNL     1      29.791  -0.333  53.672  1.00  0.00     0.064 C 
HETATM   27  C1  UNL     1      29.783  -1.639  53.457  1.00  0.00     0.017 C 
ENDBRANCH  23  26
ENDBRANCH   1  22
TORSDOF 4
ENDMDL
MODEL 2
REMARK VINA RESULT:      -8.8      2.683      6.203
REMARK  4 active torsions:
REMARK  status: ('A' for Active; 'I' for Inactive)
REMARK    1  A    between atoms: C2_2  and  C3_3 
REMARK       I    between atoms: C3_3  and  N1_5 
REMARK    2  A    between atoms: N1_5  and  C4_6 
REMARK    3  A    between atoms: C10_12  and  N2_13 
REMARK    4  A    between atoms: N2_13  and  C11_14 
ROOT
HETATM    1  C4  UNL     1      26.381   2.447  51.808  1.00  0.00     0.035 A 
HETATM    2  C5  UNL     1      27.518   1.938  52.389  1.00  0.00     0.032 A 
HETATM    3  C6  UNL     1      27.357   0.922  53.307  1.00  0.00     0.034 A 
HETATM    4  C7  UNL     1      26.138   0.407  53.660  1.00  0.00     0.068 A 
HETATM    5  C8  UNL     1      24.995   0.905  53.088  1.00  0.00     0.016 A 
HETATM    6  C9  UNL     1      25.121   1.938  52.152  1.00  0.00     0.043 A 
HETATM    7  C10 UNL     1      23.538   0.594  53.237  1.00  0.00     0.237 A 
HETATM    8  N3  UNL     1      23.502  -0.500  54.221  1.00  0.00    -0.252 N 
HETATM    9  C18 UNL     1      22.350  -1.144  54.674  1.00  0.00     0.187 C 
HETATM   10  N4  UNL     1      21.374  -1.673  55.043  1.00  0.00    -0.172 NA
HETATM   11  C19 UNL     1      24.684  -1.020  54.818  1.00  0.00     0.223 A 
HETATM   12  N5  UNL     1      25.887  -0.633  54.586  1.00  0.00    -0.243 NA
ENDROOT
BRANCH   7  13
HETATM   13  N2  UNL     1      23.005   0.199  51.955  1.00  0.00    -0.364 N 
HETATM   14  H9  UNL     1      23.605  -0.486  51.399  1.00  0.00     0.162 HD
BRANCH  13  15
HETATM   15  C11 UNL     1      21.828   0.506  51.219  1.00  0.00     0.030 A 
HETATM   16  C12 UNL     1      21.805   1.158  49.981  1.00  0.00     0.029 A 
HETATM   17  C13 UNL     1      20.583   1.404  49.408  1.00  0.00     0.003 A 
HETATM   18  C14 UNL     1      19.371   1.056  49.961  1.00  0.00     0.007 A 
HETATM   19  C15 UNL     1      19.381   0.411  51.185  1.00  0.00    -0.060 A 
HETATM   20  C16 UNL     1      18.061   0.063  51.729  1.00  0.00     0.048 C 
HETATM   21  C17 UNL     1      20.608   0.163  51.764  1.00  0.00     0.036 A 
ENDBRANCH  13  15
ENDBRANCH   7  13
BRANCH   1  22
HETATM   22  N1  UNL     1      26.589   3.491  50.868  1.00  0.00    -0.324 N 
HETATM   23  C3  UNL     1      25.838   3.944  49.754  1.00  0.00     0.244 C 
HETATM   24  O1  UNL     1      24.750   3.502  49.314  1.00  0.00    -0.268 OA
HETATM   25  H4  UNL     1      27.475   3.917  51.156  1.00  0.00     0.169 HD
BRANCH  23  26
HETATM   26  C2  UNL     1      26.417   5.073  49.034  1.00  0.00     0.064 C 
HETATM   27  C1  UNL     1      27.679   4.953  48.655  1.00  0.00     0.017 C 
ENDBRANCH  23  26
ENDBRANCH   1  22
TORSDOF 4
ENDMDL
MODEL 3
REMARK VINA RESULT:      -8.7      2.763      6.480
REMARK  4 active torsions:
REMARK  status: ('A' for Active; 'I' for Inactive)
REMARK    1  A    between atoms: C2_2  and  C3_3 
REMARK       I    between atoms: C3_3  and  N1_5 
REMARK    2  A    between atoms: N1_5  and  C4_6 
REMARK    3  A    between atoms: C10_12  and  N2_13 
REMARK    4  A    between atoms: N2_13  and  C11_14 
ROOT
HETATM    1  C4  UNL     1      27.715   5.327  48.550  1.00  0.00     0.035 A 
HETATM    2  C5  UNL     1      26.963   6.416  48.177  1.00  0.00     0.032 A 
HETATM    3  C6  UNL     1      25.638   6.427  48.557  1.00  0.00     0.034 A 
HETATM    4  C7  UNL     1      25.047   5.421  49.274  1.00  0.00     0.068 A 
HETATM    5  C8  UNL     1      25.785   4.329  49.654  1.00  0.00     0.016 A 
HETATM    6  C9  UNL     1      27.135   4.285  49.285  1.00  0.00     0.043 A 
HETATM    7  C10 UNL     1      25.476   3.079  50.417  1.00  0.00     0.237 A 
HETATM    8  N3  UNL     1      24.054   3.217  50.771  1.00  0.00    -0.252 N 
HETATM    9  C18 UNL     1      23.310   2.296  51.510  1.00  0.00     0.187 C 
HETATM   10  N4  UNL     1      22.702   1.512  52.130  1.00  0.00    -0.172 NA
HETATM   11  C19 UNL     1      23.282   4.347  50.380  1.00  0.00     0.223 A 
HETATM   12  N5  UNL     1      23.701   5.357  49.705  1.00  0.00    -0.243 NA
ENDROOT
BRANCH   7  13
HETATM   13  N2  UNL     1      26.328   3.011  51.579  1.00  0.00    -0.364 N 
HETATM   14  H9  UNL     1      26.503   3.938  52.076  1.00  0.00     0.162 HD
BRANCH  13  15
HETATM   15  C11 UNL     1      27.019   1.969  52.257  1.00  0.00     0.030 A 
HETATM   16  C12 UNL     1      28.101   2.160  53.126  1.00  0.00     0.029 A 
HETATM   17  C13 UNL     1      28.678   1.048  53.685  1.00  0.00     0.003 A 
HETATM   18  C14 UNL     1      28.271  -0.249  53.457  1.00  0.00     0.007 A 
HETATM   19  C15 UNL     1      27.203  -0.449  52.601  1.00  0.00    -0.060 A 
HETATM   20  C16 UNL     1      26.811  -1.850  52.393  1.00  0.00     0.048 C 
HETATM   21  C17 UNL     1      26.622   0.667  52.036  1.00  0.00     0.036 A 
ENDBRANCH  13  15
ENDBRANCH   7  13
BRANCH   1  22
HETATM   22  N1  UNL     1      29.075   5.354  48.140  1.00  0.00    -0.324 N 
HETATM   23  C3  UNL     1      30.093   6.334  48.256  1.00  0.00     0.244 C 
HETATM   24  O1  UNL     1      30.026   7.472  48.779  1.00  0.00    -0.268 OA
HETATM   25  H4  UNL     1      29.222   4.445  47.693  1.00  0.00     0.169 HD
BRANCH  23  26
HETATM   26  C2  UNL     1      31.383   5.957  47.689  1.00  0.00     0.064 C 
HETATM   27  C1  UNL     1      31.558   4.675  47.410  1.00  0.00     0.017 C 
ENDBRANCH  23  26
ENDBRANCH   1  22
TORSDOF 4
ENDMDL
MODEL 4
REMARK VINA RESULT:      -8.5      2.734      5.671
REMARK  4 active torsions:
REMARK  status: ('A' for Active; 'I' for Inactive)
REMARK    1  A    between atoms: C2_2  and  C3_3 
REMARK       I    between atoms: C3_3  and  N1_5 
REMARK    2  A    between atoms: N1_5  and  C4_6 
REMARK    3  A    between atoms: C10_12  and  N2_13 
REMARK    4  A    between atoms: N2_13  and  C11_14 
ROOT
HETATM    1  C4  UNL     1      22.047  -0.563  53.420  1.00  0.00     0.035 A 
HETATM    2  C5  UNL     1      22.013  -1.163  54.657  1.00  0.00     0.032 A 
HETATM    3  C6  UNL     1      23.199  -1.228  55.358  1.00  0.00     0.034 A 
HETATM    4  C7  UNL     1      24.386  -0.732  54.887  1.00  0.00     0.068 A 
HETATM    5  C8  UNL     1      24.433  -0.131  53.655  1.00  0.00     0.016 A 
HETATM    6  C9  UNL     1      23.248  -0.047  52.915  1.00  0.00     0.043 A 
HETATM    7  C10 UNL     1      25.525   0.499  52.848  1.00  0.00     0.237 A 
HETATM    8  N3  UNL     1      26.718   0.378  53.700  1.00  0.00    -0.252 N 
HETATM    9  C18 UNL     1      27.994   0.844  53.379  1.00  0.00     0.187 C 
HETATM   10  N4  UNL     1      29.057   1.240  53.092  1.00  0.00    -0.172 NA
HETATM   11  C19 UNL     1      26.676  -0.245  54.979  1.00  0.00     0.223 A 
HETATM   12  N5  UNL     1      25.640  -0.755  55.542  1.00  0.00    -0.243 NA
ENDROOT
BRANCH   7  13
HETATM   13  N2  UNL     1      25.180   1.874  52.576  1.00  0.00    -0.364 N 
HETATM   14  H9  UNL     1      24.672   2.384  53.362  1.00  0.00     0.162 HD
BRANCH  13  15
HETATM   15  C11 UNL     1      25.360   2.755  51.474  1.00  0.00     0.030 A 
HETATM   16  C12 UNL     1      26.488   2.781  50.646  1.00  0.00     0.029 A 
HETATM   17  C13 UNL     1      26.522   3.709  49.637  1.00  0.00     0.003 A 
HETATM   18  C14 UNL     1      25.524   4.623  49.374  1.00  0.00     0.007 A 
HETATM   19  C15 UNL     1      24.405   4.607  50.187  1.00  0.00    -0.060 A 
HETATM   20  C16 UNL     1      23.372   5.601  49.864  1.00  0.00     0.048 C 
HETATM   21  C17 UNL     1      24.368   3.675  51.203  1.00  0.00     0.036 A 
ENDBRANCH  13  15
ENDBRANCH   7  13
BRANCH   1  22
HETATM   22  N1  UNL     1      20.806  -0.515  52.730  1.00  0.00    -0.324 N 
HETATM   23  C3  UNL     1      19.925   0.549  52.411  1.00  0.00     0.244 C 
HETATM   24  O1  UNL     1      20.044   1.768  52.679  1.00  0.00    -0.268 OA
HETATM   25  H4  UNL     1      20.625  -1.489  52.469  1.00  0.00     0.169 HD
BRANCH  23  26
HETATM   26  C2  UNL     1      18.727   0.162  51.674  1.00  0.00     0.064 C 
HETATM   27  C1  UNL     1      17.940  -0.735  52.247  1.00  0.00     0.017 C 
ENDBRANCH  23  26
ENDBRANCH   1  22
TORSDOF 4
ENDMDL
MODEL 5
REMARK VINA RESULT:      -8.2      2.389      5.738
REMARK  4 active torsions:
REMARK  status: ('A' for Active; 'I' for Inactive)
REMARK    1  A    between atoms: C2_2  and  C3_3 
REMARK       I    between atoms: C3_3  and  N1_5 
REMARK    2  A    between atoms: N1_5  and  C4_6 
REMARK    3  A    between atoms: C10_12  and  N2_13 
REMARK    4  A    between atoms: N2_13  and  C11_14 
ROOT
HETATM    1  C4  UNL     1      26.310   1.821  51.757  1.00  0.00     0.035 A 
HETATM    2  C5  UNL     1      26.845   2.933  51.151  1.00  0.00     0.032 A 
HETATM    3  C6  UNL     1      26.015   3.662  50.326  1.00  0.00     0.034 A 
HETATM    4  C7  UNL     1      24.707   3.335  50.086  1.00  0.00     0.068 A 
HETATM    5  C8  UNL     1      24.160   2.228  50.684  1.00  0.00     0.016 A 
HETATM    6  C9  UNL     1      24.974   1.463  51.529  1.00  0.00     0.043 A 
HETATM    7  C10 UNL     1      22.808   1.587  50.646  1.00  0.00     0.237 A 
HETATM    8  N3  UNL     1      22.023   2.456  49.755  1.00  0.00    -0.252 N 
HETATM    9  C18 UNL     1      20.680   2.274  49.421  1.00  0.00     0.187 C 
HETATM   10  N4  UNL     1      19.554   2.105  49.153  1.00  0.00    -0.172 NA
HETATM   11  C19 UNL     1      22.584   3.606  49.131  1.00  0.00     0.223 A 
HETATM   12  N5  UNL     1      23.791   4.028  49.261  1.00  0.00    -0.243 NA
ENDROOT
BRANCH   7  13
HETATM   13  N2  UNL     1      22.268   1.542  51.984  1.00  0.00    -0.364 N 
HETATM   14  H9  UNL     1      22.254   2.472  52.506  1.00  0.00     0.162 HD
BRANCH  13  15
HETATM   15  C11 UNL     1      21.724   0.522  52.813  1.00  0.00     0.030 A 
HETATM   16  C12 UNL     1      22.448  -0.207  53.765  1.00  0.00     0.029 A 
HETATM   17  C13 UNL     1      21.784  -1.177  54.471  1.00  0.00     0.003 A 
HETATM   18  C14 UNL     1      20.452  -1.490  54.315  1.00  0.00     0.007 A 
HETATM   19  C15 UNL     1      19.726  -0.777  53.377  1.00  0.00    -0.060 A 
HETATM   20  C16 UNL     1      18.311  -1.152  53.251  1.00  0.00     0.048 C 
HETATM   21  C17 UNL     1      20.392   0.199  52.665  1.00  0.00     0.036 A 
ENDBRANCH  13  15
ENDBRANCH   7  13
BRANCH   1  22
HETATM   22  N1  UNL     1      27.196   1.097  52.598  1.00  0.00    -0.324 N 
HETATM   23  C3  UNL     1      28.083   1.499  53.629  1.00  0.00     0.244 C 
HETATM   24  O1  UNL     1      28.303   2.654  54.064  1.00  0.00    -0.268 OA
HETATM   25  H4  UNL     1      27.081   0.122  52.308  1.00  0.00     0.169 HD
BRANCH  23  26
HETATM   26  C2  UNL     1      28.831   0.416  54.259  1.00  0.00     0.064 C 
HETATM   27  C1  UNL     1      29.811  -0.122  53.550  1.00  0.00     0.017 C 
ENDBRANCH  23  26
ENDBRANCH   1  22
TORSDOF 4
ENDMDL
MODEL 6
REMARK VINA RESULT:      -8.2      2.837      7.664
REMARK  4 active torsions:
REMARK  status: ('A' for Active; 'I' for Inactive)
REMARK    1  A    between atoms: C2_2  and  C3_3 
REMARK       I    between atoms: C3_3  and  N1_5 
REMARK    2  A    between atoms: N1_5  and  C4_6 
REMARK    3  A    between atoms: C10_12  and  N2_13 
REMARK    4  A    between atoms: N2_13  and  C11_14 
ROOT
HETATM    1  C4  UNL     1      24.065   3.862  50.150  1.00  0.00     0.035 A 
HETATM    2  C5  UNL     1      25.271   4.171  49.567  1.00  0.00     0.032 A 
HETATM    3  C6  UNL     1      26.403   3.621  50.131  1.00  0.00     0.034 A 
HETATM    4  C7  UNL     1      26.380   2.798  51.225  1.00  0.00     0.068 A 
HETATM    5  C8  UNL     1      25.184   2.481  51.816  1.00  0.00     0.016 A 
HETATM    6  C9  UNL     1      24.014   3.022  51.270  1.00  0.00     0.043 A 
HETATM    7  C10 UNL     1      24.796   1.641  52.993  1.00  0.00     0.237 A 
HETATM    8  N3  UNL     1      26.074   1.108  53.492  1.00  0.00    -0.252 N 
HETATM    9  C18 UNL     1      26.224   0.247  54.580  1.00  0.00     0.187 C 
HETATM   10  N4  UNL     1      26.330  -0.474  55.495  1.00  0.00    -0.172 NA
HETATM   11  C19 UNL     1      27.319   1.434  52.884  1.00  0.00     0.223 A 
HETATM   12  N5  UNL     1      27.490   2.192  51.860  1.00  0.00    -0.243 NA
ENDROOT
BRANCH   7  13
HETATM   13  N2  UNL     1      23.899   0.599  52.556  1.00  0.00    -0.364 N 
HETATM   14  H9  UNL     1      24.149   0.136  51.628  1.00  0.00     0.162 HD
BRANCH  13  15
HETATM   15  C11 UNL     1      22.716   0.007  53.079  1.00  0.00     0.030 A 
HETATM   16  C12 UNL     1      22.668  -0.831  54.199  1.00  0.00     0.029 A 
HETATM   17  C13 UNL     1      21.450  -1.343  54.565  1.00  0.00     0.003 A 
HETATM   18  C14 UNL     1      20.263  -1.094  53.912  1.00  0.00     0.007 A 
HETATM   19  C15 UNL     1      20.298  -0.267  52.804  1.00  0.00    -0.060 A 
HETATM   20  C16 UNL     1      19.005  -0.035  52.144  1.00  0.00     0.048 C 
HETATM   21  C17 UNL     1      21.522   0.249  52.432  1.00  0.00     0.036 A 
ENDBRANCH  13  15
ENDBRANCH   7  13
BRANCH   1  22
HETATM   22  N1  UNL     1      22.924   4.447  49.539  1.00  0.00    -0.324 N 
HETATM   23  C3  UNL     1      22.022   5.457  49.960  1.00  0.00     0.244 C 
HETATM   24  O1  UNL     1      22.022   6.107  51.032  1.00  0.00    -0.268 OA
HETATM   25  H4  UNL     1      22.844   3.966  48.638  1.00  0.00     0.169 HD
BRANCH  23  26
HETATM   26  C2  UNL     1      20.958   5.772  49.012  1.00  0.00     0.064 C 
HETATM   27  C1  UNL     1      19.981   6.549  49.451  1.00  0.00     0.017 C 
ENDBRANCH  23  26
ENDBRANCH   1  22
TORSDOF 4
ENDMDL
MODEL 7
REMARK VINA RESULT:      -8.1      2.145      6.079
REMARK  4 active torsions:
REMARK  status: ('A' for Active; 'I' for Inactive)
REMARK    1  A    between atoms: C2_2  and  C3_3 
REMARK       I    between atoms: C3_3  and  N1_5 
REMARK    2  A    between atoms: N1_5  and  C4_6 
REMARK    3  A    between atoms: C10_12  and  N2_13 
REMARK    4  A    between atoms: N2_13  and  C11_14 
ROOT
HETATM    1  C4  UNL     1      25.715   6.207  49.843  1.00  0.00     0.035 A 
HETATM    2  C5  UNL     1      24.855   7.271  49.979  1.00  0.00     0.032 A 
HETATM    3  C6  UNL     1      23.655   7.033  50.616  1.00  0.00     0.034 A 
HETATM    4  C7  UNL     1      23.288   5.809  51.108  1.00  0.00     0.068 A 
HETATM    5  C8  UNL     1      24.137   4.739  50.980  1.00  0.00     0.016 A 
HETATM    6  C9  UNL     1      25.365   4.944  50.338  1.00  0.00     0.043 A 
HETATM    7  C10 UNL     1      24.064   3.299  51.382  1.00  0.00     0.237 A 
HETATM    8  N3  UNL     1      22.760   3.180  52.053  1.00  0.00    -0.252 N 
HETATM    9  C18 UNL     1      22.245   2.014  52.623  1.00  0.00     0.187 C 
HETATM   10  N4  UNL     1      21.830   1.027  53.095  1.00  0.00    -0.172 NA
HETATM   11  C19 UNL     1      21.873   4.285  52.190  1.00  0.00     0.223 A 
HETATM   12  N5  UNL     1      22.083   5.483  51.775  1.00  0.00    -0.243 NA
ENDROOT
BRANCH   7  13
HETATM   13  N2  UNL     1      25.166   2.998  52.264  1.00  0.00    -0.364 N 
HETATM   14  H9  UNL     1      25.460   3.786  52.919  1.00  0.00     0.162 HD
BRANCH  13  15
HETATM   15  C11 UNL     1      25.990   1.861  52.488  1.00  0.00     0.030 A 
HETATM   16  C12 UNL     1      25.697   0.562  52.054  1.00  0.00     0.029 A 
HETATM   17  C13 UNL     1      26.585  -0.435  52.371  1.00  0.00     0.003 A 
HETATM   18  C14 UNL     1      27.748  -0.255  53.086  1.00  0.00     0.007 A 
HETATM   19  C15 UNL     1      28.047   1.023  53.520  1.00  0.00    -0.060 A 
HETATM   20  C16 UNL     1      29.298   1.159  54.279  1.00  0.00     0.048 C 
HETATM   21  C17 UNL     1      27.156   2.028  53.204  1.00  0.00     0.036 A 
ENDBRANCH  13  15
ENDBRANCH   7  13
BRANCH   1  22
HETATM   22  N1  UNL     1      26.940   6.493  49.182  1.00  0.00    -0.324 N 
HETATM   23  C3  UNL     1      27.923   5.666  48.584  1.00  0.00     0.244 C 
HETATM   24  O1  UNL     1      27.941   4.415  48.492  1.00  0.00    -0.268 OA
HETATM   25  H4  UNL     1      27.009   7.515  49.210  1.00  0.00     0.169 HD
BRANCH  23  26
HETATM   26  C2  UNL     1      29.057   6.375  48.001  1.00  0.00     0.064 C 
HETATM   27  C1  UNL     1      30.260   5.883  48.254  1.00  0.00     0.017 C 
ENDBRANCH  23  26
ENDBRANCH   1  22
TORSDOF 4
ENDMDL
MODEL 8
REMARK VINA RESULT:      -8.0      2.969      7.163
REMARK  4 active torsions:
REMARK  status: ('A' for Active; 'I' for Inactive)
REMARK    1  A    between atoms: C2_2  and  C3_3 
REMARK       I    between atoms: C3_3  and  N1_5 
REMARK    2  A    between atoms: N1_5  and  C4_6 
REMARK    3  A    between atoms: C10_12  and  N2_13 
REMARK    4  A    between atoms: N2_13  and  C11_14 
ROOT
HETATM    1  C4  UNL     1      24.871   3.049  50.572  1.00  0.00     0.035 A 
HETATM    2  C5  UNL     1      26.202   2.756  50.754  1.00  0.00     0.032 A 
HETATM    3  C6  UNL     1      26.509   1.758  51.655  1.00  0.00     0.034 A 
HETATM    4  C7  UNL     1      25.568   1.061  52.364  1.00  0.00     0.068 A 
HETATM    5  C8  UNL     1      24.237   1.343  52.192  1.00  0.00     0.016 A 
HETATM    6  C9  UNL     1      23.887   2.351  51.285  1.00  0.00     0.043 A 
HETATM    7  C10 UNL     1      22.974   0.801  52.786  1.00  0.00     0.237 A 
HETATM    8  N3  UNL     1      23.433  -0.250  53.708  1.00  0.00    -0.252 N 
HETATM    9  C18 UNL     1      22.607  -1.061  54.489  1.00  0.00     0.187 C 
HETATM   10  N4  UNL     1      21.899  -1.730  55.135  1.00  0.00    -0.172 NA
HETATM   11  C19 UNL     1      24.812  -0.547  53.892  1.00  0.00     0.223 A 
HETATM   12  N5  UNL     1      25.799   0.025  53.300  1.00  0.00    -0.243 NA
ENDROOT
BRANCH   7  13
HETATM   13  N2  UNL     1      22.140   0.281  51.730  1.00  0.00    -0.364 N 
HETATM   14  H9  UNL     1      22.646  -0.284  50.980  1.00  0.00     0.162 HD
BRANCH  13  15
HETATM   15  C11 UNL     1      20.751   0.332  51.430  1.00  0.00     0.030 A 
HETATM   16  C12 UNL     1      20.193   1.002  50.334  1.00  0.00     0.029 A 
HETATM   17  C13 UNL     1      18.828   0.979  50.195  1.00  0.00     0.003 A 
HETATM   18  C14 UNL     1      17.961   0.343  51.056  1.00  0.00     0.007 A 
HETATM   19  C15 UNL     1      18.500  -0.321  52.142  1.00  0.00    -0.060 A 
HETATM   20  C16 UNL     1      17.531  -0.981  53.028  1.00  0.00     0.048 C 
HETATM   21  C17 UNL     1      19.872  -0.299  52.285  1.00  0.00     0.036 A 
ENDBRANCH  13  15
ENDBRANCH   7  13
BRANCH   1  22
HETATM   22  N1  UNL     1      24.596   4.082  49.636  1.00  0.00    -0.324 N 
HETATM   23  C3  UNL     1      24.523   5.493  49.757  1.00  0.00     0.244 C 
HETATM   24  O1  UNL     1      24.697   6.199  50.779  1.00  0.00    -0.268 OA
HETATM   25  H4  UNL     1      24.437   3.587  48.754  1.00  0.00     0.169 HD
BRANCH  23  26
HETATM   26  C2  UNL     1      24.205   6.204  48.524  1.00  0.00     0.064 C 
HETATM   27  C1  UNL     1      23.249   5.688  47.768  1.00  0.00     0.017 C 
ENDBRANCH  23  26
ENDBRANCH   1  22
TORSDOF 4
ENDMDL
MODEL 9
REMARK VINA RESULT:      -7.7      6.076      9.525
REMARK  4 active torsions:
REMARK  status: ('A' for Active; 'I' for Inactive)
REMARK    1  A    between atoms: C2_2  and  C3_3 
REMARK       I    between atoms: C3_3  and  N1_5 
REMARK    2  A    between atoms: N1_5  and  C4_6 
REMARK    3  A    between atoms: C10_12  and  N2_13 
REMARK    4  A    between atoms: N2_13  and  C11_14 
ROOT
HETATM    1  C4  UNL     1      28.380   6.107  48.204  1.00  0.00     0.035 A 
HETATM    2  C5  UNL     1      27.500   7.073  47.776  1.00  0.00     0.032 A 
HETATM    3  C6  UNL     1      28.036   8.273  47.358  1.00  0.00     0.034 A 
HETATM    4  C7  UNL     1      29.379   8.542  47.351  1.00  0.00     0.068 A 
HETATM    5  C8  UNL     1      30.268   7.587  47.776  1.00  0.00     0.016 A 
HETATM    6  C9  UNL     1      29.759   6.356  48.207  1.00  0.00     0.043 A 
HETATM    7  C10 UNL     1      31.758   7.539  47.904  1.00  0.00     0.237 A 
HETATM    8  N3  UNL     1      32.204   8.855  47.422  1.00  0.00    -0.252 N 
HETATM    9  C18 UNL     1      33.531   9.280  47.334  1.00  0.00     0.187 C 
HETATM   10  N4  UNL     1      34.648   9.619  47.269  1.00  0.00    -0.172 NA
HETATM   11  C19 UNL     1      31.287   9.851  46.981  1.00  0.00     0.223 A 
HETATM   12  N5  UNL     1      30.008   9.740  46.937  1.00  0.00    -0.243 NA
ENDROOT
BRANCH   7  13
HETATM   13  N2  UNL     1      32.268   6.456  47.098  1.00  0.00    -0.364 N 
HETATM   14  H9  UNL     1      32.053   6.518  46.055  1.00  0.00     0.162 HD
BRANCH  13  15
HETATM   15  C11 UNL     1      33.022   5.278  47.359  1.00  0.00     0.030 A 
HETATM   16  C12 UNL     1      34.323   5.259  47.876  1.00  0.00     0.029 A 
HETATM   17  C13 UNL     1      34.926   4.039  48.049  1.00  0.00     0.003 A 
HETATM   18  C14 UNL     1      34.347   2.826  47.752  1.00  0.00     0.007 A 
HETATM   19  C15 UNL     1      33.062   2.833  47.239  1.00  0.00    -0.060 A 
HETATM   20  C16 UNL     1      32.492   1.512  46.939  1.00  0.00     0.048 C 
HETATM   21  C17 UNL     1      32.453   4.058  47.063  1.00  0.00     0.036 A 
ENDBRANCH  13  15
ENDBRANCH   7  13
BRANCH   1  22
HETATM   22  N1  UNL     1      27.789   4.886  48.625  1.00  0.00    -0.324 N 
HETATM   23  C3  UNL     1      26.643   4.594  49.408  1.00  0.00     0.244 C 
HETATM   24  O1  UNL     1      25.838   5.393  49.942  1.00  0.00    -0.268 OA
HETATM   25  H4  UNL     1      28.394   4.162  48.227  1.00  0.00     0.169 HD
BRANCH  23  26
HETATM   26  C2  UNL     1      26.378   3.174  49.612  1.00  0.00     0.064 C 
HETATM   27  C1  UNL     1      26.462   2.725  50.855  1.00  0.00     0.017 C 
ENDBRANCH  23  26
ENDBRANCH   1  22
TORSDOF 4
ENDMDL
