MODEL 1
REMARK VINA RESULT:      -8.6      0.000      0.000
REMARK  3 active torsions:
REMARK  status: ('A' for Active; 'I' for Inactive)
REMARK    1  A    between atoms: C2_4  and  O2_5 
REMARK    2  A    between atoms: C5_8  and  C6_9 
REMARK    3  A    between atoms: C6_9  and  C7_10 
ROOT
HETATM    1  C7  UNL     1      24.331   0.708  52.284  1.00  0.00     0.035 A 
HETATM    2  C8  UNL     1      23.820   1.750  51.464  1.00  0.00     0.364 A 
HETATM    3  N2  UNL     1      22.556   2.187  51.568  1.00  0.00    -0.027 NA
HETATM    4  C9  UNL     1      21.513   1.906  52.293  1.00  0.00     0.408 A 
HETATM    5  N3  UNL     1      22.623   1.406  52.319  1.00  0.00     0.129 N 
HETATM    6  C10 UNL     1      23.197   0.477  52.998  1.00  0.00     0.284 A 
HETATM    7  O3  UNL     1      23.140  -0.519  54.012  1.00  0.00    -0.258 OA
HETATM    8  C11 UNL     1      21.953  -1.277  54.352  1.00  0.00     0.233 C 
HETATM    9  F1  UNL     1      22.260  -2.424  54.919  1.00  0.00    -0.178 F 
HETATM   10  C12 UNL     1      20.655  -0.914  54.143  1.00  0.00     0.088 C 
HETATM   11  C13 UNL     1      20.007   0.188  53.377  1.00  0.00     0.120 C 
HETATM   12  N4  UNL     1      20.568   1.388  53.185  1.00  0.00    -0.239 NA
ENDROOT
BRANCH   1  13
HETATM   13  C6  UNL     1      25.425  -0.188  52.717  1.00  0.00     0.086 C 
BRANCH  13  14
HETATM   14  C5  UNL     1      26.589   0.611  53.243  1.00  0.00     0.010 C 
HETATM   15  C1  UNL     1      27.053   0.259  54.579  1.00  0.00     0.249 C 
HETATM   16  O1  UNL     1      26.464  -0.665  55.194  1.00  0.00    -0.268 OA
HETATM   17  N1  UNL     1      28.165   0.989  55.120  1.00  0.00    -0.331 N 
HETATM   18  C2  UNL     1      29.108   1.567  54.184  1.00  0.00     0.223 C 
HETATM   19  H1  UNL     1      28.227   1.059  56.158  1.00  0.00     0.165 HD
HETATM   20  C3  UNL     1      28.359   2.345  53.149  1.00  0.00     0.081 C 
HETATM   21  C4  UNL     1      27.221   1.586  52.610  1.00  0.00    -0.010 C 
BRANCH  18  22
HETATM   22  O2  UNL     1      29.950   2.429  54.883  1.00  0.00    -0.377 OA
HETATM   23  H3  UNL     1      29.582   3.342  54.711  1.00  0.00     0.212 HD
ENDBRANCH  18  22
ENDBRANCH  13  14
ENDBRANCH   1  13
TORSDOF 3
ENDMDL
MODEL 2
REMARK VINA RESULT:      -8.3      2.696      6.424
REMARK  3 active torsions:
REMARK  status: ('A' for Active; 'I' for Inactive)
REMARK    1  A    between atoms: C2_4  and  O2_5 
REMARK    2  A    between atoms: C5_8  and  C6_9 
REMARK    3  A    between atoms: C6_9  and  C7_10 
ROOT
HETATM    1  C7  UNL     1      25.510   0.200  53.906  1.00  0.00     0.035 A 
HETATM    2  C8  UNL     1      25.605   1.593  54.172  1.00  0.00     0.364 A 
HETATM    3  N2  UNL     1      26.747   2.277  53.999  1.00  0.00    -0.027 NA
HETATM    4  C9  UNL     1      27.959   2.014  53.607  1.00  0.00     0.408 A 
HETATM    5  N3  UNL     1      27.007   1.263  53.713  1.00  0.00     0.129 N 
HETATM    6  C10 UNL     1      26.797   0.011  53.509  1.00  0.00     0.284 A 
HETATM    7  O3  UNL     1      27.277  -1.268  53.109  1.00  0.00    -0.258 OA
HETATM    8  C11 UNL     1      28.637  -1.729  53.296  1.00  0.00     0.233 C 
HETATM    9  F1  UNL     1      28.701  -3.043  53.321  1.00  0.00    -0.178 F 
HETATM   10  C12 UNL     1      29.756  -0.961  53.436  1.00  0.00     0.088 C 
HETATM   11  C13 UNL     1      29.982   0.497  53.639  1.00  0.00     0.120 C 
HETATM   12  N4  UNL     1      29.162   1.448  53.173  1.00  0.00    -0.239 NA
ENDROOT
BRANCH   1  13
HETATM   13  C6  UNL     1      24.743  -1.062  53.849  1.00  0.00     0.086 C 
BRANCH  13  14
HETATM   14  C5  UNL     1      23.265  -0.783  53.748  1.00  0.00     0.010 C 
HETATM   15  C1  UNL     1      22.453  -1.226  54.873  1.00  0.00     0.249 C 
HETATM   16  O1  UNL     1      23.022  -1.805  55.832  1.00  0.00    -0.268 OA
HETATM   17  N1  UNL     1      21.039  -0.975  54.824  1.00  0.00    -0.331 N 
HETATM   18  C2  UNL     1      20.585   0.154  54.038  1.00  0.00     0.223 C 
HETATM   19  H1  UNL     1      20.424  -1.624  55.358  1.00  0.00     0.165 HD
HETATM   20  C3  UNL     1      21.205   0.088  52.678  1.00  0.00     0.081 C 
HETATM   21  C4  UNL     1      22.650  -0.176  52.746  1.00  0.00    -0.010 C 
BRANCH  18  22
HETATM   22  O2  UNL     1      19.200   0.076  53.913  1.00  0.00    -0.377 OA
HETATM   23  H3  UNL     1      18.961  -0.823  54.278  1.00  0.00     0.212 HD
ENDBRANCH  18  22
ENDBRANCH  13  14
ENDBRANCH   1  13
TORSDOF 3
ENDMDL
MODEL 3
REMARK VINA RESULT:      -8.2      2.382      6.215
REMARK  3 active torsions:
REMARK  status: ('A' for Active; 'I' for Inactive)
REMARK    1  A    between atoms: C2_4  and  O2_5 
REMARK    2  A    between atoms: C5_8  and  C6_9 
REMARK    3  A    between atoms: C6_9  and  C7_10 
ROOT
HETATM    1  C7  UNL     1      25.876   1.540  52.774  1.00  0.00     0.035 A 
HETATM    2  C8  UNL     1      26.492   2.526  53.591  1.00  0.00     0.364 A 
HETATM    3  N2  UNL     1      27.742   2.389  54.059  1.00  0.00    -0.027 NA
HETATM    4  C9  UNL     1      28.691   1.503  53.979  1.00  0.00     0.408 A 
HETATM    5  N3  UNL     1      27.580   1.483  53.483  1.00  0.00     0.129 N 
HETATM    6  C10 UNL     1      26.918   0.667  52.742  1.00  0.00     0.284 A 
HETATM    7  O3  UNL     1      26.844  -0.562  52.028  1.00  0.00    -0.258 OA
HETATM    8  C11 UNL     1      27.530  -1.778  52.414  1.00  0.00     0.233 C 
HETATM    9  F1  UNL     1      26.930  -2.844  51.929  1.00  0.00    -0.178 F 
HETATM   10  C12 UNL     1      28.654  -1.883  53.179  1.00  0.00     0.088 C 
HETATM   11  C13 UNL     1      29.428  -0.916  54.007  1.00  0.00     0.120 C 
HETATM   12  N4  UNL     1      29.508   0.393  53.739  1.00  0.00    -0.239 NA
ENDROOT
BRANCH   1  13
HETATM   13  C6  UNL     1      24.731   1.033  51.989  1.00  0.00     0.086 C 
BRANCH  13  14
HETATM   14  C5  UNL     1      23.740   0.334  52.884  1.00  0.00     0.010 C 
HETATM   15  C1  UNL     1      22.338   0.476  52.517  1.00  0.00     0.249 C 
HETATM   16  O1  UNL     1      22.049   1.160  51.504  1.00  0.00    -0.268 OA
HETATM   17  N1  UNL     1      21.357  -0.179  53.338  1.00  0.00    -0.331 N 
HETATM   18  C2  UNL     1      21.772  -1.362  54.065  1.00  0.00     0.223 C 
HETATM   19  H1  UNL     1      20.403   0.239  53.361  1.00  0.00     0.165 HD
HETATM   20  C3  UNL     1      23.037  -1.065  54.806  1.00  0.00     0.081 C 
HETATM   21  C4  UNL     1      24.027  -0.390  53.954  1.00  0.00    -0.010 C 
BRANCH  18  22
HETATM   22  O2  UNL     1      20.773  -1.691  54.978  1.00  0.00    -0.377 OA
HETATM   23  H3  UNL     1      21.032  -2.591  55.327  1.00  0.00     0.212 HD
ENDBRANCH  18  22
ENDBRANCH  13  14
ENDBRANCH   1  13
TORSDOF 3
ENDMDL
MODEL 4
REMARK VINA RESULT:      -8.1      2.445      3.098
REMARK  3 active torsions:
REMARK  status: ('A' for Active; 'I' for Inactive)
REMARK    1  A    between atoms: C2_4  and  O2_5 
REMARK    2  A    between atoms: C5_8  and  C6_9 
REMARK    3  A    between atoms: C6_9  and  C7_10 
ROOT
HETATM    1  C7  UNL     1      23.865  -0.236  53.818  1.00  0.00     0.035 A 
HETATM    2  C8  UNL     1      23.636  -0.991  55.000  1.00  0.00     0.364 A 
HETATM    3  N2  UNL     1      22.458  -1.580  55.256  1.00  0.00    -0.027 NA
HETATM    4  C9  UNL     1      21.302  -1.682  54.667  1.00  0.00     0.408 A 
HETATM    5  N3  UNL     1      22.303  -1.097  54.296  1.00  0.00     0.129 N 
HETATM    6  C10 UNL     1      22.630  -0.392  53.271  1.00  0.00     0.284 A 
HETATM    7  O3  UNL     1      22.286   0.189  52.018  1.00  0.00    -0.258 OA
HETATM    8  C11 UNL     1      20.958   0.645  51.662  1.00  0.00     0.233 C 
HETATM    9  F1  UNL     1      21.001   1.560  50.717  1.00  0.00    -0.178 F 
HETATM   10  C12 UNL     1      19.773   0.228  52.193  1.00  0.00     0.088 C 
HETATM   11  C13 UNL     1      19.414  -0.617  53.366  1.00  0.00     0.120 C 
HETATM   12  N4  UNL     1      20.184  -1.609  53.830  1.00  0.00    -0.239 NA
ENDROOT
BRANCH   1  13
HETATM   13  C6  UNL     1      24.735   0.580  52.945  1.00  0.00     0.086 C 
BRANCH  13  14
HETATM   14  C5  UNL     1      26.176   0.163  53.092  1.00  0.00     0.010 C 
HETATM   15  C1  UNL     1      27.065   1.140  53.706  1.00  0.00     0.249 C 
HETATM   16  O1  UNL     1      26.585   2.245  54.063  1.00  0.00    -0.268 OA
HETATM   17  N1  UNL     1      28.446   0.784  53.872  1.00  0.00    -0.331 N 
HETATM   18  C2  UNL     1      28.767  -0.624  53.995  1.00  0.00     0.223 C 
HETATM   19  H1  UNL     1      29.137   1.563  53.895  1.00  0.00     0.165 HD
HETATM   20  C3  UNL     1      28.108  -1.375  52.882  1.00  0.00     0.081 C 
HETATM   21  C4  UNL     1      26.698  -0.995  52.721  1.00  0.00    -0.010 C 
BRANCH  18  22
HETATM   22  O2  UNL     1      30.147  -0.772  53.894  1.00  0.00    -0.377 OA
HETATM   23  H3  UNL     1      30.320  -0.899  52.917  1.00  0.00     0.212 HD
ENDBRANCH  18  22
ENDBRANCH  13  14
ENDBRANCH   1  13
TORSDOF 3
ENDMDL
MODEL 5
REMARK VINA RESULT:      -7.8      1.918      2.577
REMARK  3 active torsions:
REMARK  status: ('A' for Active; 'I' for Inactive)
REMARK    1  A    between atoms: C2_4  and  O2_5 
REMARK    2  A    between atoms: C5_8  and  C6_9 
REMARK    3  A    between atoms: C6_9  and  C7_10 
ROOT
HETATM    1  C7  UNL     1      25.294   2.414  52.261  1.00  0.00     0.035 A 
HETATM    2  C8  UNL     1      25.401   2.952  50.950  1.00  0.00     0.364 A 
HETATM    3  N2  UNL     1      24.385   2.909  50.074  1.00  0.00    -0.027 NA
HETATM    4  C9  UNL     1      23.164   2.461  50.061  1.00  0.00     0.408 A 
HETATM    5  N3  UNL     1      23.985   2.425  50.959  1.00  0.00     0.129 N 
HETATM    6  C10 UNL     1      24.011   1.975  52.164  1.00  0.00     0.284 A 
HETATM    7  O3  UNL     1      23.359   1.321  53.246  1.00  0.00    -0.258 OA
HETATM    8  C11 UNL     1      22.346   0.296  53.095  1.00  0.00     0.233 C 
HETATM    9  F1  UNL     1      22.279  -0.474  54.160  1.00  0.00    -0.178 F 
HETATM   10  C12 UNL     1      21.531   0.094  52.021  1.00  0.00     0.088 C 
HETATM   11  C13 UNL     1      21.497   0.650  50.639  1.00  0.00     0.120 C 
HETATM   12  N4  UNL     1      21.919   1.880  50.323  1.00  0.00    -0.239 NA
ENDROOT
BRANCH   1  13
HETATM   13  C6  UNL     1      25.859   2.121  53.595  1.00  0.00     0.086 C 
BRANCH  13  14
HETATM   14  C5  UNL     1      26.980   1.120  53.489  1.00  0.00     0.010 C 
HETATM   15  C1  UNL     1      28.318   1.628  53.758  1.00  0.00     0.249 C 
HETATM   16  O1  UNL     1      28.450   2.843  54.050  1.00  0.00    -0.268 OA
HETATM   17  N1  UNL     1      29.418   0.708  53.675  1.00  0.00    -0.331 N 
HETATM   18  C2  UNL     1      29.142  -0.693  53.923  1.00  0.00     0.223 C 
HETATM   19  H1  UNL     1      30.352   1.105  53.441  1.00  0.00     0.165 HD
HETATM   20  C3  UNL     1      27.973  -1.117  53.092  1.00  0.00     0.081 C 
HETATM   21  C4  UNL     1      26.859  -0.162  53.183  1.00  0.00    -0.010 C 
BRANCH  18  22
HETATM   22  O2  UNL     1      30.260  -1.435  53.552  1.00  0.00    -0.377 OA
HETATM   23  H3  UNL     1      30.225  -1.469  52.554  1.00  0.00     0.212 HD
ENDBRANCH  18  22
ENDBRANCH  13  14
ENDBRANCH   1  13
TORSDOF 3
ENDMDL
MODEL 6
REMARK VINA RESULT:      -7.6      2.076      2.368
REMARK  3 active torsions:
REMARK  status: ('A' for Active; 'I' for Inactive)
REMARK    1  A    between atoms: C2_4  and  O2_5 
REMARK    2  A    between atoms: C5_8  and  C6_9 
REMARK    3  A    between atoms: C6_9  and  C7_10 
ROOT
HETATM    1  C7  UNL     1      24.691   1.091  52.780  1.00  0.00     0.035 A 
HETATM    2  C8  UNL     1      25.127   2.272  52.120  1.00  0.00     0.364 A 
HETATM    3  N2  UNL     1      24.305   3.307  51.889  1.00  0.00    -0.027 NA
HETATM    4  C9  UNL     1      23.058   3.596  52.120  1.00  0.00     0.408 A 
HETATM    5  N3  UNL     1      23.675   2.585  52.399  1.00  0.00     0.129 N 
HETATM    6  C10 UNL     1      23.401   1.472  52.981  1.00  0.00     0.284 A 
HETATM    7  O3  UNL     1      22.463   0.624  53.634  1.00  0.00    -0.258 OA
HETATM    8  C11 UNL     1      21.043   0.597  53.348  1.00  0.00     0.233 C 
HETATM    9  F1  UNL     1      20.507  -0.557  53.684  1.00  0.00    -0.178 F 
HETATM   10  C12 UNL     1      20.293   1.597  52.804  1.00  0.00     0.088 C 
HETATM   11  C13 UNL     1      20.627   2.899  52.161  1.00  0.00     0.120 C 
HETATM   12  N4  UNL     1      21.706   3.627  52.477  1.00  0.00    -0.239 NA
ENDROOT
BRANCH   1  13
HETATM   13  C6  UNL     1      24.940  -0.261  53.324  1.00  0.00     0.086 C 
BRANCH  13  14
HETATM   14  C5  UNL     1      26.401  -0.445  53.642  1.00  0.00     0.010 C 
HETATM   15  C1  UNL     1      27.081  -1.514  52.924  1.00  0.00     0.249 C 
HETATM   16  O1  UNL     1      26.420  -2.202  52.106  1.00  0.00    -0.268 OA
HETATM   17  N1  UNL     1      28.477  -1.724  53.189  1.00  0.00    -0.331 N 
HETATM   18  C2  UNL     1      29.252  -0.586  53.643  1.00  0.00     0.223 C 
HETATM   19  H1  UNL     1      28.850  -2.684  53.039  1.00  0.00     0.165 HD
HETATM   20  C3  UNL     1      28.540   0.068  54.785  1.00  0.00     0.081 C 
HETATM   21  C4  UNL     1      27.112   0.269  54.500  1.00  0.00    -0.010 C 
BRANCH  18  22
HETATM   22  O2  UNL     1      30.492  -1.044  54.079  1.00  0.00    -0.377 OA
HETATM   23  H3  UNL     1      31.119  -0.282  53.915  1.00  0.00     0.212 HD
ENDBRANCH  18  22
ENDBRANCH  13  14
ENDBRANCH   1  13
TORSDOF 3
ENDMDL
MODEL 7
REMARK VINA RESULT:      -7.6      1.657      2.330
REMARK  3 active torsions:
REMARK  status: ('A' for Active; 'I' for Inactive)
REMARK    1  A    between atoms: C2_4  and  O2_5 
REMARK    2  A    between atoms: C5_8  and  C6_9 
REMARK    3  A    between atoms: C6_9  and  C7_10 
ROOT
HETATM    1  C7  UNL     1      24.344   1.369  52.542  1.00  0.00     0.035 A 
HETATM    2  C8  UNL     1      23.739   1.732  51.309  1.00  0.00     0.364 A 
HETATM    3  N2  UNL     1      22.446   1.485  51.047  1.00  0.00    -0.027 NA
HETATM    4  C9  UNL     1      21.441   0.938  51.666  1.00  0.00     0.408 A 
HETATM    5  N3  UNL     1      22.586   1.093  52.049  1.00  0.00     0.129 N 
HETATM    6  C10 UNL     1      23.244   0.813  53.119  1.00  0.00     0.284 A 
HETATM    7  O3  UNL     1      23.284   0.258  54.428  1.00  0.00    -0.258 OA
HETATM    8  C11 UNL     1      22.475  -0.859  54.870  1.00  0.00     0.233 C 
HETATM    9  F1  UNL     1      23.031  -1.482  55.888  1.00  0.00    -0.178 F 
HETATM   10  C12 UNL     1      21.285  -1.273  54.349  1.00  0.00     0.088 C 
HETATM   11  C13 UNL     1      20.520  -0.914  53.122  1.00  0.00     0.120 C 
HETATM   12  N4  UNL     1      20.565   0.294  52.546  1.00  0.00    -0.239 NA
ENDROOT
BRANCH   1  13
HETATM   13  C6  UNL     1      25.510   1.307  53.450  1.00  0.00     0.086 C 
BRANCH  13  14
HETATM   14  C5  UNL     1      26.327   0.070  53.181  1.00  0.00     0.010 C 
HETATM   15  C1  UNL     1      27.528  -0.091  53.990  1.00  0.00     0.249 C 
HETATM   16  O1  UNL     1      27.802   0.795  54.837  1.00  0.00    -0.268 OA
HETATM   17  N1  UNL     1      28.336  -1.259  53.773  1.00  0.00    -0.331 N 
HETATM   18  C2  UNL     1      27.678  -2.443  53.259  1.00  0.00     0.223 C 
HETATM   19  H1  UNL     1      29.349  -1.183  54.000  1.00  0.00     0.165 HD
HETATM   20  C3  UNL     1      26.868  -2.073  52.058  1.00  0.00     0.081 C 
HETATM   21  C4  UNL     1      26.053  -0.872  52.293  1.00  0.00    -0.010 C 
BRANCH  18  22
HETATM   22  O2  UNL     1      28.655  -3.363  52.887  1.00  0.00    -0.377 OA
HETATM   23  H3  UNL     1      29.492  -3.041  53.330  1.00  0.00     0.212 HD
ENDBRANCH  18  22
ENDBRANCH  13  14
ENDBRANCH   1  13
TORSDOF 3
ENDMDL
MODEL 8
REMARK VINA RESULT:      -7.6      3.686      6.222
REMARK  3 active torsions:
REMARK  status: ('A' for Active; 'I' for Inactive)
REMARK    1  A    between atoms: C2_4  and  O2_5 
REMARK    2  A    between atoms: C5_8  and  C6_9 
REMARK    3  A    between atoms: C6_9  and  C7_10 
ROOT
HETATM    1  C7  UNL     1      24.581   1.725  53.191  1.00  0.00     0.035 A 
HETATM    2  C8  UNL     1      23.996   0.440  53.034  1.00  0.00     0.364 A 
HETATM    3  N2  UNL     1      24.686  -0.691  53.249  1.00  0.00    -0.027 NA
HETATM    4  C9  UNL     1      25.895  -1.010  53.609  1.00  0.00     0.408 A 
HETATM    5  N3  UNL     1      25.406   0.095  53.453  1.00  0.00     0.129 N 
HETATM    6  C10 UNL     1      25.821   1.307  53.560  1.00  0.00     0.284 A 
HETATM    7  O3  UNL     1      26.865   2.228  53.854  1.00  0.00    -0.258 OA
HETATM    8  C11 UNL     1      28.273   1.975  53.620  1.00  0.00     0.233 C 
HETATM    9  F1  UNL     1      28.948   3.098  53.492  1.00  0.00    -0.178 F 
HETATM   10  C12 UNL     1      28.889   0.762  53.531  1.00  0.00     0.088 C 
HETATM   11  C13 UNL     1      28.391  -0.639  53.441  1.00  0.00     0.120 C 
HETATM   12  N4  UNL     1      27.241  -1.055  53.986  1.00  0.00    -0.239 NA
ENDROOT
BRANCH   1  13
HETATM   13  C6  UNL     1      24.504   3.201  53.155  1.00  0.00     0.086 C 
BRANCH  13  14
HETATM   14  C5  UNL     1      24.239   3.686  51.753  1.00  0.00     0.010 C 
HETATM   15  C1  UNL     1      23.078   4.549  51.584  1.00  0.00     0.249 C 
HETATM   16  O1  UNL     1      22.384   4.824  52.595  1.00  0.00    -0.268 OA
HETATM   17  N1  UNL     1      22.789   5.041  50.266  1.00  0.00    -0.331 N 
HETATM   18  C2  UNL     1      23.898   5.175  49.342  1.00  0.00     0.223 C 
HETATM   19  H1  UNL     1      21.796   5.272  50.053  1.00  0.00     0.165 HD
HETATM   20  C3  UNL     1      24.677   3.898  49.322  1.00  0.00     0.081 C 
HETATM   21  C4  UNL     1      24.959   3.405  50.678  1.00  0.00    -0.010 C 
BRANCH  18  22
HETATM   22  O2  UNL     1      23.384   5.417  48.070  1.00  0.00    -0.377 OA
HETATM   23  H3  UNL     1      22.484   5.821  48.230  1.00  0.00     0.212 HD
ENDBRANCH  18  22
ENDBRANCH  13  14
ENDBRANCH   1  13
TORSDOF 3
ENDMDL
MODEL 9
REMARK VINA RESULT:      -7.5      2.406      3.442
REMARK  3 active torsions:
REMARK  status: ('A' for Active; 'I' for Inactive)
REMARK    1  A    between atoms: C2_4  and  O2_5 
REMARK    2  A    between atoms: C5_8  and  C6_9 
REMARK    3  A    between atoms: C6_9  and  C7_10 
ROOT
HETATM    1  C7  UNL     1      25.925   2.180  52.262  1.00  0.00     0.035 A 
HETATM    2  C8  UNL     1      26.406   2.814  51.085  1.00  0.00     0.364 A 
HETATM    3  N2  UNL     1      25.580   3.362  50.180  1.00  0.00    -0.027 NA
HETATM    4  C9  UNL     1      24.296   3.508  50.035  1.00  0.00     0.408 A 
HETATM    5  N3  UNL     1      24.910   2.972  50.939  1.00  0.00     0.129 N 
HETATM    6  C10 UNL     1      24.598   2.375  52.035  1.00  0.00     0.284 A 
HETATM    7  O3  UNL     1      23.606   1.915  52.945  1.00  0.00    -0.258 OA
HETATM    8  C11 UNL     1      22.278   1.481  52.561  1.00  0.00     0.233 C 
HETATM    9  F1  UNL     1      21.763   0.663  53.454  1.00  0.00    -0.178 F 
HETATM   10  C12 UNL     1      21.589   1.831  51.438  1.00  0.00     0.088 C 
HETATM   11  C13 UNL     1      21.959   2.554  50.190  1.00  0.00     0.120 C 
HETATM   12  N4  UNL     1      22.900   3.505  50.133  1.00  0.00    -0.239 NA
ENDROOT
BRANCH   1  13
HETATM   13  C6  UNL     1      26.147   1.462  53.536  1.00  0.00     0.086 C 
BRANCH  13  14
HETATM   14  C5  UNL     1      26.814   0.133  53.286  1.00  0.00     0.010 C 
HETATM   15  C1  UNL     1      28.061  -0.100  54.003  1.00  0.00     0.249 C 
HETATM   16  O1  UNL     1      28.493   0.802  54.762  1.00  0.00    -0.268 OA
HETATM   17  N1  UNL     1      28.729  -1.356  53.801  1.00  0.00    -0.331 N 
HETATM   18  C2  UNL     1      27.917  -2.495  53.425  1.00  0.00     0.223 C 
HETATM   19  H1  UNL     1      29.761  -1.371  53.938  1.00  0.00     0.165 HD
HETATM   20  C3  UNL     1      27.044  -2.117  52.271  1.00  0.00     0.081 C 
HETATM   21  C4  UNL     1      26.372  -0.827  52.490  1.00  0.00    -0.010 C 
BRANCH  18  22
HETATM   22  O2  UNL     1      28.764  -3.531  53.038  1.00  0.00    -0.377 OA
HETATM   23  H3  UNL     1      29.098  -3.922  53.895  1.00  0.00     0.212 HD
ENDBRANCH  18  22
ENDBRANCH  13  14
ENDBRANCH   1  13
TORSDOF 3
ENDMDL
