MODEL 1
REMARK VINA RESULT:      -8.1      0.000      0.000
REMARK  6 active torsions:
REMARK  status: ('A' for Active; 'I' for Inactive)
REMARK    1  A    between atoms: C3_3  and  C4_4 
REMARK    2  A    between atoms: C5_5  and  C6_6 
REMARK    3  A    between atoms: C7_7  and  C8_8 
REMARK    4  A    between atoms: C9_9  and  C10_10 
REMARK    5  A    between atoms: N2_17  and  C16_18 
REMARK    6  A    between atoms: C17_20  and  O1_21 
ROOT
HETATM    1  C1  UNL     1      28.591   8.242  47.394  1.00  0.00     0.112 C 
HETATM    2  C2  UNL     1      27.774   7.149  47.974  1.00  0.00    -0.106 C 
HETATM    3  C3  UNL     1      27.117   6.248  48.430  1.00  0.00    -0.079 C 
ENDROOT
BRANCH   3   4
HETATM    4  C4  UNL     1      26.325   5.179  48.975  1.00  0.00     0.064 C 
HETATM    5  C5  UNL     1      26.906   4.058  49.313  1.00  0.00     0.009 C 
BRANCH   5   6
HETATM    6  C6  UNL     1      26.132   2.931  49.876  1.00  0.00    -0.001 C 
HETATM    7  C7  UNL     1      26.372   2.343  51.034  1.00  0.00     0.007 C 
BRANCH   7   8
HETATM    8  C8  UNL     1      25.622   1.230  51.606  1.00  0.00     0.190 A 
HETATM    9  C9  UNL     1      24.640   1.698  52.614  1.00  0.00     0.093 A 
HETATM   10  N1  UNL     1      25.170   1.140  53.675  1.00  0.00    -0.171 NA
HETATM   11  N2  UNL     1      26.164   0.637  52.802  1.00  0.00    -0.231 N 
BRANCH   9  12
HETATM   12  C10 UNL     1      23.437   2.520  52.546  1.00  0.00    -0.007 A 
HETATM   13  C11 UNL     1      23.489   3.883  52.498  1.00  0.00     0.013 A 
HETATM   14  C12 UNL     1      22.342   4.649  52.434  1.00  0.00     0.001 A 
HETATM   15  C13 UNL     1      21.080   4.075  52.417  1.00  0.00     0.000 A 
HETATM   16  C14 UNL     1      21.016   2.678  52.468  1.00  0.00     0.001 A 
HETATM   17  C15 UNL     1      22.177   1.937  52.531  1.00  0.00     0.013 A 
ENDBRANCH   9  12
BRANCH  11  18
HETATM   18  C16 UNL     1      27.314  -0.197  53.126  1.00  0.00     0.192 A 
HETATM   19  N3  UNL     1      27.574  -1.387  53.150  1.00  0.00    -0.198 NA
HETATM   20  C17 UNL     1      28.785  -1.828  53.512  1.00  0.00     0.171 A 
HETATM   21  C18 UNL     1      29.814  -0.770  53.892  1.00  0.00     0.111 A 
HETATM   22  S1  UNL     1      28.735   0.766  53.628  1.00  0.00    -0.058 SA
BRANCH  20  23
HETATM   23  O1  UNL     1      28.857  -3.227  53.464  1.00  0.00    -0.344 OA
HETATM   24  H14 UNL     1      28.915  -3.777  52.639  1.00  0.00     0.219 HD
ENDBRANCH  20  23
ENDBRANCH  11  18
ENDBRANCH   7   8
ENDBRANCH   5   6
ENDBRANCH   3   4
TORSDOF 6
ENDMDL
MODEL 2
REMARK VINA RESULT:      -7.8      3.158      5.896
REMARK  6 active torsions:
REMARK  status: ('A' for Active; 'I' for Inactive)
REMARK    1  A    between atoms: C3_3  and  C4_4 
REMARK    2  A    between atoms: C5_5  and  C6_6 
REMARK    3  A    between atoms: C7_7  and  C8_8 
REMARK    4  A    between atoms: C9_9  and  C10_10 
REMARK    5  A    between atoms: N2_17  and  C16_18 
REMARK    6  A    between atoms: C17_20  and  O1_21 
ROOT
HETATM    1  C1  UNL     1      27.204   6.915  47.704  1.00  0.00     0.112 C 
HETATM    2  C2  UNL     1      27.002   5.710  48.545  1.00  0.00    -0.106 C 
HETATM    3  C3  UNL     1      26.820   4.728  49.218  1.00  0.00    -0.079 C 
ENDROOT
BRANCH   3   4
HETATM    4  C4  UNL     1      26.604   3.562  50.031  1.00  0.00     0.064 C 
HETATM    5  C5  UNL     1      25.449   3.395  50.618  1.00  0.00     0.009 C 
BRANCH   5   6
HETATM    6  C6  UNL     1      25.181   2.212  51.463  1.00  0.00    -0.001 C 
HETATM    7  C7  UNL     1      25.209   2.194  52.783  1.00  0.00     0.007 C 
BRANCH   7   8
HETATM    8  C8  UNL     1      24.948   1.038  53.635  1.00  0.00     0.190 A 
HETATM    9  C9  UNL     1      25.846  -0.095  53.302  1.00  0.00     0.093 A 
HETATM   10  N1  UNL     1      24.942  -0.935  52.860  1.00  0.00    -0.171 NA
HETATM   11  N2  UNL     1      23.994   0.078  53.140  1.00  0.00    -0.231 N 
BRANCH   9  12
HETATM   12  C10 UNL     1      27.286  -0.305  53.398  1.00  0.00    -0.007 A 
HETATM   13  C11 UNL     1      28.143   0.689  53.773  1.00  0.00     0.013 A 
HETATM   14  C12 UNL     1      29.504   0.477  53.860  1.00  0.00     0.001 A 
HETATM   15  C13 UNL     1      30.071  -0.755  53.571  1.00  0.00     0.000 A 
HETATM   16  C14 UNL     1      29.202  -1.781  53.185  1.00  0.00     0.001 A 
HETATM   17  C15 UNL     1      27.846  -1.542  53.106  1.00  0.00     0.013 A 
ENDBRANCH   9  12
BRANCH  11  18
HETATM   18  C16 UNL     1      22.551   0.044  52.946  1.00  0.00     0.192 A 
HETATM   19  N3  UNL     1      21.761   0.333  52.065  1.00  0.00    -0.198 NA
HETATM   20  C17 UNL     1      20.444   0.167  52.227  1.00  0.00     0.171 A 
HETATM   21  C18 UNL     1      19.985  -0.399  53.566  1.00  0.00     0.111 A 
HETATM   22  S1  UNL     1      21.686  -0.589  54.379  1.00  0.00    -0.058 SA
BRANCH  20  23
HETATM   23  O1  UNL     1      19.732   0.563  51.087  1.00  0.00    -0.344 OA
HETATM   24  H14 UNL     1      19.091   1.320  51.037  1.00  0.00     0.219 HD
ENDBRANCH  20  23
ENDBRANCH  11  18
ENDBRANCH   7   8
ENDBRANCH   5   6
ENDBRANCH   3   4
TORSDOF 6
ENDMDL
MODEL 3
REMARK VINA RESULT:      -7.7      2.308      2.901
REMARK  6 active torsions:
REMARK  status: ('A' for Active; 'I' for Inactive)
REMARK    1  A    between atoms: C3_3  and  C4_4 
REMARK    2  A    between atoms: C5_5  and  C6_6 
REMARK    3  A    between atoms: C7_7  and  C8_8 
REMARK    4  A    between atoms: C9_9  and  C10_10 
REMARK    5  A    between atoms: N2_17  and  C16_18 
REMARK    6  A    between atoms: C17_20  and  O1_21 
ROOT
HETATM    1  C1  UNL     1      25.411   7.963  47.922  1.00  0.00     0.112 C 
HETATM    2  C2  UNL     1      25.712   6.642  48.525  1.00  0.00    -0.106 C 
HETATM    3  C3  UNL     1      25.967   5.564  48.998  1.00  0.00    -0.079 C 
ENDROOT
BRANCH   3   4
HETATM    4  C4  UNL     1      26.261   4.275  49.564  1.00  0.00     0.064 C 
HETATM    5  C5  UNL     1      25.420   3.739  50.409  1.00  0.00     0.009 C 
BRANCH   5   6
HETATM    6  C6  UNL     1      25.679   2.417  51.017  1.00  0.00    -0.001 C 
HETATM    7  C7  UNL     1      24.803   1.706  51.702  1.00  0.00     0.007 C 
BRANCH   7   8
HETATM    8  C8  UNL     1      25.040   0.401  52.311  1.00  0.00     0.190 A 
HETATM    9  C9  UNL     1      24.038   0.102  53.362  1.00  0.00     0.093 A 
HETATM   10  N1  UNL     1      24.841   0.094  54.398  1.00  0.00    -0.171 NA
HETATM   11  N2  UNL     1      25.880   0.381  53.481  1.00  0.00    -0.231 N 
BRANCH   9  12
HETATM   12  C10 UNL     1      22.598  -0.127  53.350  1.00  0.00    -0.007 A 
HETATM   13  C11 UNL     1      21.747   0.629  52.597  1.00  0.00     0.013 A 
HETATM   14  C12 UNL     1      20.385   0.401  52.594  1.00  0.00     0.001 A 
HETATM   15  C13 UNL     1      19.812  -0.604  53.356  1.00  0.00     0.000 A 
HETATM   16  C14 UNL     1      20.675  -1.385  54.133  1.00  0.00     0.001 A 
HETATM   17  C15 UNL     1      22.031  -1.137  54.117  1.00  0.00     0.013 A 
ENDBRANCH   9  12
BRANCH  11  18
HETATM   18  C16 UNL     1      27.298   0.573  53.753  1.00  0.00     0.192 A 
HETATM   19  N3  UNL     1      28.006   1.443  54.228  1.00  0.00    -0.198 NA
HETATM   20  C17 UNL     1      29.330   1.284  54.334  1.00  0.00     0.171 A 
HETATM   21  C18 UNL     1      29.904  -0.036  53.830  1.00  0.00     0.111 A 
HETATM   22  S1  UNL     1      28.283  -0.838  53.262  1.00  0.00    -0.058 SA
BRANCH  20  23
HETATM   23  O1  UNL     1      29.939   2.408  54.908  1.00  0.00    -0.344 OA
HETATM   24  H14 UNL     1      29.474   3.120  55.421  1.00  0.00     0.219 HD
ENDBRANCH  20  23
ENDBRANCH  11  18
ENDBRANCH   7   8
ENDBRANCH   5   6
ENDBRANCH   3   4
TORSDOF 6
ENDMDL
MODEL 4
REMARK VINA RESULT:      -7.7      1.798      2.103
REMARK  6 active torsions:
REMARK  status: ('A' for Active; 'I' for Inactive)
REMARK    1  A    between atoms: C3_3  and  C4_4 
REMARK    2  A    between atoms: C5_5  and  C6_6 
REMARK    3  A    between atoms: C7_7  and  C8_8 
REMARK    4  A    between atoms: C9_9  and  C10_10 
REMARK    5  A    between atoms: N2_17  and  C16_18 
REMARK    6  A    between atoms: C17_20  and  O1_21 
ROOT
HETATM    1  C1  UNL     1      28.132   8.487  47.024  1.00  0.00     0.112 C 
HETATM    2  C2  UNL     1      28.002   7.139  47.629  1.00  0.00    -0.106 C 
HETATM    3  C3  UNL     1      27.876   6.047  48.122  1.00  0.00    -0.079 C 
ENDROOT
BRANCH   3   4
HETATM    4  C4  UNL     1      27.733   4.746  48.717  1.00  0.00     0.064 C 
HETATM    5  C5  UNL     1      26.645   4.462  49.381  1.00  0.00     0.009 C 
BRANCH   5   6
HETATM    6  C6  UNL     1      26.453   3.138  50.011  1.00  0.00    -0.001 C 
HETATM    7  C7  UNL     1      25.452   2.808  50.806  1.00  0.00     0.007 C 
BRANCH   7   8
HETATM    8  C8  UNL     1      25.245   1.508  51.437  1.00  0.00     0.190 A 
HETATM    9  C9  UNL     1      24.007   1.491  52.253  1.00  0.00     0.093 A 
HETATM   10  N1  UNL     1      24.556   1.339  53.434  1.00  0.00    -0.171 NA
HETATM   11  N2  UNL     1      25.798   1.341  52.757  1.00  0.00    -0.231 N 
BRANCH   9  12
HETATM   12  C10 UNL     1      22.588   1.602  51.938  1.00  0.00    -0.007 A 
HETATM   13  C11 UNL     1      21.889   2.760  52.123  1.00  0.00     0.013 A 
HETATM   14  C12 UNL     1      20.545   2.851  51.820  1.00  0.00     0.001 A 
HETATM   15  C13 UNL     1      19.837   1.773  51.313  1.00  0.00     0.000 A 
HETATM   16  C14 UNL     1      20.543   0.581  51.120  1.00  0.00     0.001 A 
HETATM   17  C15 UNL     1      21.885   0.517  51.431  1.00  0.00     0.013 A 
ENDBRANCH   9  12
BRANCH  11  18
HETATM   18  C16 UNL     1      27.136   1.209  53.321  1.00  0.00     0.192 A 
HETATM   19  N3  UNL     1      27.952   1.935  53.860  1.00  0.00    -0.198 NA
HETATM   20  C17 UNL     1      29.135   1.466  54.275  1.00  0.00     0.171 A 
HETATM   21  C18 UNL     1      29.406  -0.015  54.038  1.00  0.00     0.111 A 
HETATM   22  S1  UNL     1      27.766  -0.461  53.198  1.00  0.00    -0.058 SA
BRANCH  20  23
HETATM   23  O1  UNL     1      29.909   2.475  54.864  1.00  0.00    -0.344 OA
HETATM   24  H14 UNL     1      30.814   2.757  54.569  1.00  0.00     0.219 HD
ENDBRANCH  20  23
ENDBRANCH  11  18
ENDBRANCH   7   8
ENDBRANCH   5   6
ENDBRANCH   3   4
TORSDOF 6
ENDMDL
MODEL 5
REMARK VINA RESULT:      -6.9      4.008      6.686
REMARK  6 active torsions:
REMARK  status: ('A' for Active; 'I' for Inactive)
REMARK    1  A    between atoms: C3_3  and  C4_4 
REMARK    2  A    between atoms: C5_5  and  C6_6 
REMARK    3  A    between atoms: C7_7  and  C8_8 
REMARK    4  A    between atoms: C9_9  and  C10_10 
REMARK    5  A    between atoms: N2_17  and  C16_18 
REMARK    6  A    between atoms: C17_20  and  O1_21 
ROOT
HETATM    1  C1  UNL     1      29.977  -1.317  53.800  1.00  0.00     0.112 C 
HETATM    2  C2  UNL     1      28.858  -0.376  53.553  1.00  0.00    -0.106 C 
HETATM    3  C3  UNL     1      27.963   0.403  53.344  1.00  0.00    -0.079 C 
ENDROOT
BRANCH   3   4
HETATM    4  C4  UNL     1      26.891   1.331  53.105  1.00  0.00     0.064 C 
HETATM    5  C5  UNL     1      26.121   1.166  52.062  1.00  0.00     0.009 C 
BRANCH   5   6
HETATM    6  C6  UNL     1      25.007   2.094  51.775  1.00  0.00    -0.001 C 
HETATM    7  C7  UNL     1      24.377   2.831  52.671  1.00  0.00     0.007 C 
BRANCH   7   8
HETATM    8  C8  UNL     1      23.276   3.752  52.408  1.00  0.00     0.190 A 
HETATM    9  C9  UNL     1      22.215   3.112  51.592  1.00  0.00     0.093 A 
HETATM   10  N1  UNL     1      22.333   3.845  50.512  1.00  0.00    -0.171 NA
HETATM   11  N2  UNL     1      23.364   4.529  51.198  1.00  0.00    -0.231 N 
BRANCH   9  12
HETATM   12  C10 UNL     1      21.286   2.012  51.827  1.00  0.00    -0.007 A 
HETATM   13  C11 UNL     1      21.333   1.248  52.956  1.00  0.00     0.013 A 
HETATM   14  C12 UNL     1      20.446   0.210  53.165  1.00  0.00     0.001 A 
HETATM   15  C13 UNL     1      19.466  -0.109  52.239  1.00  0.00     0.000 A 
HETATM   16  C14 UNL     1      19.410   0.667  51.077  1.00  0.00     0.001 A 
HETATM   17  C15 UNL     1      20.307   1.698  50.893  1.00  0.00     0.013 A 
ENDBRANCH   9  12
BRANCH  11  18
HETATM   18  C16 UNL     1      24.179   5.642  50.728  1.00  0.00     0.192 A 
HETATM   19  N3  UNL     1      25.324   5.812  50.348  1.00  0.00    -0.198 NA
HETATM   20  C17 UNL     1      25.762   7.019  49.972  1.00  0.00     0.171 A 
HETATM   21  C18 UNL     1      24.759   8.165  50.046  1.00  0.00     0.111 A 
HETATM   22  S1  UNL     1      23.272   7.184  50.694  1.00  0.00    -0.058 SA
BRANCH  20  23
HETATM   23  O1  UNL     1      27.105   6.976  49.573  1.00  0.00    -0.344 OA
HETATM   24  H14 UNL     1      27.851   7.476  49.996  1.00  0.00     0.219 HD
ENDBRANCH  20  23
ENDBRANCH  11  18
ENDBRANCH   7   8
ENDBRANCH   5   6
ENDBRANCH   3   4
TORSDOF 6
ENDMDL
MODEL 6
REMARK VINA RESULT:      -6.9      2.938      3.613
REMARK  6 active torsions:
REMARK  status: ('A' for Active; 'I' for Inactive)
REMARK    1  A    between atoms: C3_3  and  C4_4 
REMARK    2  A    between atoms: C5_5  and  C6_6 
REMARK    3  A    between atoms: C7_7  and  C8_8 
REMARK    4  A    between atoms: C9_9  and  C10_10 
REMARK    5  A    between atoms: N2_17  and  C16_18 
REMARK    6  A    between atoms: C17_20  and  O1_21 
ROOT
HETATM    1  C1  UNL     1      22.384   7.700  48.475  1.00  0.00     0.112 C 
HETATM    2  C2  UNL     1      22.613   6.345  49.035  1.00  0.00    -0.106 C 
HETATM    3  C3  UNL     1      22.783   5.249  49.503  1.00  0.00    -0.079 C 
ENDROOT
BRANCH   3   4
HETATM    4  C4  UNL     1      22.996   3.942  50.064  1.00  0.00     0.064 C 
HETATM    5  C5  UNL     1      24.167   3.375  49.940  1.00  0.00     0.009 C 
BRANCH   5   6
HETATM    6  C6  UNL     1      24.433   2.033  50.498  1.00  0.00    -0.001 C 
HETATM    7  C7  UNL     1      24.683   1.770  51.768  1.00  0.00     0.007 C 
BRANCH   7   8
HETATM    8  C8  UNL     1      24.949   0.452  52.339  1.00  0.00     0.190 A 
HETATM    9  C9  UNL     1      23.971   0.113  53.401  1.00  0.00     0.093 A 
HETATM   10  N1  UNL     1      24.793   0.091  54.421  1.00  0.00    -0.171 NA
HETATM   11  N2  UNL     1      25.811   0.415  53.493  1.00  0.00    -0.231 N 
BRANCH   9  12
HETATM   12  C10 UNL     1      22.534  -0.135  53.409  1.00  0.00    -0.007 A 
HETATM   13  C11 UNL     1      21.974  -1.145  54.136  1.00  0.00     0.013 A 
HETATM   14  C12 UNL     1      20.611  -1.369  54.134  1.00  0.00     0.001 A 
HETATM   15  C13 UNL     1      19.743  -0.581  53.395  1.00  0.00     0.000 A 
HETATM   16  C14 UNL     1      20.307   0.457  52.645  1.00  0.00     0.001 A 
HETATM   17  C15 UNL     1      21.671   0.659  52.665  1.00  0.00     0.013 A 
ENDBRANCH   9  12
BRANCH  11  18
HETATM   18  C16 UNL     1      27.232   0.619  53.743  1.00  0.00     0.192 A 
HETATM   19  N3  UNL     1      27.940   1.499  54.200  1.00  0.00    -0.198 NA
HETATM   20  C17 UNL     1      29.266   1.350  54.289  1.00  0.00     0.171 A 
HETATM   21  C18 UNL     1      29.842   0.030  53.789  1.00  0.00     0.111 A 
HETATM   22  S1  UNL     1      28.219  -0.789  53.251  1.00  0.00    -0.058 SA
BRANCH  20  23
HETATM   23  O1  UNL     1      29.874   2.484  54.845  1.00  0.00    -0.344 OA
HETATM   24  H14 UNL     1      30.590   3.025  54.419  1.00  0.00     0.219 HD
ENDBRANCH  20  23
ENDBRANCH  11  18
ENDBRANCH   7   8
ENDBRANCH   5   6
ENDBRANCH   3   4
TORSDOF 6
ENDMDL
MODEL 7
REMARK VINA RESULT:      -6.9      2.167      2.694
REMARK  6 active torsions:
REMARK  status: ('A' for Active; 'I' for Inactive)
REMARK    1  A    between atoms: C3_3  and  C4_4 
REMARK    2  A    between atoms: C5_5  and  C6_6 
REMARK    3  A    between atoms: C7_7  and  C8_8 
REMARK    4  A    between atoms: C9_9  and  C10_10 
REMARK    5  A    between atoms: N2_17  and  C16_18 
REMARK    6  A    between atoms: C17_20  and  O1_21 
ROOT
HETATM    1  C1  UNL     1      30.922   7.726  46.786  1.00  0.00     0.112 C 
HETATM    2  C2  UNL     1      29.958   6.787  47.409  1.00  0.00    -0.106 C 
HETATM    3  C3  UNL     1      29.187   6.023  47.932  1.00  0.00    -0.079 C 
ENDROOT
BRANCH   3   4
HETATM    4  C4  UNL     1      28.268   5.104  48.547  1.00  0.00     0.064 C 
HETATM    5  C5  UNL     1      27.016   5.450  48.688  1.00  0.00     0.009 C 
BRANCH   5   6
HETATM    6  C6  UNL     1      26.034   4.539  49.315  1.00  0.00    -0.001 C 
HETATM    7  C7  UNL     1      26.311   3.633  50.234  1.00  0.00     0.007 C 
BRANCH   7   8
HETATM    8  C8  UNL     1      25.357   2.725  50.864  1.00  0.00     0.190 A 
HETATM    9  C9  UNL     1      24.233   3.465  51.487  1.00  0.00     0.093 A 
HETATM   10  N1  UNL     1      24.475   3.165  52.740  1.00  0.00    -0.171 NA
HETATM   11  N2  UNL     1      25.579   2.424  52.255  1.00  0.00    -0.231 N 
BRANCH   9  12
HETATM   12  C10 UNL     1      23.153   4.292  50.962  1.00  0.00    -0.007 A 
HETATM   13  C11 UNL     1      22.336   3.868  49.954  1.00  0.00     0.013 A 
HETATM   14  C12 UNL     1      21.317   4.661  49.466  1.00  0.00     0.001 A 
HETATM   15  C13 UNL     1      21.072   5.928  49.972  1.00  0.00     0.000 A 
HETATM   16  C14 UNL     1      21.904   6.373  51.005  1.00  0.00     0.001 A 
HETATM   17  C15 UNL     1      22.914   5.560  51.475  1.00  0.00     0.013 A 
ENDBRANCH   9  12
BRANCH  11  18
HETATM   18  C16 UNL     1      26.553   1.651  53.015  1.00  0.00     0.192 A 
HETATM   19  N3  UNL     1      27.395   1.867  53.868  1.00  0.00    -0.198 NA
HETATM   20  C17 UNL     1      28.148   0.882  54.371  1.00  0.00     0.171 A 
HETATM   21  C18 UNL     1      27.899  -0.518  53.821  1.00  0.00     0.111 A 
HETATM   22  S1  UNL     1      26.519  -0.088  52.594  1.00  0.00    -0.058 SA
BRANCH  20  23
HETATM   23  O1  UNL     1      29.044   1.361  55.336  1.00  0.00    -0.344 OA
HETATM   24  H14 UNL     1      30.034   1.349  55.264  1.00  0.00     0.219 HD
ENDBRANCH  20  23
ENDBRANCH  11  18
ENDBRANCH   7   8
ENDBRANCH   5   6
ENDBRANCH   3   4
TORSDOF 6
ENDMDL
MODEL 8
REMARK VINA RESULT:      -6.8      6.829     10.922
REMARK  6 active torsions:
REMARK  status: ('A' for Active; 'I' for Inactive)
REMARK    1  A    between atoms: C3_3  and  C4_4 
REMARK    2  A    between atoms: C5_5  and  C6_6 
REMARK    3  A    between atoms: C7_7  and  C8_8 
REMARK    4  A    between atoms: C9_9  and  C10_10 
REMARK    5  A    between atoms: N2_17  and  C16_18 
REMARK    6  A    between atoms: C17_20  and  O1_21 
ROOT
HETATM    1  C1  UNL     1      23.973   2.909  50.010  1.00  0.00     0.112 C 
HETATM    2  C2  UNL     1      25.228   3.575  49.584  1.00  0.00    -0.106 C 
HETATM    3  C3  UNL     1      26.236   4.126  49.223  1.00  0.00    -0.079 C 
ENDROOT
BRANCH   3   4
HETATM    4  C4  UNL     1      27.445   4.774  48.791  1.00  0.00     0.064 C 
HETATM    5  C5  UNL     1      27.415   6.041  48.475  1.00  0.00     0.009 C 
BRANCH   5   6
HETATM    6  C6  UNL     1      28.632   6.749  48.026  1.00  0.00    -0.001 C 
HETATM    7  C7  UNL     1      28.749   7.429  46.899  1.00  0.00     0.007 C 
BRANCH   7   8
HETATM    8  C8  UNL     1      29.941   8.133  46.438  1.00  0.00     0.190 A 
HETATM    9  C9  UNL     1      31.179   7.499  46.950  1.00  0.00     0.093 A 
HETATM   10  N1  UNL     1      31.595   8.476  47.718  1.00  0.00    -0.171 NA
HETATM   11  N2  UNL     1      30.441   9.178  47.295  1.00  0.00    -0.231 N 
BRANCH   9  12
HETATM   12  C10 UNL     1      31.817   6.205  46.731  1.00  0.00    -0.007 A 
HETATM   13  C11 UNL     1      31.752   5.197  47.649  1.00  0.00     0.013 A 
HETATM   14  C12 UNL     1      32.361   3.978  47.428  1.00  0.00     0.001 A 
HETATM   15  C13 UNL     1      33.068   3.715  46.266  1.00  0.00     0.000 A 
HETATM   16  C14 UNL     1      33.141   4.741  45.319  1.00  0.00     0.001 A 
HETATM   17  C15 UNL     1      32.524   5.950  45.564  1.00  0.00     0.013 A 
ENDBRANCH   9  12
BRANCH  11  18
HETATM   18  C16 UNL     1      30.007  10.517  47.674  1.00  0.00     0.192 A 
HETATM   19  N3  UNL     1      29.420  11.033  48.607  1.00  0.00    -0.198 NA
HETATM   20  C17 UNL     1      29.177  12.349  48.636  1.00  0.00     0.171 A 
HETATM   21  C18 UNL     1      29.671  13.162  47.445  1.00  0.00     0.111 A 
HETATM   22  S1  UNL     1      30.445  11.746  46.450  1.00  0.00    -0.058 SA
BRANCH  20  23
HETATM   23  O1  UNL     1      28.492  12.720  49.801  1.00  0.00    -0.344 OA
HETATM   24  H14 UNL     1      27.653  12.308  50.137  1.00  0.00     0.219 HD
ENDBRANCH  20  23
ENDBRANCH  11  18
ENDBRANCH   7   8
ENDBRANCH   5   6
ENDBRANCH   3   4
TORSDOF 6
ENDMDL
MODEL 9
REMARK VINA RESULT:      -6.7      3.635      6.042
REMARK  6 active torsions:
REMARK  status: ('A' for Active; 'I' for Inactive)
REMARK    1  A    between atoms: C3_3  and  C4_4 
REMARK    2  A    between atoms: C5_5  and  C6_6 
REMARK    3  A    between atoms: C7_7  and  C8_8 
REMARK    4  A    between atoms: C9_9  and  C10_10 
REMARK    5  A    between atoms: N2_17  and  C16_18 
REMARK    6  A    between atoms: C17_20  and  O1_21 
ROOT
HETATM    1  C1  UNL     1      29.190   7.525  46.877  1.00  0.00     0.112 C 
HETATM    2  C2  UNL     1      28.249   6.756  47.728  1.00  0.00    -0.106 C 
HETATM    3  C3  UNL     1      27.486   6.146  48.433  1.00  0.00    -0.079 C 
ENDROOT
BRANCH   3   4
HETATM    4  C4  UNL     1      26.581   5.410  49.273  1.00  0.00     0.064 C 
HETATM    5  C5  UNL     1      26.691   4.110  49.349  1.00  0.00     0.009 C 
BRANCH   5   6
HETATM    6  C6  UNL     1      25.784   3.311  50.199  1.00  0.00    -0.001 C 
HETATM    7  C7  UNL     1      25.288   3.696  51.361  1.00  0.00     0.007 C 
BRANCH   7   8
HETATM    8  C8  UNL     1      24.392   2.922  52.215  1.00  0.00     0.190 A 
HETATM    9  C9  UNL     1      24.787   1.493  52.261  1.00  0.00     0.093 A 
HETATM   10  N1  UNL     1      23.736   0.983  51.668  1.00  0.00    -0.171 NA
HETATM   11  N2  UNL     1      23.258   2.311  51.569  1.00  0.00    -0.231 N 
BRANCH   9  12
HETATM   12  C10 UNL     1      25.950   0.783  52.779  1.00  0.00    -0.007 A 
HETATM   13  C11 UNL     1      26.781   1.330  53.714  1.00  0.00     0.013 A 
HETATM   14  C12 UNL     1      27.879   0.646  54.195  1.00  0.00     0.001 A 
HETATM   15  C13 UNL     1      28.196  -0.629  53.755  1.00  0.00     0.000 A 
HETATM   16  C14 UNL     1      27.352  -1.199  52.796  1.00  0.00     0.001 A 
HETATM   17  C15 UNL     1      26.261  -0.495  52.332  1.00  0.00     0.013 A 
ENDBRANCH   9  12
BRANCH  11  18
HETATM   18  C16 UNL     1      22.011   2.783  50.981  1.00  0.00     0.192 A 
HETATM   19  N3  UNL     1      21.593   3.046  49.868  1.00  0.00    -0.198 NA
HETATM   20  C17 UNL     1      20.339   3.473  49.678  1.00  0.00     0.171 A 
HETATM   21  C18 UNL     1      19.467   3.614  50.921  1.00  0.00     0.111 A 
HETATM   22  S1  UNL     1      20.740   3.055  52.210  1.00  0.00    -0.058 SA
BRANCH  20  23
HETATM   23  O1  UNL     1      20.078   3.713  48.322  1.00  0.00    -0.344 OA
HETATM   24  H14 UNL     1      20.613   3.369  47.559  1.00  0.00     0.219 HD
ENDBRANCH  20  23
ENDBRANCH  11  18
ENDBRANCH   7   8
ENDBRANCH   5   6
ENDBRANCH   3   4
TORSDOF 6
ENDMDL
