MODEL 1
REMARK VINA RESULT:      -8.9      0.000      0.000
REMARK  2 active torsions:
REMARK  status: ('A' for Active; 'I' for Inactive)
REMARK    1  A    between atoms: C4_4  and  C5_5 
REMARK    2  A    between atoms: N1_9  and  C9_10 
REMARK       I    between atoms: N2_17  and  C15_18 
REMARK       I    between atoms: C15_18  and  N4_20 
ROOT
HETATM    1  C5  UNL     1      24.136   0.227  53.218  1.00  0.00     0.017 A 
HETATM    2  C6  UNL     1      23.372  -0.774  53.849  1.00  0.00     0.017 A 
HETATM    3  C7  UNL     1      21.999  -0.803  53.768  1.00  0.00     0.019 A 
HETATM    4  C8  UNL     1      21.391   0.190  53.039  1.00  0.00     0.099 A 
HETATM    5  N1  UNL     1      22.093   1.181  52.408  1.00  0.00    -0.306 N 
HETATM    6  C14 UNL     1      23.429   1.207  52.492  1.00  0.00     0.164 A 
HETATM    7  N2  UNL     1      24.211   2.017  52.066  1.00  0.00    -0.044 NA
HETATM    8  C15 UNL     1      24.445   3.136  51.372  1.00  0.00     0.715 C 
HETATM    9  N3  UNL     1      24.236   4.378  51.733  1.00  0.00    -0.116 NA
HETATM   10  N4  UNL     1      25.007   2.937  50.060  1.00  0.00    -0.231 N 
HETATM   11  H14 UNL     1      24.460   5.195  51.098  1.00  0.00     0.206 HD
HETATM   12  H15 UNL     1      24.493   2.637  49.180  1.00  0.00     0.174 HD
HETATM   13  H16 UNL     1      26.019   3.156  50.187  1.00  0.00     0.174 HD
ENDROOT
BRANCH   1  14
HETATM   14  C4  UNL     1      25.583   0.160  53.375  1.00  0.00    -0.043 A 
HETATM   15  C3  UNL     1      26.384   1.120  54.155  1.00  0.00     0.049 A 
HETATM   16  C2  UNL     1      27.848   0.921  54.216  1.00  0.00     0.030 A 
HETATM   17  C1  UNL     1      28.542   2.154  53.596  1.00  0.00     0.016 C 
HETATM   18  C18 UNL     1      28.402  -0.235  53.492  1.00  0.00     0.016 A 
HETATM   19  C17 UNL     1      27.623  -1.054  52.815  1.00  0.00     0.020 A 
HETATM   20 CL1  UNL     1      30.148  -0.301  53.691  1.00  0.00    -0.089 Cl
HETATM   21  C16 UNL     1      26.188  -0.836  52.767  1.00  0.00     0.009 A 
ENDBRANCH   1  14
BRANCH   5  22
HETATM   22  C9  UNL     1      21.307   2.126  51.747  1.00  0.00     0.038 A 
HETATM   23  C10 UNL     1      20.530   2.970  52.449  1.00  0.00     0.008 A 
HETATM   24  C11 UNL     1      19.757   3.904  51.616  1.00  0.00     0.075 A 
HETATM   25  C12 UNL     1      20.108   3.522  50.250  1.00  0.00    -0.006 A 
HETATM   26 BR1  UNL     1      19.398   4.352  48.716  1.00  0.00    -0.055 Br
HETATM   27  C13 UNL     1      20.962   2.548  50.413  1.00  0.00     0.044 A 
ENDBRANCH   5  22
TORSDOF 2
ENDMDL
MODEL 2
REMARK VINA RESULT:      -8.5      1.893      2.416
REMARK  2 active torsions:
REMARK  status: ('A' for Active; 'I' for Inactive)
REMARK    1  A    between atoms: C4_4  and  C5_5 
REMARK    2  A    between atoms: N1_9  and  C9_10 
REMARK       I    between atoms: N2_17  and  C15_18 
REMARK       I    between atoms: C15_18  and  N4_20 
ROOT
HETATM    1  C5  UNL     1      24.280   1.364  51.945  1.00  0.00     0.017 A 
HETATM    2  C6  UNL     1      23.155   0.609  52.328  1.00  0.00     0.017 A 
HETATM    3  C7  UNL     1      21.900   0.861  51.821  1.00  0.00     0.019 A 
HETATM    4  C8  UNL     1      21.783   1.885  50.914  1.00  0.00     0.099 A 
HETATM    5  N1  UNL     1      22.850   2.644  50.512  1.00  0.00    -0.306 N 
HETATM    6  C14 UNL     1      24.068   2.397  51.010  1.00  0.00     0.164 A 
HETATM    7  N2  UNL     1      25.105   2.981  50.832  1.00  0.00    -0.044 NA
HETATM    8  C15 UNL     1      25.786   3.956  50.219  1.00  0.00     0.715 C 
HETATM    9  N3  UNL     1      25.767   5.243  50.467  1.00  0.00    -0.116 NA
HETATM   10  N4  UNL     1      26.655   3.521  49.155  1.00  0.00    -0.231 N 
HETATM   11  H14 UNL     1      26.352   5.931  49.914  1.00  0.00     0.206 HD
HETATM   12  H15 UNL     1      26.375   3.253  48.166  1.00  0.00     0.174 HD
HETATM   13  H16 UNL     1      27.604   3.534  49.589  1.00  0.00     0.174 HD
ENDROOT
BRANCH   1  14
HETATM   14  C4  UNL     1      25.558   1.010  52.550  1.00  0.00    -0.043 A 
HETATM   15  C3  UNL     1      26.277   1.844  53.529  1.00  0.00     0.049 A 
HETATM   16  C2  UNL     1      27.570   1.351  54.050  1.00  0.00     0.030 A 
HETATM   17  C1  UNL     1      28.677   2.355  53.663  1.00  0.00     0.016 C 
HETATM   18  C18 UNL     1      28.045   0.048  53.554  1.00  0.00     0.016 A 
HETATM   19  C17 UNL     1      27.345  -0.644  52.678  1.00  0.00     0.020 A 
HETATM   20 CL1  UNL     1      29.586  -0.364  54.293  1.00  0.00    -0.089 Cl
HETATM   21  C16 UNL     1      26.080  -0.137  52.177  1.00  0.00     0.009 A 
ENDBRANCH   1  14
BRANCH   5  22
HETATM   22  C9  UNL     1      22.537   3.666  49.614  1.00  0.00     0.038 A 
HETATM   23  C10 UNL     1      22.630   3.455  48.289  1.00  0.00     0.008 A 
HETATM   24  C11 UNL     1      22.273   4.624  47.471  1.00  0.00     0.075 A 
HETATM   25  C12 UNL     1      21.970   5.658  48.458  1.00  0.00    -0.006 A 
HETATM   26 BR1  UNL     1      21.471   7.418  48.010  1.00  0.00    -0.055 Br
HETATM   27  C13 UNL     1      22.134   5.050  49.601  1.00  0.00     0.044 A 
ENDBRANCH   5  22
TORSDOF 2
ENDMDL
MODEL 3
REMARK VINA RESULT:      -8.3      3.890      6.821
REMARK  2 active torsions:
REMARK  status: ('A' for Active; 'I' for Inactive)
REMARK    1  A    between atoms: C4_4  and  C5_5 
REMARK    2  A    between atoms: N1_9  and  C9_10 
REMARK       I    between atoms: N2_17  and  C15_18 
REMARK       I    between atoms: C15_18  and  N4_20 
ROOT
HETATM    1  C5  UNL     1      22.313   0.302  53.000  1.00  0.00     0.017 A 
HETATM    2  C6  UNL     1      21.700  -0.642  53.846  1.00  0.00     0.017 A 
HETATM    3  C7  UNL     1      22.424  -1.408  54.730  1.00  0.00     0.019 A 
HETATM    4  C8  UNL     1      23.784  -1.216  54.761  1.00  0.00     0.099 A 
HETATM    5  N1  UNL     1      24.422  -0.309  53.958  1.00  0.00    -0.306 N 
HETATM    6  C14 UNL     1      23.713   0.432  53.098  1.00  0.00     0.164 A 
HETATM    7  N2  UNL     1      24.089   1.228  52.277  1.00  0.00    -0.044 NA
HETATM    8  C15 UNL     1      25.092   1.900  51.700  1.00  0.00     0.715 C 
HETATM    9  N3  UNL     1      25.980   1.460  50.843  1.00  0.00    -0.116 NA
HETATM   10  N4  UNL     1      25.194   3.288  52.073  1.00  0.00    -0.231 N 
HETATM   11  H14 UNL     1      26.738   2.085  50.446  1.00  0.00     0.206 HD
HETATM   12  H15 UNL     1      25.600   3.684  52.972  1.00  0.00     0.174 HD
HETATM   13  H16 UNL     1      24.780   3.795  51.260  1.00  0.00     0.174 HD
ENDROOT
BRANCH   1  14
HETATM   14  C4  UNL     1      21.447   1.054  52.101  1.00  0.00    -0.043 A 
HETATM   15  C3  UNL     1      21.043   0.602  50.758  1.00  0.00     0.049 A 
HETATM   16  C2  UNL     1      20.162   1.482  49.961  1.00  0.00     0.030 A 
HETATM   17  C1  UNL     1      20.902   1.886  48.668  1.00  0.00     0.016 C 
HETATM   18  C18 UNL     1      19.743   2.753  50.576  1.00  0.00     0.016 A 
HETATM   19  C17 UNL     1      20.144   3.091  51.785  1.00  0.00     0.020 A 
HETATM   20 CL1  UNL     1      18.700   3.648  49.479  1.00  0.00    -0.089 Cl
HETATM   21  C16 UNL     1      21.012   2.213  52.547  1.00  0.00     0.009 A 
ENDBRANCH   1  14
BRANCH   5  22
HETATM   22  C9  UNL     1      25.811  -0.277  54.098  1.00  0.00     0.038 A 
HETATM   23  C10 UNL     1      26.375   0.448  55.080  1.00  0.00     0.008 A 
HETATM   24  C11 UNL     1      27.844   0.388  55.099  1.00  0.00     0.075 A 
HETATM   25  C12 UNL     1      28.171  -0.455  53.951  1.00  0.00    -0.006 A 
HETATM   26 BR1  UNL     1      29.931  -0.879  53.431  1.00  0.00    -0.055 Br
HETATM   27  C13 UNL     1      27.004  -0.778  53.465  1.00  0.00     0.044 A 
ENDBRANCH   5  22
TORSDOF 2
ENDMDL
MODEL 4
REMARK VINA RESULT:      -8.3      1.440      2.039
REMARK  2 active torsions:
REMARK  status: ('A' for Active; 'I' for Inactive)
REMARK    1  A    between atoms: C4_4  and  C5_5 
REMARK    2  A    between atoms: N1_9  and  C9_10 
REMARK       I    between atoms: N2_17  and  C15_18 
REMARK       I    between atoms: C15_18  and  N4_20 
ROOT
HETATM    1  C5  UNL     1      23.551  -0.394  53.682  1.00  0.00     0.017 A 
HETATM    2  C6  UNL     1      22.996  -1.366  54.536  1.00  0.00     0.017 A 
HETATM    3  C7  UNL     1      21.637  -1.554  54.643  1.00  0.00     0.019 A 
HETATM    4  C8  UNL     1      20.830  -0.751  53.874  1.00  0.00     0.099 A 
HETATM    5  N1  UNL     1      21.326   0.205  53.028  1.00  0.00    -0.306 N 
HETATM    6  C14 UNL     1      22.649   0.386  52.931  1.00  0.00     0.164 A 
HETATM    7  N2  UNL     1      23.269   1.202  52.301  1.00  0.00    -0.044 NA
HETATM    8  C15 UNL     1      23.281   2.224  51.438  1.00  0.00     0.715 C 
HETATM    9  N3  UNL     1      22.961   3.477  51.654  1.00  0.00    -0.116 NA
HETATM   10  N4  UNL     1      23.708   1.894  50.102  1.00  0.00    -0.231 N 
HETATM   11  H14 UNL     1      23.006   4.210  50.891  1.00  0.00     0.206 HD
HETATM   12  H15 UNL     1      23.137   1.413  49.346  1.00  0.00     0.174 HD
HETATM   13  H16 UNL     1      24.692   2.237  50.064  1.00  0.00     0.174 HD
ENDROOT
BRANCH   1  14
HETATM   14  C4  UNL     1      25.004  -0.281  53.655  1.00  0.00    -0.043 A 
HETATM   15  C3  UNL     1      25.866  -0.858  52.609  1.00  0.00     0.049 A 
HETATM   16  C2  UNL     1      27.328  -0.662  52.723  1.00  0.00     0.030 A 
HETATM   17  C1  UNL     1      28.005  -2.045  52.843  1.00  0.00     0.016 C 
HETATM   18  C18 UNL     1      27.818   0.106  53.880  1.00  0.00     0.016 A 
HETATM   19  C17 UNL     1      26.985   0.593  54.777  1.00  0.00     0.020 A 
HETATM   20 CL1  UNL     1      29.571   0.232  53.832  1.00  0.00    -0.089 Cl
HETATM   21  C16 UNL     1      25.554   0.386  54.646  1.00  0.00     0.009 A 
ENDBRANCH   1  14
BRANCH   5  22
HETATM   22  C9  UNL     1      20.357   0.952  52.355  1.00  0.00     0.038 A 
HETATM   23  C10 UNL     1      19.743   0.444  51.273  1.00  0.00     0.008 A 
HETATM   24  C11 UNL     1      18.751   1.346  50.669  1.00  0.00     0.075 A 
HETATM   25  C12 UNL     1      18.833   2.550  51.492  1.00  0.00    -0.006 A 
HETATM   26 BR1  UNL     1      17.805   4.099  51.186  1.00  0.00    -0.055 Br
HETATM   27  C13 UNL     1      19.729   2.248  52.391  1.00  0.00     0.044 A 
ENDBRANCH   5  22
TORSDOF 2
ENDMDL
MODEL 5
REMARK VINA RESULT:      -8.3      3.848      6.766
REMARK  2 active torsions:
REMARK  status: ('A' for Active; 'I' for Inactive)
REMARK    1  A    between atoms: C4_4  and  C5_5 
REMARK    2  A    between atoms: N1_9  and  C9_10 
REMARK       I    between atoms: N2_17  and  C15_18 
REMARK       I    between atoms: C15_18  and  N4_20 
ROOT
HETATM    1  C5  UNL     1      22.435   0.691  52.029  1.00  0.00     0.017 A 
HETATM    2  C6  UNL     1      21.676  -0.267  52.727  1.00  0.00     0.017 A 
HETATM    3  C7  UNL     1      22.241  -1.104  53.663  1.00  0.00     0.019 A 
HETATM    4  C8  UNL     1      23.587  -0.967  53.898  1.00  0.00     0.099 A 
HETATM    5  N1  UNL     1      24.363  -0.048  53.243  1.00  0.00    -0.306 N 
HETATM    6  C14 UNL     1      23.810   0.761  52.331  1.00  0.00     0.164 A 
HETATM    7  N2  UNL     1      24.326   1.580  51.616  1.00  0.00    -0.044 NA
HETATM    8  C15 UNL     1      25.422   2.239  51.224  1.00  0.00     0.715 C 
HETATM    9  N3  UNL     1      26.410   1.806  50.480  1.00  0.00    -0.116 NA
HETATM   10  N4  UNL     1      25.514   3.602  51.681  1.00  0.00    -0.231 N 
HETATM   11  H14 UNL     1      27.236   2.419  50.229  1.00  0.00     0.206 HD
HETATM   12  H15 UNL     1      25.799   3.938  52.649  1.00  0.00     0.174 HD
HETATM   13  H16 UNL     1      25.238   4.163  50.846  1.00  0.00     0.174 HD
ENDROOT
BRANCH   1  14
HETATM   14  C4  UNL     1      21.732   1.519  51.057  1.00  0.00    -0.043 A 
HETATM   15  C3  UNL     1      21.287   2.902  51.305  1.00  0.00     0.049 A 
HETATM   16  C2  UNL     1      20.579   3.612  50.219  1.00  0.00     0.030 A 
HETATM   17  C1  UNL     1      19.160   3.976  50.707  1.00  0.00     0.016 C 
HETATM   18  C18 UNL     1      20.374   2.882  48.956  1.00  0.00     0.016 A 
HETATM   19  C17 UNL     1      20.802   1.645  48.806  1.00  0.00     0.020 A 
HETATM   20 CL1  UNL     1      19.525   3.894  47.795  1.00  0.00    -0.089 Cl
HETATM   21  C16 UNL     1      21.491   0.967  49.888  1.00  0.00     0.009 A 
ENDBRANCH   1  14
BRANCH   5  22
HETATM   22  C9  UNL     1      25.717  -0.078  53.581  1.00  0.00     0.038 A 
HETATM   23  C10 UNL     1      26.176   0.666  54.603  1.00  0.00     0.008 A 
HETATM   24  C11 UNL     1      27.622   0.534  54.836  1.00  0.00     0.075 A 
HETATM   25  C12 UNL     1      28.061  -0.378  53.783  1.00  0.00    -0.006 A 
HETATM   26 BR1  UNL     1      29.850  -0.914  53.541  1.00  0.00    -0.055 Br
HETATM   27  C13 UNL     1      26.959  -0.667  53.147  1.00  0.00     0.044 A 
ENDBRANCH   5  22
TORSDOF 2
ENDMDL
MODEL 6
REMARK VINA RESULT:      -8.2      3.585      6.043
REMARK  2 active torsions:
REMARK  status: ('A' for Active; 'I' for Inactive)
REMARK    1  A    between atoms: C4_4  and  C5_5 
REMARK    2  A    between atoms: N1_9  and  C9_10 
REMARK       I    between atoms: N2_17  and  C15_18 
REMARK       I    between atoms: C15_18  and  N4_20 
ROOT
HETATM    1  C5  UNL     1      23.940   1.342  51.927  1.00  0.00     0.017 A 
HETATM    2  C6  UNL     1      25.025   0.652  52.499  1.00  0.00     0.017 A 
HETATM    3  C7  UNL     1      26.327   1.060  52.318  1.00  0.00     0.019 A 
HETATM    4  C8  UNL     1      26.533   2.180  51.551  1.00  0.00     0.099 A 
HETATM    5  N1  UNL     1      25.508   2.883  50.976  1.00  0.00    -0.306 N 
HETATM    6  C14 UNL     1      24.244   2.480  51.154  1.00  0.00     0.164 A 
HETATM    7  N2  UNL     1      23.224   2.920  50.689  1.00  0.00    -0.044 NA
HETATM    8  C15 UNL     1      22.603   3.836  49.938  1.00  0.00     0.715 C 
HETATM    9  N3  UNL     1      22.562   3.928  48.631  1.00  0.00    -0.116 NA
HETATM   10  N4  UNL     1      21.882   4.845  50.673  1.00  0.00    -0.231 N 
HETATM   11  H14 UNL     1      22.036   4.701  48.137  1.00  0.00     0.206 HD
HETATM   12  H15 UNL     1      22.289   5.693  51.167  1.00  0.00     0.174 HD
HETATM   13  H16 UNL     1      20.887   4.541  50.601  1.00  0.00     0.174 HD
ENDROOT
BRANCH   1  14
HETATM   14  C4  UNL     1      22.605   0.816  52.183  1.00  0.00    -0.043 A 
HETATM   15  C3  UNL     1      21.631   0.463  51.136  1.00  0.00     0.049 A 
HETATM   16  C2  UNL     1      20.312  -0.055  51.555  1.00  0.00     0.030 A 
HETATM   17  C1  UNL     1      19.217   0.909  51.050  1.00  0.00     0.016 C 
HETATM   18  C18 UNL     1      20.067  -0.187  53.002  1.00  0.00     0.016 A 
HETATM   19  C17 UNL     1      20.988   0.148  53.882  1.00  0.00     0.020 A 
HETATM   20 CL1  UNL     1      18.453  -0.822  53.294  1.00  0.00    -0.089 Cl
HETATM   21  C16 UNL     1      22.276   0.658  53.446  1.00  0.00     0.009 A 
ENDBRANCH   1  14
BRANCH   5  22
HETATM   22  C9  UNL     1      25.908   3.971  50.198  1.00  0.00     0.038 A 
HETATM   23  C10 UNL     1      26.933   3.847  49.338  1.00  0.00     0.008 A 
HETATM   24  C11 UNL     1      27.240   5.078  48.593  1.00  0.00     0.075 A 
HETATM   25  C12 UNL     1      26.289   6.051  49.123  1.00  0.00    -0.006 A 
HETATM   26 BR1  UNL     1      26.213   7.850  48.571  1.00  0.00    -0.055 Br
HETATM   27  C13 UNL     1      25.597   5.363  49.991  1.00  0.00     0.044 A 
ENDBRANCH   5  22
TORSDOF 2
ENDMDL
MODEL 7
REMARK VINA RESULT:      -8.1      3.244      5.039
REMARK  2 active torsions:
REMARK  status: ('A' for Active; 'I' for Inactive)
REMARK    1  A    between atoms: C4_4  and  C5_5 
REMARK    2  A    between atoms: N1_9  and  C9_10 
REMARK       I    between atoms: N2_17  and  C15_18 
REMARK       I    between atoms: C15_18  and  N4_20 
ROOT
HETATM    1  C5  UNL     1      25.329   2.223  51.328  1.00  0.00     0.017 A 
HETATM    2  C6  UNL     1      26.392   1.396  51.739  1.00  0.00     0.017 A 
HETATM    3  C7  UNL     1      26.186   0.260  52.488  1.00  0.00     0.019 A 
HETATM    4  C8  UNL     1      24.889  -0.045  52.823  1.00  0.00     0.099 A 
HETATM    5  N1  UNL     1      23.825   0.729  52.444  1.00  0.00    -0.306 N 
HETATM    6  C14 UNL     1      24.032   1.835  51.718  1.00  0.00     0.164 A 
HETATM    7  N2  UNL     1      23.246   2.667  51.344  1.00  0.00    -0.044 NA
HETATM    8  C15 UNL     1      21.985   3.103  51.260  1.00  0.00     0.715 C 
HETATM    9  N3  UNL     1      21.249   3.656  52.193  1.00  0.00    -0.116 NA
HETATM   10  N4  UNL     1      21.366   2.945  49.968  1.00  0.00    -0.231 N 
HETATM   11  H14 UNL     1      20.253   3.967  52.016  1.00  0.00     0.206 HD
HETATM   12  H15 UNL     1      20.963   2.053  49.554  1.00  0.00     0.174 HD
HETATM   13  H16 UNL     1      21.412   3.901  49.552  1.00  0.00     0.174 HD
ENDROOT
BRANCH   1  14
HETATM   14  C4  UNL     1      25.666   3.403  50.542  1.00  0.00    -0.043 A 
HETATM   15  C3  UNL     1      24.931   4.678  50.593  1.00  0.00     0.049 A 
HETATM   16  C2  UNL     1      25.393   5.785  49.729  1.00  0.00     0.030 A 
HETATM   17  C1  UNL     1      24.260   6.155  48.747  1.00  0.00     0.016 C 
HETATM   18  C18 UNL     1      26.569   5.532  48.878  1.00  0.00     0.016 A 
HETATM   19  C17 UNL     1      27.178   4.364  48.887  1.00  0.00     0.020 A 
HETATM   20 CL1  UNL     1      26.962   6.964  47.936  1.00  0.00    -0.089 Cl
HETATM   21  C16 UNL     1      26.703   3.290  49.741  1.00  0.00     0.009 A 
ENDBRANCH   1  14
BRANCH   5  22
HETATM   22  C9  UNL     1      22.585   0.287  52.908  1.00  0.00     0.038 A 
HETATM   23  C10 UNL     1      22.433  -0.073  54.194  1.00  0.00     0.008 A 
HETATM   24  C11 UNL     1      21.073  -0.521  54.533  1.00  0.00     0.075 A 
HETATM   25  C12 UNL     1      20.356  -0.444  53.263  1.00  0.00    -0.006 A 
HETATM   26 BR1  UNL     1      18.549  -0.929  53.050  1.00  0.00    -0.055 Br
HETATM   27  C13 UNL     1      21.254   0.010  52.430  1.00  0.00     0.044 A 
ENDBRANCH   5  22
TORSDOF 2
ENDMDL
MODEL 8
REMARK VINA RESULT:      -7.7      5.195      7.451
REMARK  2 active torsions:
REMARK  status: ('A' for Active; 'I' for Inactive)
REMARK    1  A    between atoms: C4_4  and  C5_5 
REMARK    2  A    between atoms: N1_9  and  C9_10 
REMARK       I    between atoms: N2_17  and  C15_18 
REMARK       I    between atoms: C15_18  and  N4_20 
ROOT
HETATM    1  C5  UNL     1      26.051   4.730  49.488  1.00  0.00     0.017 A 
HETATM    2  C6  UNL     1      27.223   4.183  48.933  1.00  0.00     0.017 A 
HETATM    3  C7  UNL     1      28.213   4.972  48.394  1.00  0.00     0.019 A 
HETATM    4  C8  UNL     1      28.016   6.331  48.420  1.00  0.00     0.099 A 
HETATM    5  N1  UNL     1      26.893   6.907  48.951  1.00  0.00    -0.306 N 
HETATM    6  C14 UNL     1      25.932   6.134  49.471  1.00  0.00     0.164 A 
HETATM    7  N2  UNL     1      24.860   6.440  49.923  1.00  0.00    -0.044 NA
HETATM    8  C15 UNL     1      23.981   7.392  50.258  1.00  0.00     0.715 C 
HETATM    9  N3  UNL     1      23.210   8.102  49.472  1.00  0.00    -0.116 NA
HETATM   10  N4  UNL     1      23.871   7.656  51.671  1.00  0.00    -0.231 N 
HETATM   11  H14 UNL     1      22.545   8.836  49.847  1.00  0.00     0.206 HD
HETATM   12  H15 UNL     1      24.539   8.224  52.272  1.00  0.00     0.174 HD
HETATM   13  H16 UNL     1      22.995   7.163  51.949  1.00  0.00     0.174 HD
ENDROOT
BRANCH   1  14
HETATM   14  C4  UNL     1      25.069   3.797  50.026  1.00  0.00    -0.043 A 
HETATM   15  C3  UNL     1      25.067   3.293  51.410  1.00  0.00     0.049 A 
HETATM   16  C2  UNL     1      24.004   2.344  51.806  1.00  0.00     0.030 A 
HETATM   17  C1  UNL     1      24.662   1.012  52.229  1.00  0.00     0.016 C 
HETATM   18  C18 UNL     1      23.014   1.973  50.781  1.00  0.00     0.016 A 
HETATM   19  C17 UNL     1      23.079   2.466  49.561  1.00  0.00     0.020 A 
HETATM   20 CL1  UNL     1      21.838   0.847  51.445  1.00  0.00    -0.089 Cl
HETATM   21  C16 UNL     1      24.134   3.394  49.194  1.00  0.00     0.009 A 
ENDBRANCH   1  14
BRANCH   5  22
HETATM   22  C9  UNL     1      26.847   8.299  48.856  1.00  0.00     0.038 A 
HETATM   23  C10 UNL     1      27.606   9.058  49.665  1.00  0.00     0.008 A 
HETATM   24  C11 UNL     1      27.448  10.504  49.451  1.00  0.00     0.075 A 
HETATM   25  C12 UNL     1      26.433  10.590  48.404  1.00  0.00    -0.006 A 
HETATM   26 BR1  UNL     1      25.775  12.215  47.714  1.00  0.00    -0.055 Br
HETATM   27  C13 UNL     1      26.164   9.342  48.134  1.00  0.00     0.044 A 
ENDBRANCH   5  22
TORSDOF 2
ENDMDL
MODEL 9
REMARK VINA RESULT:      -7.6      2.838      4.221
REMARK  2 active torsions:
REMARK  status: ('A' for Active; 'I' for Inactive)
REMARK    1  A    between atoms: C4_4  and  C5_5 
REMARK    2  A    between atoms: N1_9  and  C9_10 
REMARK       I    between atoms: N2_17  and  C15_18 
REMARK       I    between atoms: C15_18  and  N4_20 
ROOT
HETATM    1  C5  UNL     1      22.719   2.081  50.303  1.00  0.00     0.017 A 
HETATM    2  C6  UNL     1      21.849   1.237  49.586  1.00  0.00     0.017 A 
HETATM    3  C7  UNL     1      21.068   1.703  48.552  1.00  0.00     0.019 A 
HETATM    4  C8  UNL     1      21.171   3.036  48.239  1.00  0.00     0.099 A 
HETATM    5  N1  UNL     1      22.004   3.892  48.908  1.00  0.00    -0.306 N 
HETATM    6  C14 UNL     1      22.759   3.435  49.915  1.00  0.00     0.164 A 
HETATM    7  N2  UNL     1      23.497   4.031  50.655  1.00  0.00    -0.044 NA
HETATM    8  C15 UNL     1      24.080   5.179  51.021  1.00  0.00     0.715 C 
HETATM    9  N3  UNL     1      23.551   6.193  51.662  1.00  0.00    -0.116 NA
HETATM   10  N4  UNL     1      25.470   5.301  50.665  1.00  0.00    -0.231 N 
HETATM   11  H14 UNL     1      24.109   7.059  51.902  1.00  0.00     0.206 HD
HETATM   12  H15 UNL     1      25.870   5.538  49.709  1.00  0.00     0.174 HD
HETATM   13  H16 UNL     1      25.974   5.105  51.557  1.00  0.00     0.174 HD
ENDROOT
BRANCH   1  14
HETATM   14  C4  UNL     1      23.493   1.479  51.380  1.00  0.00    -0.043 A 
HETATM   15  C3  UNL     1      24.958   1.574  51.510  1.00  0.00     0.049 A 
HETATM   16  C2  UNL     1      25.602   0.903  52.659  1.00  0.00     0.030 A 
HETATM   17  C1  UNL     1      26.576  -0.170  52.125  1.00  0.00     0.016 C 
HETATM   18  C18 UNL     1      24.725   0.188  53.602  1.00  0.00     0.016 A 
HETATM   19  C17 UNL     1      23.421   0.147  53.422  1.00  0.00     0.020 A 
HETATM   20 CL1  UNL     1      25.675  -0.532  54.895  1.00  0.00    -0.089 Cl
HETATM   21  C16 UNL     1      22.811   0.810  52.284  1.00  0.00     0.009 A 
ENDBRANCH   1  14
BRANCH   5  22
HETATM   22  C9  UNL     1      21.948   5.219  48.479  1.00  0.00     0.038 A 
HETATM   23  C10 UNL     1      22.728   5.636  47.466  1.00  0.00     0.008 A 
HETATM   24  C11 UNL     1      22.562   7.058  47.129  1.00  0.00     0.075 A 
HETATM   25  C12 UNL     1      21.583   7.533  48.104  1.00  0.00    -0.006 A 
HETATM   26 BR1  UNL     1      20.979   9.314  48.198  1.00  0.00    -0.055 Br
HETATM   27  C13 UNL     1      21.297   6.465  48.798  1.00  0.00     0.044 A 
ENDBRANCH   5  22
TORSDOF 2
ENDMDL
