MODEL 1
REMARK VINA RESULT:      -7.9      0.000      0.000
REMARK  0 active torsions:
REMARK  status: ('A' for Active; 'I' for Inactive)
ROOT
HETATM    1  C1  UNL     1      26.783  -1.880  52.109  1.00  0.00     0.047 C 
HETATM    2  C2  UNL     1      26.615  -0.643  52.617  1.00  0.00     0.055 C 
HETATM    3  O1  UNL     1      26.988   0.408  51.806  1.00  0.00    -0.298 OA
HETATM    4  C3  UNL     1      26.557   1.747  51.910  1.00  0.00     0.168 C 
HETATM    5  N1  UNL     1      26.670   2.272  50.765  1.00  0.00    -0.265 NA
HETATM    6  C4  UNL     1      26.390   3.569  50.283  1.00  0.00     0.178 C 
HETATM    7  C5  UNL     1      25.157   3.679  49.481  1.00  0.00    -0.005 C 
HETATM    8  C6  UNL     1      24.166   3.829  48.641  1.00  0.00    -0.002 C 
HETATM    9  C7  UNL     1      22.793   3.778  48.300  1.00  0.00    -0.000 C 
HETATM   10  C8  UNL     1      21.651   3.482  48.838  1.00  0.00    -0.000 C 
HETATM   11  C9  UNL     1      21.105   3.035  50.092  1.00  0.00    -0.002 C 
HETATM   12  C10 UNL     1      21.370   2.689  51.331  1.00  0.00    -0.007 C 
HETATM   13  C11 UNL     1      21.120   2.238  52.710  1.00  0.00     0.147 C 
HETATM   14  N2  UNL     1      21.800   1.029  53.096  1.00  0.00    -0.386 N 
HETATM   15  C12 UNL     1      23.211   0.932  53.277  1.00  0.00     0.039 C 
HETATM   16  P1  UNL     1      24.193   2.305  53.147  1.00  0.00     0.003 P 
HETATM   17  C13 UNL     1      26.080   2.365  53.134  1.00  0.00     0.193 C 
HETATM   18  N3  UNL     1      26.426   1.847  54.356  1.00  0.00    -0.405 N 
HETATM   19  C14 UNL     1      26.393   0.556  54.798  1.00  0.00     0.130 C 
HETATM   20  C15 UNL     1      26.042  -0.618  54.003  1.00  0.00     0.082 C 
HETATM   21  C16 UNL     1      24.597  -1.032  54.006  1.00  0.00    -0.012 C 
HETATM   22  C17 UNL     1      23.426  -0.514  53.566  1.00  0.00     0.027 C 
HETATM   23  H13 UNL     1      21.247   0.166  53.256  1.00  0.00     0.160 HD
HETATM   24  H15 UNL     1      26.692   2.503  55.119  1.00  0.00     0.154 HD
ENDROOT
TORSDOF 0
ENDMDL
MODEL 2
REMARK VINA RESULT:      -7.9      2.652      6.459
REMARK  0 active torsions:
REMARK  status: ('A' for Active; 'I' for Inactive)
ROOT
HETATM    1  C1  UNL     1      22.316   4.592  47.362  1.00  0.00     0.047 C 
HETATM    2  C2  UNL     1      22.291   4.957  48.659  1.00  0.00     0.055 C 
HETATM    3  O1  UNL     1      21.236   4.481  49.409  1.00  0.00    -0.298 OA
HETATM    4  C3  UNL     1      21.184   4.367  50.813  1.00  0.00     0.168 C 
HETATM    5  N1  UNL     1      20.346   3.461  51.090  1.00  0.00    -0.265 NA
HETATM    6  C4  UNL     1      19.894   2.926  52.315  1.00  0.00     0.178 C 
HETATM    7  C5  UNL     1      20.441   1.598  52.651  1.00  0.00    -0.005 C 
HETATM    8  C6  UNL     1      20.762   0.366  52.947  1.00  0.00    -0.002 C 
HETATM    9  C7  UNL     1      21.705  -0.648  53.246  1.00  0.00    -0.000 C 
HETATM   10  C8  UNL     1      22.985  -0.795  53.389  1.00  0.00    -0.000 C 
HETATM   11  C9  UNL     1      24.198  -0.023  53.331  1.00  0.00    -0.002 C 
HETATM   12  C10 UNL     1      24.722   1.164  53.128  1.00  0.00    -0.007 C 
HETATM   13  C11 UNL     1      25.762   2.198  53.000  1.00  0.00     0.147 C 
HETATM   14  N2  UNL     1      25.817   2.862  51.724  1.00  0.00    -0.386 N 
HETATM   15  C12 UNL     1      24.813   3.756  51.247  1.00  0.00     0.039 C 
HETATM   16  P1  UNL     1      23.505   4.186  52.233  1.00  0.00     0.003 P 
HETATM   17  C13 UNL     1      21.971   5.168  51.734  1.00  0.00     0.193 C 
HETATM   18  N3  UNL     1      22.480   6.380  51.342  1.00  0.00    -0.405 N 
HETATM   19  C14 UNL     1      23.158   6.716  50.208  1.00  0.00     0.130 C 
HETATM   20  C15 UNL     1      23.433   5.835  49.075  1.00  0.00     0.082 C 
HETATM   21  C16 UNL     1      24.728   5.071  49.110  1.00  0.00    -0.012 C 
HETATM   22  C17 UNL     1      25.269   4.090  49.869  1.00  0.00     0.027 C 
HETATM   23  H13 UNL     1      26.627   2.693  51.099  1.00  0.00     0.160 HD
HETATM   24  H15 UNL     1      22.429   7.180  52.006  1.00  0.00     0.154 HD
ENDROOT
TORSDOF 0
ENDMDL
MODEL 3
REMARK VINA RESULT:      -7.4      7.732     10.850
REMARK  0 active torsions:
REMARK  status: ('A' for Active; 'I' for Inactive)
ROOT
HETATM    1  C1  UNL     1      27.451   5.227  48.401  1.00  0.00     0.047 C 
HETATM    2  C2  UNL     1      28.508   6.045  48.570  1.00  0.00     0.055 C 
HETATM    3  O1  UNL     1      29.721   5.436  48.820  1.00  0.00    -0.298 OA
HETATM    4  C3  UNL     1      31.000   5.998  48.633  1.00  0.00     0.168 C 
HETATM    5  N1  UNL     1      31.813   5.044  48.463  1.00  0.00    -0.265 NA
HETATM    6  C4  UNL     1      33.205   5.010  48.233  1.00  0.00     0.178 C 
HETATM    7  C5  UNL     1      33.597   4.713  46.842  1.00  0.00    -0.005 C 
HETATM    8  C6  UNL     1      34.024   4.311  45.674  1.00  0.00    -0.002 C 
HETATM    9  C7  UNL     1      34.141   4.441  44.269  1.00  0.00    -0.000 C 
HETATM   10  C8  UNL     1      33.770   5.237  43.316  1.00  0.00    -0.000 C 
HETATM   11  C9  UNL     1      33.026   6.454  43.121  1.00  0.00    -0.002 C 
HETATM   12  C10 UNL     1      32.340   7.413  43.700  1.00  0.00    -0.007 C 
HETATM   13  C11 UNL     1      31.542   8.644  43.822  1.00  0.00     0.147 C 
HETATM   14  N2  UNL     1      30.240   8.478  44.411  1.00  0.00    -0.386 N 
HETATM   15  C12 UNL     1      30.021   8.154  45.782  1.00  0.00     0.039 C 
HETATM   16  P1  UNL     1      31.323   8.043  46.859  1.00  0.00     0.003 P 
HETATM   17  C13 UNL     1      31.284   7.422  48.642  1.00  0.00     0.193 C 
HETATM   18  N3  UNL     1      30.432   8.297  49.267  1.00  0.00    -0.405 N 
HETATM   19  C14 UNL     1      29.074   8.398  49.192  1.00  0.00     0.130 C 
HETATM   20  C15 UNL     1      28.184   7.505  48.456  1.00  0.00     0.082 C 
HETATM   21  C16 UNL     1      27.862   7.885  47.037  1.00  0.00    -0.012 C 
HETATM   22  C17 UNL     1      28.542   7.996  45.872  1.00  0.00     0.027 C 
HETATM   23  H13 UNL     1      29.397   8.598  43.818  1.00  0.00     0.160 HD
HETATM   24  H15 UNL     1      30.839   9.064  49.842  1.00  0.00     0.154 HD
ENDROOT
TORSDOF 0
ENDMDL
MODEL 4
REMARK VINA RESULT:      -7.4      5.939      9.337
REMARK  0 active torsions:
REMARK  status: ('A' for Active; 'I' for Inactive)
ROOT
HETATM    1  C1  UNL     1      14.538   4.580  53.924  1.00  0.00     0.047 C 
HETATM    2  C2  UNL     1      14.997   3.976  52.810  1.00  0.00     0.055 C 
HETATM    3  O1  UNL     1      16.312   4.226  52.476  1.00  0.00    -0.298 OA
HETATM    4  C3  UNL     1      17.133   3.439  51.642  1.00  0.00     0.168 C 
HETATM    5  N1  UNL     1      18.334   3.661  51.972  1.00  0.00    -0.265 NA
HETATM    6  C4  UNL     1      19.561   3.160  51.488  1.00  0.00     0.178 C 
HETATM    7  C5  UNL     1      20.206   2.156  52.357  1.00  0.00    -0.005 C 
HETATM    8  C6  UNL     1      20.909   1.378  53.136  1.00  0.00    -0.002 C 
HETATM    9  C7  UNL     1      21.103   0.183  53.871  1.00  0.00    -0.000 C 
HETATM   10  C8  UNL     1      20.488  -0.928  54.131  1.00  0.00    -0.000 C 
HETATM   11  C9  UNL     1      19.253  -1.603  53.829  1.00  0.00    -0.002 C 
HETATM   12  C10 UNL     1      18.111  -1.541  53.184  1.00  0.00    -0.007 C 
HETATM   13  C11 UNL     1      16.786  -1.965  52.701  1.00  0.00     0.147 C 
HETATM   14  N2  UNL     1      15.696  -1.091  53.047  1.00  0.00    -0.386 N 
HETATM   15  C12 UNL     1      15.520   0.216  52.503  1.00  0.00     0.039 C 
HETATM   16  P1  UNL     1      16.560   0.795  51.300  1.00  0.00     0.003 P 
HETATM   17  C13 UNL     1      16.642   2.549  50.604  1.00  0.00     0.193 C 
HETATM   18  N3  UNL     1      15.397   2.737  50.060  1.00  0.00    -0.405 N 
HETATM   19  C14 UNL     1      14.198   2.953  50.675  1.00  0.00     0.130 C 
HETATM   20  C15 UNL     1      13.984   3.120  52.110  1.00  0.00     0.082 C 
HETATM   21  C16 UNL     1      13.678   1.877  52.899  1.00  0.00    -0.012 C 
HETATM   22  C17 UNL     1      14.333   0.741  53.235  1.00  0.00     0.027 C 
HETATM   23  H13 UNL     1      14.985  -1.413  53.731  1.00  0.00     0.160 HD
HETATM   24  H15 UNL     1      15.283   2.638  49.030  1.00  0.00     0.154 HD
ENDROOT
TORSDOF 0
ENDMDL
MODEL 5
REMARK VINA RESULT:      -7.3      2.501      5.904
REMARK  0 active torsions:
REMARK  status: ('A' for Active; 'I' for Inactive)
ROOT
HETATM    1  C1  UNL     1      21.907   6.894  50.987  1.00  0.00     0.047 C 
HETATM    2  C2  UNL     1      22.100   5.794  50.233  1.00  0.00     0.055 C 
HETATM    3  O1  UNL     1      23.407   5.492  49.911  1.00  0.00    -0.298 OA
HETATM    4  C3  UNL     1      23.907   4.236  49.509  1.00  0.00     0.168 C 
HETATM    5  N1  UNL     1      25.138   4.207  49.801  1.00  0.00    -0.265 NA
HETATM    6  C4  UNL     1      26.130   3.218  49.632  1.00  0.00     0.178 C 
HETATM    7  C5  UNL     1      26.502   2.497  50.865  1.00  0.00    -0.005 C 
HETATM    8  C6  UNL     1      26.991   1.920  51.931  1.00  0.00    -0.002 C 
HETATM    9  C7  UNL     1      26.868   1.112  53.088  1.00  0.00    -0.000 C 
HETATM   10  C8  UNL     1      25.969   0.429  53.725  1.00  0.00    -0.000 C 
HETATM   11  C9  UNL     1      24.574   0.086  53.636  1.00  0.00    -0.002 C 
HETATM   12  C10 UNL     1      23.464   0.222  52.947  1.00  0.00    -0.007 C 
HETATM   13  C11 UNL     1      22.046   0.053  52.587  1.00  0.00     0.147 C 
HETATM   14  N2  UNL     1      21.286   1.271  52.490  1.00  0.00    -0.386 N 
HETATM   15  C12 UNL     1      21.470   2.246  51.466  1.00  0.00     0.039 C 
HETATM   16  P1  UNL     1      22.560   1.969  50.201  1.00  0.00     0.003 P 
HETATM   17  C13 UNL     1      23.113   3.198  48.877  1.00  0.00     0.193 C 
HETATM   18  N3  UNL     1      21.948   3.512  48.225  1.00  0.00    -0.405 N 
HETATM   19  C14 UNL     1      20.907   4.296  48.627  1.00  0.00     0.130 C 
HETATM   20  C15 UNL     1      20.839   5.070  49.864  1.00  0.00     0.082 C 
HETATM   21  C16 UNL     1      20.228   4.390  51.057  1.00  0.00    -0.012 C 
HETATM   22  C17 UNL     1      20.538   3.341  51.855  1.00  0.00     0.027 C 
HETATM   23  H13 UNL     1      20.555   1.470  53.199  1.00  0.00     0.160 HD
HETATM   24  H15 UNL     1      21.748   3.054  47.312  1.00  0.00     0.154 HD
ENDROOT
TORSDOF 0
ENDMDL
MODEL 6
REMARK VINA RESULT:      -6.8      3.586      6.423
REMARK  0 active torsions:
REMARK  status: ('A' for Active; 'I' for Inactive)
ROOT
HETATM    1  C1  UNL     1      22.621   2.555  47.956  1.00  0.00     0.047 C 
HETATM    2  C2  UNL     1      22.053   3.121  49.040  1.00  0.00     0.055 C 
HETATM    3  O1  UNL     1      20.678   3.227  49.026  1.00  0.00    -0.298 OA
HETATM    4  C3  UNL     1      19.834   3.387  50.145  1.00  0.00     0.168 C 
HETATM    5  N1  UNL     1      18.695   2.938  49.828  1.00  0.00    -0.265 NA
HETATM    6  C4  UNL     1      17.480   2.841  50.540  1.00  0.00     0.178 C 
HETATM    7  C5  UNL     1      17.147   1.484  51.015  1.00  0.00    -0.005 C 
HETATM    8  C6  UNL     1      16.711   0.295  51.338  1.00  0.00    -0.002 C 
HETATM    9  C7  UNL     1      16.819  -0.935  52.031  1.00  0.00    -0.000 C 
HETATM   10  C8  UNL     1      17.617  -1.538  52.856  1.00  0.00    -0.000 C 
HETATM   11  C9  UNL     1      18.857  -1.317  53.553  1.00  0.00    -0.002 C 
HETATM   12  C10 UNL     1      19.844  -0.478  53.776  1.00  0.00    -0.007 C 
HETATM   13  C11 UNL     1      21.104   0.034  54.338  1.00  0.00     0.147 C 
HETATM   14  N2  UNL     1      22.109   0.394  53.373  1.00  0.00    -0.386 N 
HETATM   15  C12 UNL     1      22.002   1.509  52.490  1.00  0.00     0.039 C 
HETATM   16  P1  UNL     1      20.691   2.573  52.601  1.00  0.00     0.003 P 
HETATM   17  C13 UNL     1      20.245   3.969  51.410  1.00  0.00     0.193 C 
HETATM   18  N3  UNL     1      21.333   4.803  51.471  1.00  0.00    -0.405 N 
HETATM   19  C14 UNL     1      22.582   4.649  50.945  1.00  0.00     0.130 C 
HETATM   20  C15 UNL     1      23.029   3.548  50.096  1.00  0.00     0.082 C 
HETATM   21  C16 UNL     1      23.641   2.362  50.788  1.00  0.00    -0.012 C 
HETATM   22  C17 UNL     1      23.220   1.396  51.638  1.00  0.00     0.027 C 
HETATM   23  H13 UNL     1      22.969  -0.181  53.299  1.00  0.00     0.160 HD
HETATM   24  H15 UNL     1      21.270   5.662  52.054  1.00  0.00     0.154 HD
ENDROOT
TORSDOF 0
ENDMDL
MODEL 7
REMARK VINA RESULT:      -6.7      3.315      5.960
REMARK  0 active torsions:
REMARK  status: ('A' for Active; 'I' for Inactive)
ROOT
HETATM    1  C1  UNL     1      20.310   2.133  48.732  1.00  0.00     0.047 C 
HETATM    2  C2  UNL     1      20.929   2.608  49.831  1.00  0.00     0.055 C 
HETATM    3  O1  UNL     1      22.213   2.157  50.054  1.00  0.00    -0.298 OA
HETATM    4  C3  UNL     1      23.196   2.775  50.855  1.00  0.00     0.168 C 
HETATM    5  N1  UNL     1      24.326   2.400  50.425  1.00  0.00    -0.265 NA
HETATM    6  C4  UNL     1      25.643   2.696  50.835  1.00  0.00     0.178 C 
HETATM    7  C5  UNL     1      26.367   3.640  49.961  1.00  0.00    -0.005 C 
HETATM    8  C6  UNL     1      27.120   4.348  49.162  1.00  0.00    -0.002 C 
HETATM    9  C7  UNL     1      27.436   5.539  48.464  1.00  0.00    -0.000 C 
HETATM   10  C8  UNL     1      26.973   6.738  48.296  1.00  0.00    -0.000 C 
HETATM   11  C9  UNL     1      25.873   7.567  48.717  1.00  0.00    -0.002 C 
HETATM   12  C10 UNL     1      24.782   7.636  49.445  1.00  0.00    -0.007 C 
HETATM   13  C11 UNL     1      23.570   8.219  50.043  1.00  0.00     0.147 C 
HETATM   14  N2  UNL     1      22.343   7.529  49.746  1.00  0.00    -0.386 N 
HETATM   15  C12 UNL     1      22.015   6.234  50.249  1.00  0.00     0.039 C 
HETATM   16  P1  UNL     1      23.041   5.452  51.345  1.00  0.00     0.003 P 
HETATM   17  C13 UNL     1      22.913   3.671  51.961  1.00  0.00     0.193 C 
HETATM   18  N3  UNL     1      21.695   3.637  52.591  1.00  0.00    -0.405 N 
HETATM   19  C14 UNL     1      20.438   3.625  52.060  1.00  0.00     0.130 C 
HETATM   20  C15 UNL     1      20.103   3.564  50.640  1.00  0.00     0.082 C 
HETATM   21  C16 UNL     1      19.928   4.876  49.927  1.00  0.00    -0.012 C 
HETATM   22  C17 UNL     1      20.717   5.922  49.588  1.00  0.00     0.027 C 
HETATM   23  H13 UNL     1      21.641   7.983  49.132  1.00  0.00     0.160 HD
HETATM   24  H15 UNL     1      21.668   3.698  53.629  1.00  0.00     0.154 HD
ENDROOT
TORSDOF 0
ENDMDL
MODEL 8
REMARK VINA RESULT:      -6.7      7.844     11.144
REMARK  0 active torsions:
REMARK  status: ('A' for Active; 'I' for Inactive)
ROOT
HETATM    1  C1  UNL     1      27.816  12.259  45.309  1.00  0.00     0.047 C 
HETATM    2  C2  UNL     1      28.268  12.011  46.555  1.00  0.00     0.055 C 
HETATM    3  O1  UNL     1      27.327  11.602  47.478  1.00  0.00    -0.298 OA
HETATM    4  C3  UNL     1      27.573  10.910  48.681  1.00  0.00     0.168 C 
HETATM    5  N1  UNL     1      26.519  10.277  48.977  1.00  0.00    -0.265 NA
HETATM    6  C4  UNL     1      26.192   9.428  50.056  1.00  0.00     0.178 C 
HETATM    7  C5  UNL     1      26.168   7.990  49.728  1.00  0.00    -0.005 C 
HETATM    8  C6  UNL     1      25.981   6.720  49.483  1.00  0.00    -0.002 C 
HETATM    9  C7  UNL     1      26.429   5.444  49.062  1.00  0.00    -0.000 C 
HETATM   10  C8  UNL     1      27.509   4.867  48.636  1.00  0.00    -0.000 C 
HETATM   11  C9  UNL     1      28.883   5.177  48.340  1.00  0.00    -0.002 C 
HETATM   12  C10 UNL     1      29.805   6.113  48.318  1.00  0.00    -0.007 C 
HETATM   13  C11 UNL     1      31.126   6.728  48.109  1.00  0.00     0.147 C 
HETATM   14  N2  UNL     1      31.154   7.829  47.183  1.00  0.00    -0.386 N 
HETATM   15  C12 UNL     1      30.558   9.100  47.438  1.00  0.00     0.039 C 
HETATM   16  P1  UNL     1      29.850   9.433  48.939  1.00  0.00     0.003 P 
HETATM   17  C13 UNL     1      28.828  10.949  49.412  1.00  0.00     0.193 C 
HETATM   18  N3  UNL     1      29.702  11.991  49.238  1.00  0.00    -0.405 N 
HETATM   19  C14 UNL     1      30.161  12.564  48.088  1.00  0.00     0.130 C 
HETATM   20  C15 UNL     1      29.741  12.227  46.731  1.00  0.00     0.082 C 
HETATM   21  C16 UNL     1      30.538  11.170  46.017  1.00  0.00    -0.012 C 
HETATM   22  C17 UNL     1      30.764   9.844  46.164  1.00  0.00     0.027 C 
HETATM   23  H13 UNL     1      31.631   7.711  46.269  1.00  0.00     0.160 HD
HETATM   24  H15 UNL     1      30.167  12.396  50.076  1.00  0.00     0.154 HD
ENDROOT
TORSDOF 0
ENDMDL
MODEL 9
REMARK VINA RESULT:      -6.6      3.245      7.108
REMARK  0 active torsions:
REMARK  status: ('A' for Active; 'I' for Inactive)
ROOT
HETATM    1  C1  UNL     1      20.255   3.118  47.021  1.00  0.00     0.047 C 
HETATM    2  C2  UNL     1      19.845   3.290  48.293  1.00  0.00     0.055 C 
HETATM    3  O1  UNL     1      19.644   2.143  49.033  1.00  0.00    -0.298 OA
HETATM    4  C3  UNL     1      19.620   2.042  50.440  1.00  0.00     0.168 C 
HETATM    5  N1  UNL     1      19.929   0.852  50.739  1.00  0.00    -0.265 NA
HETATM    6  C4  UNL     1      20.063   0.189  51.977  1.00  0.00     0.178 C 
HETATM    7  C5  UNL     1      21.454  -0.046  52.408  1.00  0.00    -0.005 C 
HETATM    8  C6  UNL     1      22.648  -0.422  52.785  1.00  0.00    -0.002 C 
HETATM    9  C7  UNL     1      23.983  -0.154  53.174  1.00  0.00    -0.000 C 
HETATM   10  C8  UNL     1      24.772   0.856  53.368  1.00  0.00    -0.000 C 
HETATM   11  C9  UNL     1      24.759   2.295  53.308  1.00  0.00    -0.002 C 
HETATM   12  C10 UNL     1      24.040   3.365  53.054  1.00  0.00    -0.007 C 
HETATM   13  C11 UNL     1      23.719   4.794  52.902  1.00  0.00     0.147 C 
HETATM   14  N2  UNL     1      23.270   5.188  51.592  1.00  0.00    -0.386 N 
HETATM   15  C12 UNL     1      22.016   4.805  51.031  1.00  0.00     0.039 C 
HETATM   16  P1  UNL     1      20.899   3.921  51.945  1.00  0.00     0.003 P 
HETATM   17  C13 UNL     1      19.292   3.134  51.339  1.00  0.00     0.193 C 
HETATM   18  N3  UNL     1      18.558   4.204  50.895  1.00  0.00    -0.405 N 
HETATM   19  C14 UNL     1      18.706   4.956  49.766  1.00  0.00     0.130 C 
HETATM   20  C15 UNL     1      19.673   4.724  48.697  1.00  0.00     0.082 C 
HETATM   21  C16 UNL     1      21.000   5.422  48.819  1.00  0.00    -0.012 C 
HETATM   22  C17 UNL     1      22.065   5.367  49.652  1.00  0.00     0.027 C 
HETATM   23  H13 UNL     1      23.882   5.787  51.006  1.00  0.00     0.160 HD
HETATM   24  H15 UNL     1      17.809   4.584  51.509  1.00  0.00     0.154 HD
ENDROOT
TORSDOF 0
ENDMDL
