MODEL 1
REMARK VINA RESULT:      -8.0      0.000      0.000
REMARK  3 active torsions:
REMARK  status: ('A' for Active; 'I' for Inactive)
REMARK    1  A    between atoms: C4_5  and  C5_6 
REMARK    2  A    between atoms: C8_9  and  N2_10 
REMARK       I    between atoms: N2_10  and  C9_11 
REMARK    3  A    between atoms: C9_11  and  C10_13 
ROOT
HETATM    1  C5  UNL     1      21.383  -0.106  52.533  1.00  0.00    -0.054 A 
HETATM    2  C6  UNL     1      21.968  -0.663  53.630  1.00  0.00     0.010 A 
HETATM    3  C7  UNL     1      23.265  -0.353  53.972  1.00  0.00     0.030 A 
HETATM    4  C8  UNL     1      24.017   0.520  53.236  1.00  0.00     0.035 A 
HETATM    5  C14 UNL     1      23.460   1.115  52.104  1.00  0.00     0.030 A 
HETATM    6  C15 UNL     1      22.168   0.783  51.794  1.00  0.00     0.010 A 
ENDROOT
BRANCH   4   7
HETATM    7  N2  UNL     1      25.367   0.897  53.519  1.00  0.00    -0.323 N 
HETATM    8  C9  UNL     1      26.334  -0.096  53.215  1.00  0.00     0.261 C 
HETATM    9  O1  UNL     1      25.848  -1.157  52.742  1.00  0.00    -0.267 OA
HETATM   10  H11 UNL     1      25.660   1.810  53.914  1.00  0.00     0.169 HD
BRANCH   8  11
HETATM   11  C10 UNL     1      27.761   0.091  53.428  1.00  0.00     0.097 A 
HETATM   12  C11 UNL     1      28.648  -0.884  53.304  1.00  0.00     0.015 A 
HETATM   13  C12 UNL     1      30.009  -0.369  53.587  1.00  0.00     0.151 A 
HETATM   14  N3  UNL     1      29.779   1.013  53.884  1.00  0.00    -0.353 N 
HETATM   15  C13 UNL     1      28.401   1.325  53.793  1.00  0.00     0.257 A 
HETATM   16  H15 UNL     1      30.631   1.601  54.123  1.00  0.00     0.163 HD
HETATM   17  O2  UNL     1      27.928   2.466  54.004  1.00  0.00    -0.267 OA
ENDBRANCH   8  11
ENDBRANCH   4   7
BRANCH   1  18
HETATM   18  C4  UNL     1      19.995  -0.380  52.088  1.00  0.00     0.022 C 
HETATM   19  C3  UNL     1      19.228  -1.178  53.110  1.00  0.00     0.039 C 
HETATM   20  C2  UNL     1      17.774  -0.871  53.154  1.00  0.00     0.272 C 
HETATM   21  N1  UNL     1      17.171  -0.425  51.945  1.00  0.00     0.084 N 
HETATM   22  C1  UNL     1      15.942   0.283  52.312  1.00  0.00     0.309 C 
HETATM   23  C17 UNL     1      17.940   0.438  51.115  1.00  0.00     0.272 C 
HETATM   24  C16 UNL     1      19.200   0.879  51.829  1.00  0.00     0.039 C 
ENDBRANCH   1  18
TORSDOF 3
ENDMDL
MODEL 2
REMARK VINA RESULT:      -7.9      1.064      1.563
REMARK  3 active torsions:
REMARK  status: ('A' for Active; 'I' for Inactive)
REMARK    1  A    between atoms: C4_5  and  C5_6 
REMARK    2  A    between atoms: C8_9  and  N2_10 
REMARK       I    between atoms: N2_10  and  C9_11 
REMARK    3  A    between atoms: C9_11  and  C10_13 
ROOT
HETATM    1  C5  UNL     1      21.381  -0.496  53.823  1.00  0.00    -0.054 A 
HETATM    2  C6  UNL     1      21.928  -0.886  55.008  1.00  0.00     0.010 A 
HETATM    3  C7  UNL     1      23.289  -1.049  55.137  1.00  0.00     0.030 A 
HETATM    4  C8  UNL     1      24.146  -0.830  54.095  1.00  0.00     0.035 A 
HETATM    5  C14 UNL     1      23.632  -0.430  52.861  1.00  0.00     0.030 A 
HETATM    6  C15 UNL     1      22.273  -0.277  52.769  1.00  0.00     0.010 A 
ENDROOT
BRANCH   4   7
HETATM    7  N2  UNL     1      25.567  -0.976  54.142  1.00  0.00    -0.323 N 
HETATM    8  C9  UNL     1      26.292   0.179  53.751  1.00  0.00     0.261 C 
HETATM    9  O1  UNL     1      25.566   1.154  53.423  1.00  0.00    -0.267 OA
HETATM   10  H11 UNL     1      26.069  -1.836  54.432  1.00  0.00     0.169 HD
BRANCH   8  11
HETATM   11  C10 UNL     1      27.746   0.238  53.730  1.00  0.00     0.097 A 
HETATM   12  C11 UNL     1      28.513  -0.817  53.511  1.00  0.00     0.015 A 
HETATM   13  C12 UNL     1      29.942  -0.423  53.556  1.00  0.00     0.151 A 
HETATM   14  N3  UNL     1      29.883   0.981  53.828  1.00  0.00    -0.353 N 
HETATM   15  C13 UNL     1      28.541   1.418  53.940  1.00  0.00     0.257 A 
HETATM   16  H15 UNL     1      30.810   1.494  53.906  1.00  0.00     0.163 HD
HETATM   17  O2  UNL     1      28.209   2.603  54.175  1.00  0.00    -0.267 OA
ENDBRANCH   8  11
ENDBRANCH   4   7
BRANCH   1  18
HETATM   18  C4  UNL     1      19.931  -0.295  53.589  1.00  0.00     0.022 C 
HETATM   19  C3  UNL     1      19.673   0.530  52.354  1.00  0.00     0.039 C 
HETATM   20  C2  UNL     1      18.420   0.175  51.638  1.00  0.00     0.272 C 
HETATM   21  N1  UNL     1      17.356  -0.354  52.420  1.00  0.00     0.084 N 
HETATM   22  C1  UNL     1      16.472  -1.085  51.507  1.00  0.00     0.309 C 
HETATM   23  C17 UNL     1      17.707  -1.233  53.483  1.00  0.00     0.272 C 
HETATM   24  C16 UNL     1      19.176  -1.592  53.414  1.00  0.00     0.039 C 
ENDBRANCH   1  18
TORSDOF 3
ENDMDL
MODEL 3
REMARK VINA RESULT:      -7.8      2.706      8.567
REMARK  3 active torsions:
REMARK  status: ('A' for Active; 'I' for Inactive)
REMARK    1  A    between atoms: C4_5  and  C5_6 
REMARK    2  A    between atoms: C8_9  and  N2_10 
REMARK       I    between atoms: N2_10  and  C9_11 
REMARK    3  A    between atoms: C9_11  and  C10_13 
ROOT
HETATM    1  C5  UNL     1      24.318  -0.132  53.872  1.00  0.00    -0.054 A 
HETATM    2  C6  UNL     1      23.239  -0.831  54.323  1.00  0.00     0.010 A 
HETATM    3  C7  UNL     1      21.958  -0.417  54.031  1.00  0.00     0.030 A 
HETATM    4  C8  UNL     1      21.712   0.701  53.285  1.00  0.00     0.035 A 
HETATM    5  C14 UNL     1      22.786   1.449  52.801  1.00  0.00     0.030 A 
HETATM    6  C15 UNL     1      24.046   1.008  53.110  1.00  0.00     0.010 A 
ENDROOT
BRANCH   4   7
HETATM    7  N2  UNL     1      20.419   1.200  52.936  1.00  0.00    -0.323 N 
HETATM    8  C9  UNL     1      19.975   0.837  51.639  1.00  0.00     0.261 C 
HETATM    9  O1  UNL     1      20.795   0.128  50.997  1.00  0.00    -0.267 OA
HETATM   10  H11 UNL     1      19.820   1.783  53.550  1.00  0.00     0.169 HD
BRANCH   8  11
HETATM   11  C10 UNL     1      18.688   1.242  51.094  1.00  0.00     0.097 A 
HETATM   12  C11 UNL     1      17.958   0.472  50.304  1.00  0.00     0.015 A 
HETATM   13  C12 UNL     1      16.710   1.174  49.923  1.00  0.00     0.151 A 
HETATM   14  N3  UNL     1      16.827   2.433  50.596  1.00  0.00    -0.353 N 
HETATM   15  C13 UNL     1      18.038   2.503  51.326  1.00  0.00     0.257 A 
HETATM   16  H15 UNL     1      16.029   3.122  50.468  1.00  0.00     0.163 HD
HETATM   17  O2  UNL     1      18.388   3.496  52.006  1.00  0.00    -0.267 OA
ENDBRANCH   8  11
ENDBRANCH   4   7
BRANCH   1  18
HETATM   18  C4  UNL     1      25.731  -0.500  54.134  1.00  0.00     0.022 C 
HETATM   19  C3  UNL     1      26.360  -1.181  52.947  1.00  0.00     0.039 C 
HETATM   20  C2  UNL     1      27.813  -0.911  52.792  1.00  0.00     0.272 C 
HETATM   21  N1  UNL     1      28.550  -0.643  53.979  1.00  0.00     0.084 N 
HETATM   22  C1  UNL     1      29.766   0.072  53.579  1.00  0.00     0.309 C 
HETATM   23  C17 UNL     1      27.903   0.126  54.986  1.00  0.00     0.272 C 
HETATM   24  C16 UNL     1      26.598   0.692  54.466  1.00  0.00     0.039 C 
ENDBRANCH   1  18
TORSDOF 3
ENDMDL
MODEL 4
REMARK VINA RESULT:      -7.7      2.570      8.914
REMARK  3 active torsions:
REMARK  status: ('A' for Active; 'I' for Inactive)
REMARK    1  A    between atoms: C4_5  and  C5_6 
REMARK    2  A    between atoms: C8_9  and  N2_10 
REMARK       I    between atoms: N2_10  and  C9_11 
REMARK    3  A    between atoms: C9_11  and  C10_13 
ROOT
HETATM    1  C5  UNL     1      24.326   0.287  53.321  1.00  0.00    -0.054 A 
HETATM    2  C6  UNL     1      23.496   1.313  52.981  1.00  0.00     0.010 A 
HETATM    3  C7  UNL     1      22.130   1.185  53.098  1.00  0.00     0.030 A 
HETATM    4  C8  UNL     1      21.549   0.035  53.555  1.00  0.00     0.035 A 
HETATM    5  C14 UNL     1      22.358  -1.043  53.916  1.00  0.00     0.030 A 
HETATM    6  C15 UNL     1      23.712  -0.879  53.787  1.00  0.00     0.010 A 
ENDROOT
BRANCH   4   7
HETATM    7  N2  UNL     1      20.144  -0.183  53.707  1.00  0.00    -0.323 N 
HETATM    8  C9  UNL     1      19.418  -0.226  52.489  1.00  0.00     0.261 C 
HETATM    9  O1  UNL     1      20.130  -0.065  51.463  1.00  0.00    -0.267 OA
HETATM   10  H11 UNL     1      19.654  -0.305  54.613  1.00  0.00     0.169 HD
BRANCH   8  11
HETATM   11  C10 UNL     1      17.980  -0.438  52.426  1.00  0.00     0.097 A 
HETATM   12  C11 UNL     1      17.160   0.339  51.737  1.00  0.00     0.015 A 
HETATM   13  C12 UNL     1      15.766  -0.145  51.878  1.00  0.00     0.151 A 
HETATM   14  N3  UNL     1      15.902  -1.287  52.730  1.00  0.00    -0.353 N 
HETATM   15  C13 UNL     1      17.258  -1.493  53.084  1.00  0.00     0.257 A 
HETATM   16  H15 UNL     1      15.012  -1.811  52.977  1.00  0.00     0.163 HD
HETATM   17  O2  UNL     1      17.654  -2.425  53.822  1.00  0.00    -0.267 OA
ENDBRANCH   8  11
ENDBRANCH   4   7
BRANCH   1  18
HETATM   18  C4  UNL     1      25.805   0.333  53.230  1.00  0.00     0.022 C 
HETATM   19  C3  UNL     1      26.277   1.491  52.388  1.00  0.00     0.039 C 
HETATM   20  C2  UNL     1      27.578   2.064  52.819  1.00  0.00     0.272 C 
HETATM   21  N1  UNL     1      28.493   1.181  53.458  1.00  0.00     0.084 N 
HETATM   22  C1  UNL     1      29.426   2.010  54.226  1.00  0.00     0.309 C 
HETATM   23  C17 UNL     1      27.947   0.207  54.340  1.00  0.00     0.272 C 
HETATM   24  C16 UNL     1      26.475   0.470  54.577  1.00  0.00     0.039 C 
ENDBRANCH   1  18
TORSDOF 3
ENDMDL
MODEL 5
REMARK VINA RESULT:      -7.5      6.146      8.759
REMARK  3 active torsions:
REMARK  status: ('A' for Active; 'I' for Inactive)
REMARK    1  A    between atoms: C4_5  and  C5_6 
REMARK    2  A    between atoms: C8_9  and  N2_10 
REMARK       I    between atoms: N2_10  and  C9_11 
REMARK    3  A    between atoms: C9_11  and  C10_13 
ROOT
HETATM    1  C5  UNL     1      26.239   5.969  49.101  1.00  0.00    -0.054 A 
HETATM    2  C6  UNL     1      25.260   5.846  50.040  1.00  0.00     0.010 A 
HETATM    3  C7  UNL     1      25.033   4.643  50.670  1.00  0.00     0.030 A 
HETATM    4  C8  UNL     1      25.771   3.528  50.385  1.00  0.00     0.035 A 
HETATM    5  C14 UNL     1      26.785   3.606  49.430  1.00  0.00     0.030 A 
HETATM    6  C15 UNL     1      26.983   4.819  48.824  1.00  0.00     0.010 A 
ENDROOT
BRANCH   4   7
HETATM    7  N2  UNL     1      25.603   2.243  50.989  1.00  0.00    -0.323 N 
HETATM    8  C9  UNL     1      26.667   1.848  51.841  1.00  0.00     0.261 C 
HETATM    9  O1  UNL     1      27.594   2.695  51.930  1.00  0.00    -0.267 OA
HETATM   10  H11 UNL     1      24.788   1.619  50.845  1.00  0.00     0.169 HD
BRANCH   8  11
HETATM   11  C10 UNL     1      26.688   0.578  52.551  1.00  0.00     0.097 A 
HETATM   12  C11 UNL     1      26.736  -0.595  51.941  1.00  0.00     0.015 A 
HETATM   13  C12 UNL     1      26.745  -1.687  52.944  1.00  0.00     0.151 A 
HETATM   14  N3  UNL     1      26.696  -0.985  54.191  1.00  0.00    -0.353 N 
HETATM   15  C13 UNL     1      26.660   0.415  53.979  1.00  0.00     0.257 A 
HETATM   16  H15 UNL     1      26.693  -1.575  55.074  1.00  0.00     0.163 HD
HETATM   17  O2  UNL     1      26.615   1.260  54.903  1.00  0.00    -0.267 OA
ENDBRANCH   8  11
ENDBRANCH   4   7
BRANCH   1  18
HETATM   18  C4  UNL     1      26.556   7.222  48.372  1.00  0.00     0.022 C 
HETATM   19  C3  UNL     1      26.605   8.409  49.298  1.00  0.00     0.039 C 
HETATM   20  C2  UNL     1      27.580   9.455  48.894  1.00  0.00     0.272 C 
HETATM   21  N1  UNL     1      27.857   9.578  47.503  1.00  0.00     0.084 N 
HETATM   22  C1  UNL     1      29.150  10.255  47.379  1.00  0.00     0.309 C 
HETATM   23  C17 UNL     1      27.920   8.375  46.745  1.00  0.00     0.272 C 
HETATM   24  C16 UNL     1      27.887   7.168  47.659  1.00  0.00     0.039 C 
ENDBRANCH   1  18
TORSDOF 3
ENDMDL
MODEL 6
REMARK VINA RESULT:      -7.4      3.017      8.757
REMARK  3 active torsions:
REMARK  status: ('A' for Active; 'I' for Inactive)
REMARK    1  A    between atoms: C4_5  and  C5_6 
REMARK    2  A    between atoms: C8_9  and  N2_10 
REMARK       I    between atoms: N2_10  and  C9_11 
REMARK    3  A    between atoms: C9_11  and  C10_13 
ROOT
HETATM    1  C5  UNL     1      23.946  -0.074  53.214  1.00  0.00    -0.054 A 
HETATM    2  C6  UNL     1      22.818  -0.705  53.642  1.00  0.00     0.010 A 
HETATM    3  C7  UNL     1      21.593  -0.417  53.083  1.00  0.00     0.030 A 
HETATM    4  C8  UNL     1      21.453   0.505  52.084  1.00  0.00     0.035 A 
HETATM    5  C14 UNL     1      22.581   1.177  51.613  1.00  0.00     0.030 A 
HETATM    6  C15 UNL     1      23.783   0.865  52.191  1.00  0.00     0.010 A 
ENDROOT
BRANCH   4   7
HETATM    7  N2  UNL     1      20.223   0.864  51.450  1.00  0.00    -0.323 N 
HETATM    8  C9  UNL     1      19.587   2.007  51.999  1.00  0.00     0.261 C 
HETATM    9  O1  UNL     1      20.210   2.527  52.962  1.00  0.00    -0.267 OA
HETATM   10  H11 UNL     1      19.794   0.359  50.652  1.00  0.00     0.169 HD
BRANCH   8  11
HETATM   11  C10 UNL     1      18.328   2.536  51.497  1.00  0.00     0.097 A 
HETATM   12  C11 UNL     1      18.057   3.830  51.436  1.00  0.00     0.015 A 
HETATM   13  C12 UNL     1      16.698   4.037  50.880  1.00  0.00     0.151 A 
HETATM   14  N3  UNL     1      16.239   2.702  50.637  1.00  0.00    -0.353 N 
HETATM   15  C13 UNL     1      17.224   1.755  51.008  1.00  0.00     0.257 A 
HETATM   16  H15 UNL     1      15.265   2.597  50.228  1.00  0.00     0.163 HD
HETATM   17  O2  UNL     1      17.079   0.516  50.897  1.00  0.00    -0.267 OA
ENDBRANCH   8  11
ENDBRANCH   4   7
BRANCH   1  18
HETATM   18  C4  UNL     1      25.306  -0.318  53.754  1.00  0.00     0.022 C 
HETATM   19  C3  UNL     1      26.154  -1.109  52.794  1.00  0.00     0.039 C 
HETATM   20  C2  UNL     1      27.601  -0.775  52.845  1.00  0.00     0.272 C 
HETATM   21  N1  UNL     1      28.114  -0.309  54.088  1.00  0.00     0.084 N 
HETATM   22  C1  UNL     1      29.352   0.420  53.798  1.00  0.00     0.309 C 
HETATM   23  C17 UNL     1      27.275   0.546  54.856  1.00  0.00     0.272 C 
HETATM   24  C16 UNL     1      26.058   0.958  54.055  1.00  0.00     0.039 C 
ENDBRANCH   1  18
TORSDOF 3
ENDMDL
MODEL 7
REMARK VINA RESULT:      -7.4      2.598      8.777
REMARK  3 active torsions:
REMARK  status: ('A' for Active; 'I' for Inactive)
REMARK    1  A    between atoms: C4_5  and  C5_6 
REMARK    2  A    between atoms: C8_9  and  N2_10 
REMARK       I    between atoms: N2_10  and  C9_11 
REMARK    3  A    between atoms: C9_11  and  C10_13 
ROOT
HETATM    1  C5  UNL     1      24.363   0.764  53.127  1.00  0.00    -0.054 A 
HETATM    2  C6  UNL     1      23.791  -0.457  53.319  1.00  0.00     0.010 A 
HETATM    3  C7  UNL     1      22.521  -0.722  52.856  1.00  0.00     0.030 A 
HETATM    4  C8  UNL     1      21.784   0.216  52.190  1.00  0.00     0.035 A 
HETATM    5  C14 UNL     1      22.328   1.482  51.970  1.00  0.00     0.030 A 
HETATM    6  C15 UNL     1      23.593   1.710  52.443  1.00  0.00     0.010 A 
ENDROOT
BRANCH   4   7
HETATM    7  N2  UNL     1      20.462   0.026  51.678  1.00  0.00    -0.323 N 
HETATM    8  C9  UNL     1      19.466  -0.159  52.670  1.00  0.00     0.261 C 
HETATM    9  O1  UNL     1      19.905  -0.126  53.850  1.00  0.00    -0.267 OA
HETATM   10  H11 UNL     1      20.209   0.017  50.672  1.00  0.00     0.169 HD
BRANCH   8  11
HETATM   11  C10 UNL     1      18.060  -0.368  52.358  1.00  0.00     0.097 A 
HETATM   12  C11 UNL     1      17.319  -1.304  52.929  1.00  0.00     0.015 A 
HETATM   13  C12 UNL     1      15.938  -1.254  52.394  1.00  0.00     0.151 A 
HETATM   14  N3  UNL     1      15.993  -0.176  51.452  1.00  0.00    -0.353 N 
HETATM   15  C13 UNL     1      17.290   0.390  51.408  1.00  0.00     0.257 A 
HETATM   16  H15 UNL     1      15.096   0.052  50.931  1.00  0.00     0.163 HD
HETATM   17  O2  UNL     1      17.610   1.348  50.668  1.00  0.00    -0.267 OA
ENDBRANCH   8  11
ENDBRANCH   4   7
BRANCH   1  18
HETATM   18  C4  UNL     1      25.721   1.141  53.587  1.00  0.00     0.022 C 
HETATM   19  C3  UNL     1      26.218   0.220  54.671  1.00  0.00     0.039 C 
HETATM   20  C2  UNL     1      27.689   0.008  54.660  1.00  0.00     0.272 C 
HETATM   21  N1  UNL     1      28.491   1.067  54.152  1.00  0.00     0.084 N 
HETATM   22  C1  UNL     1      29.778   0.484  53.762  1.00  0.00     0.309 C 
HETATM   23  C17 UNL     1      27.982   1.789  53.036  1.00  0.00     0.272 C 
HETATM   24  C16 UNL     1      26.749   1.108  52.481  1.00  0.00     0.039 C 
ENDBRANCH   1  18
TORSDOF 3
ENDMDL
MODEL 8
REMARK VINA RESULT:      -7.4      5.611      9.269
REMARK  3 active torsions:
REMARK  status: ('A' for Active; 'I' for Inactive)
REMARK    1  A    between atoms: C4_5  and  C5_6 
REMARK    2  A    between atoms: C8_9  and  N2_10 
REMARK       I    between atoms: N2_10  and  C9_11 
REMARK    3  A    between atoms: C9_11  and  C10_13 
ROOT
HETATM    1  C5  UNL     1      26.484   5.404  48.825  1.00  0.00    -0.054 A 
HETATM    2  C6  UNL     1      25.150   5.569  49.051  1.00  0.00     0.010 A 
HETATM    3  C7  UNL     1      24.397   4.554  49.597  1.00  0.00     0.030 A 
HETATM    4  C8  UNL     1      24.945   3.348  49.934  1.00  0.00     0.035 A 
HETATM    5  C14 UNL     1      26.306   3.133  49.721  1.00  0.00     0.030 A 
HETATM    6  C15 UNL     1      27.025   4.164  49.177  1.00  0.00     0.010 A 
ENDROOT
BRANCH   4   7
HETATM    7  N2  UNL     1      24.237   2.244  50.504  1.00  0.00    -0.323 N 
HETATM    8  C9  UNL     1      24.258   2.198  51.922  1.00  0.00     0.261 C 
HETATM    9  O1  UNL     1      24.898   3.142  52.456  1.00  0.00    -0.267 OA
HETATM   10  H11 UNL     1      23.737   1.514  49.964  1.00  0.00     0.169 HD
BRANCH   8  11
HETATM   11  C10 UNL     1      23.598   1.157  52.695  1.00  0.00     0.097 A 
HETATM   12  C11 UNL     1      22.306   1.173  52.982  1.00  0.00     0.015 A 
HETATM   13  C12 UNL     1      21.950  -0.024  53.780  1.00  0.00     0.151 A 
HETATM   14  N3  UNL     1      23.198  -0.715  53.906  1.00  0.00    -0.353 N 
HETATM   15  C13 UNL     1      24.233  -0.009  53.246  1.00  0.00     0.257 A 
HETATM   16  H15 UNL     1      23.189  -1.626  54.452  1.00  0.00     0.163 HD
HETATM   17  O2  UNL     1      25.424  -0.396  53.202  1.00  0.00    -0.267 OA
ENDBRANCH   8  11
ENDBRANCH   4   7
BRANCH   1  18
HETATM   18  C4  UNL     1      27.374   6.437  48.242  1.00  0.00     0.022 C 
HETATM   19  C3  UNL     1      27.290   7.738  48.999  1.00  0.00     0.039 C 
HETATM   20  C2  UNL     1      28.560   8.509  49.024  1.00  0.00     0.272 C 
HETATM   21  N1  UNL     1      29.440   8.342  47.918  1.00  0.00     0.084 N 
HETATM   22  C1  UNL     1      30.775   8.747  48.364  1.00  0.00     0.309 C 
HETATM   23  C17 UNL     1      29.544   7.035  47.362  1.00  0.00     0.272 C 
HETATM   24  C16 UNL     1      28.828   6.027  48.237  1.00  0.00     0.039 C 
ENDBRANCH   1  18
TORSDOF 3
ENDMDL
MODEL 9
REMARK VINA RESULT:      -7.1      6.230      9.902
REMARK  3 active torsions:
REMARK  status: ('A' for Active; 'I' for Inactive)
REMARK    1  A    between atoms: C4_5  and  C5_6 
REMARK    2  A    between atoms: C8_9  and  N2_10 
REMARK       I    between atoms: N2_10  and  C9_11 
REMARK    3  A    between atoms: C9_11  and  C10_13 
ROOT
HETATM    1  C5  UNL     1      27.273   6.031  48.640  1.00  0.00    -0.054 A 
HETATM    2  C6  UNL     1      27.653   4.723  48.675  1.00  0.00     0.010 A 
HETATM    3  C7  UNL     1      26.805   3.754  49.162  1.00  0.00     0.030 A 
HETATM    4  C8  UNL     1      25.556   4.056  49.628  1.00  0.00     0.035 A 
HETATM    5  C14 UNL     1      25.123   5.381  49.613  1.00  0.00     0.030 A 
HETATM    6  C15 UNL     1      25.992   6.319  49.121  1.00  0.00     0.010 A 
ENDROOT
BRANCH   4   7
HETATM    7  N2  UNL     1      24.614   3.115  50.150  1.00  0.00    -0.323 N 
HETATM    8  C9  UNL     1      25.047   2.429  51.313  1.00  0.00     0.261 C 
HETATM    9  O1  UNL     1      26.197   2.759  51.705  1.00  0.00    -0.267 OA
HETATM   10  H11 UNL     1      23.680   2.919  49.743  1.00  0.00     0.169 HD
BRANCH   8  11
HETATM   11  C10 UNL     1      24.237   1.433  51.999  1.00  0.00     0.097 A 
HETATM   12  C11 UNL     1      24.660   0.752  53.051  1.00  0.00     0.015 A 
HETATM   13  C12 UNL     1      23.602  -0.179  53.511  1.00  0.00     0.151 A 
HETATM   14  N3  UNL     1      22.533   0.062  52.588  1.00  0.00    -0.353 N 
HETATM   15  C13 UNL     1      22.897   1.052  51.644  1.00  0.00     0.257 A 
HETATM   16  H15 UNL     1      21.646  -0.505  52.723  1.00  0.00     0.163 HD
HETATM   17  O2  UNL     1      22.144   1.452  50.726  1.00  0.00    -0.267 OA
ENDBRANCH   8  11
ENDBRANCH   4   7
BRANCH   1  18
HETATM   18  C4  UNL     1      28.116   7.141  48.134  1.00  0.00     0.022 C 
HETATM   19  C3  UNL     1      28.004   8.368  49.002  1.00  0.00     0.039 C 
HETATM   20  C2  UNL     1      29.247   9.178  49.072  1.00  0.00     0.272 C 
HETATM   21  N1  UNL     1      30.110   9.138  47.941  1.00  0.00     0.084 N 
HETATM   22  C1  UNL     1      31.440   9.550  48.398  1.00  0.00     0.309 C 
HETATM   23  C17 UNL     1      30.247   7.888  47.273  1.00  0.00     0.272 C 
HETATM   24  C16 UNL     1      29.583   6.784  48.069  1.00  0.00     0.039 C 
ENDBRANCH   1  18
TORSDOF 3
ENDMDL
