MODEL 1
REMARK VINA RESULT:      -7.0      0.000      0.000
REMARK  6 active torsions:
REMARK  status: ('A' for Active; 'I' for Inactive)
REMARK    1  A    between atoms: C2_2  and  C3_3 
REMARK    2  A    between atoms: C4_4  and  C5_5 
REMARK    3  A    between atoms: C5_5  and  O1_6 
REMARK    4  A    between atoms: O1_6  and  C6_7 
REMARK    5  A    between atoms: C9_10  and  N1_11 
REMARK    6  A    between atoms: C12_16  and  C13_17 
ROOT
HETATM    1  C6  UNL     1      25.920   2.236  51.225  1.00  0.00     0.069 A 
HETATM    2  C7  UNL     1      26.430   1.125  51.862  1.00  0.00     0.039 A 
HETATM    3  C8  UNL     1      25.469   0.385  52.559  1.00  0.00     0.034 A 
HETATM    4  C9  UNL     1      24.104   0.660  52.661  1.00  0.00     0.054 A 
HETATM    5  C14 UNL     1      23.703   1.791  51.988  1.00  0.00     0.034 A 
HETATM    6  C15 UNL     1      24.585   2.573  51.279  1.00  0.00     0.039 A 
ENDROOT
BRANCH   4   7
HETATM    7  N1  UNL     1      23.308  -0.247  53.453  1.00  0.00    -0.258 N 
HETATM    8  N2  UNL     1      24.109  -0.544  54.537  1.00  0.00    -0.165 NA
HETATM    9  C10 UNL     1      23.751  -1.343  55.480  1.00  0.00     0.254 A 
HETATM   10  N3  UNL     1      22.457  -1.956  55.399  1.00  0.00    -0.254 NA
HETATM   11  C11 UNL     1      21.678  -1.695  54.381  1.00  0.00     0.119 A 
HETATM   12  C12 UNL     1      21.985  -0.799  53.242  1.00  0.00     0.161 A 
BRANCH  12  13
HETATM   13  C13 UNL     1      20.979   0.326  53.256  1.00  0.00     0.118 C 
HETATM   14 BR1  UNL     1      20.075   0.459  51.537  1.00  0.00    -0.094 Br
ENDBRANCH  12  13
ENDBRANCH   4   7
BRANCH   1  15
HETATM   15  O1  UNL     1      26.844   2.997  50.521  1.00  0.00    -0.347 OA
BRANCH  15  16
HETATM   16  C5  UNL     1      26.361   3.838  49.499  1.00  0.00     0.203 C 
BRANCH  16  17
HETATM   17  C4  UNL     1      27.498   4.563  48.886  1.00  0.00    -0.001 C 
HETATM   18  C3  UNL     1      27.470   5.821  48.487  1.00  0.00    -0.006 C 
BRANCH  18  19
HETATM   19  C2  UNL     1      28.670   6.403  47.899  1.00  0.00    -0.027 C 
HETATM   20  C1  UNL     1      29.837   5.784  47.964  1.00  0.00     0.031 C 
ENDBRANCH  18  19
ENDBRANCH  16  17
ENDBRANCH  15  16
ENDBRANCH   1  15
TORSDOF 6
ENDMDL
MODEL 2
REMARK VINA RESULT:      -6.9      3.760      8.142
REMARK  6 active torsions:
REMARK  status: ('A' for Active; 'I' for Inactive)
REMARK    1  A    between atoms: C2_2  and  C3_3 
REMARK    2  A    between atoms: C4_4  and  C5_5 
REMARK    3  A    between atoms: C5_5  and  O1_6 
REMARK    4  A    between atoms: O1_6  and  C6_7 
REMARK    5  A    between atoms: C9_10  and  N1_11 
REMARK    6  A    between atoms: C12_16  and  C13_17 
ROOT
HETATM    1  C6  UNL     1      22.089  -0.559  53.547  1.00  0.00     0.069 A 
HETATM    2  C7  UNL     1      23.055  -1.163  54.323  1.00  0.00     0.039 A 
HETATM    3  C8  UNL     1      24.306  -0.541  54.249  1.00  0.00     0.034 A 
HETATM    4  C9  UNL     1      24.645   0.583  53.493  1.00  0.00     0.054 A 
HETATM    5  C14 UNL     1      23.607   1.104  52.756  1.00  0.00     0.034 A 
HETATM    6  C15 UNL     1      22.347   0.553  52.775  1.00  0.00     0.039 A 
ENDROOT
BRANCH   4   7
HETATM    7  N1  UNL     1      26.014   1.036  53.566  1.00  0.00    -0.258 N 
HETATM    8  N2  UNL     1      26.592   0.218  54.517  1.00  0.00    -0.165 NA
HETATM    9  C10 UNL     1      27.823   0.319  54.878  1.00  0.00     0.254 A 
HETATM   10  N3  UNL     1      28.633   1.330  54.264  1.00  0.00    -0.254 NA
HETATM   11  C11 UNL     1      28.111   2.121  53.362  1.00  0.00     0.119 A 
HETATM   12  C12 UNL     1      26.712   2.100  52.874  1.00  0.00     0.161 A 
BRANCH  12  13
HETATM   13  C13 UNL     1      26.744   1.783  51.398  1.00  0.00     0.118 C 
HETATM   14 BR1  UNL     1      25.900   3.206  50.373  1.00  0.00    -0.094 Br
ENDBRANCH  12  13
ENDBRANCH   4   7
BRANCH   1  15
HETATM   15  O1  UNL     1      20.832  -1.148  53.595  1.00  0.00    -0.347 OA
BRANCH  15  16
HETATM   16  C5  UNL     1      19.709  -0.316  53.416  1.00  0.00     0.203 C 
BRANCH  16  17
HETATM   17  C4  UNL     1      18.518  -1.154  53.148  1.00  0.00    -0.001 C 
HETATM   18  C3  UNL     1      18.254  -2.306  53.736  1.00  0.00    -0.006 C 
BRANCH  18  19
HETATM   19  C2  UNL     1      17.039  -3.024  53.370  1.00  0.00    -0.027 C 
HETATM   20  C1  UNL     1      16.976  -4.344  53.427  1.00  0.00     0.031 C 
ENDBRANCH  18  19
ENDBRANCH  16  17
ENDBRANCH  15  16
ENDBRANCH   1  15
TORSDOF 6
ENDMDL
MODEL 3
REMARK VINA RESULT:      -6.9      3.235      5.049
REMARK  6 active torsions:
REMARK  status: ('A' for Active; 'I' for Inactive)
REMARK    1  A    between atoms: C2_2  and  C3_3 
REMARK    2  A    between atoms: C4_4  and  C5_5 
REMARK    3  A    between atoms: C5_5  and  O1_6 
REMARK    4  A    between atoms: O1_6  and  C6_7 
REMARK    5  A    between atoms: C9_10  and  N1_11 
REMARK    6  A    between atoms: C12_16  and  C13_17 
ROOT
HETATM    1  C6  UNL     1      27.013   2.139  52.676  1.00  0.00     0.069 A 
HETATM    2  C7  UNL     1      26.682   1.796  51.383  1.00  0.00     0.039 A 
HETATM    3  C8  UNL     1      25.325   1.503  51.209  1.00  0.00     0.034 A 
HETATM    4  C9  UNL     1      24.325   1.526  52.183  1.00  0.00     0.054 A 
HETATM    5  C14 UNL     1      24.767   1.880  53.438  1.00  0.00     0.034 A 
HETATM    6  C15 UNL     1      26.084   2.184  53.693  1.00  0.00     0.039 A 
ENDROOT
BRANCH   4   7
HETATM    7  N1  UNL     1      22.991   1.169  51.765  1.00  0.00    -0.258 N 
HETATM    8  N2  UNL     1      22.938   1.548  50.438  1.00  0.00    -0.165 NA
HETATM    9  C10 UNL     1      21.891   1.401  49.705  1.00  0.00     0.254 A 
HETATM   10  N3  UNL     1      20.722   0.817  50.296  1.00  0.00    -0.254 NA
HETATM   11  C11 UNL     1      20.742   0.452  51.552  1.00  0.00     0.119 A 
HETATM   12  C12 UNL     1      21.885   0.576  52.488  1.00  0.00     0.161 A 
BRANCH  12  13
HETATM   13  C13 UNL     1      22.276  -0.816  52.923  1.00  0.00     0.118 C 
HETATM   14 BR1  UNL     1      22.095  -1.006  54.852  1.00  0.00    -0.094 Br
ENDBRANCH  12  13
ENDBRANCH   4   7
BRANCH   1  15
HETATM   15  O1  UNL     1      28.353   2.437  52.889  1.00  0.00    -0.347 OA
BRANCH  15  16
HETATM   16  C5  UNL     1      28.974   1.894  54.032  1.00  0.00     0.203 C 
BRANCH  16  17
HETATM   17  C4  UNL     1      28.933   0.416  53.954  1.00  0.00    -0.001 C 
HETATM   18  C3  UNL     1      29.905  -0.346  53.486  1.00  0.00    -0.006 C 
BRANCH  18  19
HETATM   19  C2  UNL     1      29.723  -1.792  53.471  1.00  0.00    -0.027 C 
HETATM   20  C1  UNL     1      28.618  -2.341  52.994  1.00  0.00     0.031 C 
ENDBRANCH  18  19
ENDBRANCH  16  17
ENDBRANCH  15  16
ENDBRANCH   1  15
TORSDOF 6
ENDMDL
MODEL 4
REMARK VINA RESULT:      -6.9      4.524      5.498
REMARK  6 active torsions:
REMARK  status: ('A' for Active; 'I' for Inactive)
REMARK    1  A    between atoms: C2_2  and  C3_3 
REMARK    2  A    between atoms: C4_4  and  C5_5 
REMARK    3  A    between atoms: C5_5  and  O1_6 
REMARK    4  A    between atoms: O1_6  and  C6_7 
REMARK    5  A    between atoms: C9_10  and  N1_11 
REMARK    6  A    between atoms: C12_16  and  C13_17 
ROOT
HETATM    1  C6  UNL     1      24.112  -0.786  54.543  1.00  0.00     0.069 A 
HETATM    2  C7  UNL     1      23.998  -0.127  53.337  1.00  0.00     0.039 A 
HETATM    3  C8  UNL     1      22.676   0.043  52.914  1.00  0.00     0.034 A 
HETATM    4  C9  UNL     1      21.518  -0.376  53.572  1.00  0.00     0.054 A 
HETATM    5  C14 UNL     1      21.748  -1.024  54.764  1.00  0.00     0.034 A 
HETATM    6  C15 UNL     1      23.018  -1.231  55.252  1.00  0.00     0.039 A 
ENDROOT
BRANCH   4   7
HETATM    7  N1  UNL     1      20.257  -0.098  52.927  1.00  0.00    -0.258 N 
HETATM    8  N2  UNL     1      19.390  -1.034  53.457  1.00  0.00    -0.165 NA
HETATM    9  C10 UNL     1      18.152  -1.119  53.118  1.00  0.00     0.254 A 
HETATM   10  N3  UNL     1      17.648  -0.197  52.142  1.00  0.00    -0.254 NA
HETATM   11  C11 UNL     1      18.447   0.698  51.621  1.00  0.00     0.119 A 
HETATM   12  C12 UNL     1      19.884   0.885  51.931  1.00  0.00     0.161 A 
BRANCH  12  13
HETATM   13  C13 UNL     1      20.052   2.265  52.520  1.00  0.00     0.118 C 
HETATM   14 BR1  UNL     1      21.321   3.306  51.474  1.00  0.00    -0.094 Br
ENDBRANCH  12  13
ENDBRANCH   4   7
BRANCH   1  15
HETATM   15  O1  UNL     1      25.411  -0.975  54.998  1.00  0.00    -0.347 OA
BRANCH  15  16
HETATM   16  C5  UNL     1      26.261   0.148  55.044  1.00  0.00     0.203 C 
BRANCH  16  17
HETATM   17  C4  UNL     1      27.574  -0.210  54.461  1.00  0.00    -0.001 C 
HETATM   18  C3  UNL     1      28.510   0.653  54.111  1.00  0.00    -0.006 C 
BRANCH  18  19
HETATM   19  C2  UNL     1      29.758   0.152  53.548  1.00  0.00    -0.027 C 
HETATM   20  C1  UNL     1      30.109  -1.117  53.673  1.00  0.00     0.031 C 
ENDBRANCH  18  19
ENDBRANCH  16  17
ENDBRANCH  15  16
ENDBRANCH   1  15
TORSDOF 6
ENDMDL
MODEL 5
REMARK VINA RESULT:      -6.6      4.434      7.980
REMARK  6 active torsions:
REMARK  status: ('A' for Active; 'I' for Inactive)
REMARK    1  A    between atoms: C2_2  and  C3_3 
REMARK    2  A    between atoms: C4_4  and  C5_5 
REMARK    3  A    between atoms: C5_5  and  O1_6 
REMARK    4  A    between atoms: O1_6  and  C6_7 
REMARK    5  A    between atoms: C9_10  and  N1_11 
REMARK    6  A    between atoms: C12_16  and  C13_17 
ROOT
HETATM    1  C6  UNL     1      21.279  -0.377  53.672  1.00  0.00     0.069 A 
HETATM    2  C7  UNL     1      21.972   0.237  52.651  1.00  0.00     0.039 A 
HETATM    3  C8  UNL     1      23.361   0.193  52.809  1.00  0.00     0.034 A 
HETATM    4  C9  UNL     1      24.073  -0.389  53.860  1.00  0.00     0.054 A 
HETATM    5  C14 UNL     1      23.283  -0.971  54.824  1.00  0.00     0.034 A 
HETATM    6  C15 UNL     1      21.910  -0.972  54.743  1.00  0.00     0.039 A 
ENDROOT
BRANCH   4   7
HETATM    7  N1  UNL     1      25.512  -0.294  53.811  1.00  0.00    -0.258 N 
HETATM    8  N2  UNL     1      25.896  -1.359  53.019  1.00  0.00    -0.165 NA
HETATM    9  C10 UNL     1      27.124  -1.624  52.743  1.00  0.00     0.254 A 
HETATM   10  N3  UNL     1      28.144  -0.774  53.286  1.00  0.00    -0.254 NA
HETATM   11  C11 UNL     1      27.810   0.240  54.042  1.00  0.00     0.119 A 
HETATM   12  C12 UNL     1      26.435   0.637  54.428  1.00  0.00     0.161 A 
BRANCH  12  13
HETATM   13  C13 UNL     1      26.181   2.017  53.871  1.00  0.00     0.118 C 
HETATM   14 BR1  UNL     1      26.586   2.071  51.967  1.00  0.00    -0.094 Br
ENDBRANCH  12  13
ENDBRANCH   4   7
BRANCH   1  15
HETATM   15  O1  UNL     1      19.895  -0.355  53.551  1.00  0.00    -0.347 OA
BRANCH  15  16
HETATM   16  C5  UNL     1      19.348   0.146  52.353  1.00  0.00     0.203 C 
BRANCH  16  17
HETATM   17  C4  UNL     1      18.109  -0.600  52.034  1.00  0.00    -0.001 C 
HETATM   18  C3  UNL     1      17.342  -1.211  52.917  1.00  0.00    -0.006 C 
BRANCH  18  19
HETATM   19  C2  UNL     1      16.148  -1.909  52.455  1.00  0.00    -0.027 C 
HETATM   20  C1  UNL     1      15.421  -1.439  51.455  1.00  0.00     0.031 C 
ENDBRANCH  18  19
ENDBRANCH  16  17
ENDBRANCH  15  16
ENDBRANCH   1  15
TORSDOF 6
ENDMDL
MODEL 6
REMARK VINA RESULT:      -6.6      3.650      5.466
REMARK  6 active torsions:
REMARK  status: ('A' for Active; 'I' for Inactive)
REMARK    1  A    between atoms: C2_2  and  C3_3 
REMARK    2  A    between atoms: C4_4  and  C5_5 
REMARK    3  A    between atoms: C5_5  and  O1_6 
REMARK    4  A    between atoms: O1_6  and  C6_7 
REMARK    5  A    between atoms: C9_10  and  N1_11 
REMARK    6  A    between atoms: C12_16  and  C13_17 
ROOT
HETATM    1  C6  UNL     1      26.384   2.454  52.061  1.00  0.00     0.069 A 
HETATM    2  C7  UNL     1      25.603   2.426  53.196  1.00  0.00     0.039 A 
HETATM    3  C8  UNL     1      24.250   2.685  52.954  1.00  0.00     0.034 A 
HETATM    4  C9  UNL     1      23.650   2.956  51.722  1.00  0.00     0.054 A 
HETATM    5  C14 UNL     1      24.522   2.960  50.657  1.00  0.00     0.034 A 
HETATM    6  C15 UNL     1      25.866   2.715  50.811  1.00  0.00     0.039 A 
ENDROOT
BRANCH   4   7
HETATM    7  N1  UNL     1      22.229   3.207  51.724  1.00  0.00    -0.258 N 
HETATM    8  N2  UNL     1      21.709   2.214  52.531  1.00  0.00    -0.165 NA
HETATM    9  C10 UNL     1      20.452   2.092  52.776  1.00  0.00     0.254 A 
HETATM   10  N3  UNL     1      19.547   3.031  52.180  1.00  0.00    -0.254 NA
HETATM   11  C11 UNL     1      20.011   3.979  51.408  1.00  0.00     0.119 A 
HETATM   12  C12 UNL     1      21.431   4.214  51.054  1.00  0.00     0.161 A 
BRANCH  12  13
HETATM   13  C13 UNL     1      21.818   5.574  51.582  1.00  0.00     0.118 C 
HETATM   14 BR1  UNL     1      22.986   6.490  50.323  1.00  0.00    -0.094 Br
ENDBRANCH  12  13
ENDBRANCH   4   7
BRANCH   1  15
HETATM   15  O1  UNL     1      27.736   2.201  52.261  1.00  0.00    -0.347 OA
BRANCH  15  16
HETATM   16  C5  UNL     1      28.216   2.202  53.586  1.00  0.00     0.203 C 
BRANCH  16  17
HETATM   17  C4  UNL     1      28.667   0.837  53.942  1.00  0.00    -0.001 C 
HETATM   18  C3  UNL     1      29.598   0.155  53.302  1.00  0.00    -0.006 C 
BRANCH  18  19
HETATM   19  C2  UNL     1      29.939  -1.184  53.769  1.00  0.00    -0.027 C 
HETATM   20  C1  UNL     1      29.321  -2.254  53.298  1.00  0.00     0.031 C 
ENDBRANCH  18  19
ENDBRANCH  16  17
ENDBRANCH  15  16
ENDBRANCH   1  15
TORSDOF 6
ENDMDL
MODEL 7
REMARK VINA RESULT:      -6.6      4.710      5.690
REMARK  6 active torsions:
REMARK  status: ('A' for Active; 'I' for Inactive)
REMARK    1  A    between atoms: C2_2  and  C3_3 
REMARK    2  A    between atoms: C4_4  and  C5_5 
REMARK    3  A    between atoms: C5_5  and  O1_6 
REMARK    4  A    between atoms: O1_6  and  C6_7 
REMARK    5  A    between atoms: C9_10  and  N1_11 
REMARK    6  A    between atoms: C12_16  and  C13_17 
ROOT
HETATM    1  C6  UNL     1      23.941  -0.824  54.473  1.00  0.00     0.069 A 
HETATM    2  C7  UNL     1      23.771  -0.239  53.236  1.00  0.00     0.039 A 
HETATM    3  C8  UNL     1      22.435  -0.162  52.830  1.00  0.00     0.034 A 
HETATM    4  C9  UNL     1      21.312  -0.605  53.533  1.00  0.00     0.054 A 
HETATM    5  C14 UNL     1      21.597  -1.173  54.754  1.00  0.00     0.034 A 
HETATM    6  C15 UNL     1      22.883  -1.286  55.227  1.00  0.00     0.039 A 
ENDROOT
BRANCH   4   7
HETATM    7  N1  UNL     1      20.027  -0.429  52.899  1.00  0.00    -0.258 N 
HETATM    8  N2  UNL     1      20.325   0.158  51.685  1.00  0.00    -0.165 NA
HETATM    9  C10 UNL     1      19.429   0.486  50.823  1.00  0.00     0.254 A 
HETATM   10  N3  UNL     1      18.053   0.230  51.138  1.00  0.00    -0.254 NA
HETATM   11  C11 UNL     1      17.742  -0.322  52.283  1.00  0.00     0.119 A 
HETATM   12  C12 UNL     1      18.685  -0.736  53.348  1.00  0.00     0.161 A 
BRANCH  12  13
HETATM   13  C13 UNL     1      18.557  -2.231  53.521  1.00  0.00     0.118 C 
HETATM   14 BR1  UNL     1      16.765  -2.823  53.047  1.00  0.00    -0.094 Br
ENDBRANCH  12  13
ENDBRANCH   4   7
BRANCH   1  15
HETATM   15  O1  UNL     1      25.255  -0.918  54.912  1.00  0.00    -0.347 OA
BRANCH  15  16
HETATM   16  C5  UNL     1      26.078   0.217  54.773  1.00  0.00     0.203 C 
BRANCH  16  17
HETATM   17  C4  UNL     1      27.371  -0.188  54.175  1.00  0.00    -0.001 C 
HETATM   18  C3  UNL     1      28.502   0.484  54.285  1.00  0.00    -0.006 C 
BRANCH  18  19
HETATM   19  C2  UNL     1      29.700  -0.039  53.641  1.00  0.00    -0.027 C 
HETATM   20  C1  UNL     1      29.940  -1.339  53.586  1.00  0.00     0.031 C 
ENDBRANCH  18  19
ENDBRANCH  16  17
ENDBRANCH  15  16
ENDBRANCH   1  15
TORSDOF 6
ENDMDL
MODEL 8
REMARK VINA RESULT:      -6.5      4.280      5.520
REMARK  6 active torsions:
REMARK  status: ('A' for Active; 'I' for Inactive)
REMARK    1  A    between atoms: C2_2  and  C3_3 
REMARK    2  A    between atoms: C4_4  and  C5_5 
REMARK    3  A    between atoms: C5_5  and  O1_6 
REMARK    4  A    between atoms: O1_6  and  C6_7 
REMARK    5  A    between atoms: C9_10  and  N1_11 
REMARK    6  A    between atoms: C12_16  and  C13_17 
ROOT
HETATM    1  C6  UNL     1      24.245  -0.137  53.479  1.00  0.00     0.069 A 
HETATM    2  C7  UNL     1      24.477   0.958  52.673  1.00  0.00     0.039 A 
HETATM    3  C8  UNL     1      23.316   1.654  52.322  1.00  0.00     0.034 A 
HETATM    4  C9  UNL     1      22.005   1.352  52.698  1.00  0.00     0.054 A 
HETATM    5  C14 UNL     1      21.889   0.240  53.500  1.00  0.00     0.034 A 
HETATM    6  C15 UNL     1      22.981  -0.499  53.891  1.00  0.00     0.039 A 
ENDROOT
BRANCH   4   7
HETATM    7  N1  UNL     1      20.962   2.214  52.196  1.00  0.00    -0.258 N 
HETATM    8  N2  UNL     1      21.631   3.345  51.770  1.00  0.00    -0.165 NA
HETATM    9  C10 UNL     1      21.036   4.365  51.261  1.00  0.00     0.254 A 
HETATM   10  N3  UNL     1      19.609   4.327  51.130  1.00  0.00    -0.254 NA
HETATM   11  C11 UNL     1      18.949   3.269  51.527  1.00  0.00     0.119 A 
HETATM   12  C12 UNL     1      19.525   2.044  52.129  1.00  0.00     0.161 A 
BRANCH  12  13
HETATM   13  C13 UNL     1      19.213   0.888  51.209  1.00  0.00     0.118 C 
HETATM   14 BR1  UNL     1      18.168  -0.465  52.140  1.00  0.00    -0.094 Br
ENDBRANCH  12  13
ENDBRANCH   4   7
BRANCH   1  15
HETATM   15  O1  UNL     1      25.375  -0.855  53.850  1.00  0.00    -0.347 OA
BRANCH  15  16
HETATM   16  C5  UNL     1      26.182  -1.387  52.825  1.00  0.00     0.203 C 
BRANCH  16  17
HETATM   17  C4  UNL     1      27.579  -0.932  53.018  1.00  0.00    -0.001 C 
HETATM   18  C3  UNL     1      27.955   0.041  53.826  1.00  0.00    -0.006 C 
BRANCH  18  19
HETATM   19  C2  UNL     1      29.370   0.379  53.914  1.00  0.00    -0.027 C 
HETATM   20  C1  UNL     1      30.307  -0.484  53.559  1.00  0.00     0.031 C 
ENDBRANCH  18  19
ENDBRANCH  16  17
ENDBRANCH  15  16
ENDBRANCH   1  15
TORSDOF 6
ENDMDL
MODEL 9
REMARK VINA RESULT:      -6.5      1.846      2.380
REMARK  6 active torsions:
REMARK  status: ('A' for Active; 'I' for Inactive)
REMARK    1  A    between atoms: C2_2  and  C3_3 
REMARK    2  A    between atoms: C4_4  and  C5_5 
REMARK    3  A    between atoms: C5_5  and  O1_6 
REMARK    4  A    between atoms: O1_6  and  C6_7 
REMARK    5  A    between atoms: C9_10  and  N1_11 
REMARK    6  A    between atoms: C12_16  and  C13_17 
ROOT
HETATM    1  C6  UNL     1      25.346   3.826  50.017  1.00  0.00     0.069 A 
HETATM    2  C7  UNL     1      26.412   2.970  50.192  1.00  0.00     0.039 A 
HETATM    3  C8  UNL     1      26.232   2.053  51.232  1.00  0.00     0.034 A 
HETATM    4  C9  UNL     1      25.120   1.934  52.069  1.00  0.00     0.054 A 
HETATM    5  C14 UNL     1      24.116   2.838  51.808  1.00  0.00     0.034 A 
HETATM    6  C15 UNL     1      24.215   3.772  50.802  1.00  0.00     0.039 A 
ENDROOT
BRANCH   4   7
HETATM    7  N1  UNL     1      25.170   0.913  53.088  1.00  0.00    -0.258 N 
HETATM    8  N2  UNL     1      26.248   1.270  53.874  1.00  0.00    -0.165 NA
HETATM    9  C10 UNL     1      26.629   0.590  54.897  1.00  0.00     0.254 A 
HETATM   10  N3  UNL     1      25.900  -0.597  55.237  1.00  0.00    -0.254 NA
HETATM   11  C11 UNL     1      24.877  -0.961  54.508  1.00  0.00     0.119 A 
HETATM   12  C12 UNL     1      24.353  -0.262  53.311  1.00  0.00     0.161 A 
BRANCH  12  13
HETATM   13  C13 UNL     1      22.941   0.177  53.617  1.00  0.00     0.118 C 
HETATM   14 BR1  UNL     1      21.873  -1.330  54.230  1.00  0.00    -0.094 Br
ENDBRANCH  12  13
ENDBRANCH   4   7
BRANCH   1  15
HETATM   15  O1  UNL     1      25.487   4.753  48.992  1.00  0.00    -0.347 OA
BRANCH  15  16
HETATM   16  C5  UNL     1      25.687   6.102  49.348  1.00  0.00     0.203 C 
BRANCH  16  17
HETATM   17  C4  UNL     1      27.018   6.541  48.869  1.00  0.00    -0.001 C 
HETATM   18  C3  UNL     1      27.927   5.753  48.328  1.00  0.00    -0.006 C 
BRANCH  18  19
HETATM   19  C2  UNL     1      29.197   6.328  47.901  1.00  0.00    -0.027 C 
HETATM   20  C1  UNL     1      30.318   5.627  47.941  1.00  0.00     0.031 C 
ENDBRANCH  18  19
ENDBRANCH  16  17
ENDBRANCH  15  16
ENDBRANCH   1  15
TORSDOF 6
ENDMDL
