MODEL 1
REMARK VINA RESULT:      -8.1      0.000      0.000
REMARK  8 active torsions:
REMARK  status: ('A' for Active; 'I' for Inactive)
REMARK    1  A    between atoms: C2_2  and  N1_3 
REMARK    2  A    between atoms: N1_3  and  C4_5 
REMARK    3  A    between atoms: C4_5  and  C5_6 
REMARK    4  A    between atoms: C5_6  and  C6_7 
REMARK    5  A    between atoms: C12_14  and  N3_15 
REMARK    6  A    between atoms: N3_15  and  C13_16 
REMARK    7  A    between atoms: C16_21  and  N5_22 
REMARK    8  A    between atoms: C20_26  and  C21_27 
ROOT
HETATM    1  N3  UNL     1      23.605   2.542  49.611  1.00  0.00    -0.190 N 
HETATM    2  H21 UNL     1      23.728   2.298  48.617  1.00  0.00     0.184 HD
ENDROOT
BRANCH   1   3
HETATM    3  C12 UNL     1      23.033   3.739  50.148  1.00  0.00     0.049 A 
HETATM    4  C11 UNL     1      21.734   3.839  50.406  1.00  0.00     0.029 A 
HETATM    5  C10 UNL     1      21.117   5.058  50.959  1.00  0.00     0.019 A 
HETATM    6  C9  UNL     1      21.842   6.107  51.221  1.00  0.00     0.086 A 
HETATM    7  N2  UNL     1      23.234   6.009  50.950  1.00  0.00    -0.380 N 
HETATM    8  C8  UNL     1      24.042   7.179  51.256  1.00  0.00     0.123 C 
HETATM    9  C23 UNL     1      23.939   4.876  50.402  1.00  0.00     0.134 A 
HETATM   10  C7  UNL     1      25.374   7.049  50.504  1.00  0.00     0.024 C 
HETATM   11  C6  UNL     1      24.993   6.684  49.091  1.00  0.00    -0.009 C 
HETATM   12  C24 UNL     1      24.636   5.221  49.099  1.00  0.00     0.036 C 
BRANCH  11  13
HETATM   13  C5  UNL     1      26.031   7.017  48.060  1.00  0.00     0.024 C 
BRANCH  13  14
HETATM   14  C4  UNL     1      27.375   6.406  48.353  1.00  0.00     0.117 C 
BRANCH  14  15
HETATM   15  N1  UNL     1      28.373   7.420  48.475  1.00  0.00    -0.417 N 
HETATM   16  C3  UNL     1      28.008   8.718  47.998  1.00  0.00     0.143 C 
BRANCH  15  17
HETATM   17  C2  UNL     1      29.719   7.031  48.241  1.00  0.00     0.112 C 
HETATM   18  C1  UNL     1      29.916   5.560  47.989  1.00  0.00     0.026 C 
ENDBRANCH  15  17
ENDBRANCH  14  15
ENDBRANCH  13  14
ENDBRANCH  11  13
ENDBRANCH   1   3
BRANCH   1  19
HETATM   19  C13 UNL     1      23.920   1.863  50.844  1.00  0.00     0.728 A 
HETATM   20  N4  UNL     1      22.967   1.289  51.579  1.00  0.00    -0.073 NA
HETATM   21  C14 UNL     1      23.155   0.639  52.726  1.00  0.00     0.164 A 
HETATM   22  C15 UNL     1      24.473   0.569  53.175  1.00  0.00     0.098 A 
HETATM   23 CL1  UNL     1      24.886  -0.253  54.668  1.00  0.00    -0.079 Cl
HETATM   24  C16 UNL     1      25.507   1.155  52.440  1.00  0.00     0.172 A 
HETATM   25  N6  UNL     1      25.194   1.787  51.290  1.00  0.00    -0.043 NA
BRANCH  24  26
HETATM   26  N5  UNL     1      26.846   1.051  52.947  1.00  0.00    -0.336 N 
HETATM   27  C17 UNL     1      27.632   2.085  53.513  1.00  0.00     0.093 A 
HETATM   28  C18 UNL     1      28.848   1.805  53.921  1.00  0.00     0.018 A 
HETATM   29  C19 UNL     1      29.443   0.478  53.826  1.00  0.00     0.013 A 
HETATM   30  C20 UNL     1      28.677  -0.458  53.294  1.00  0.00    -0.002 A 
HETATM   31  C22 UNL     1      27.290  -0.324  52.787  1.00  0.00     0.171 A 
BRANCH  30  32
HETATM   32  C21 UNL     1      29.292  -1.795  53.203  1.00  0.00     0.267 C 
HETATM   33  O1  UNL     1      28.647  -2.864  53.342  1.00  0.00    -0.302 OA
ENDBRANCH  30  32
ENDBRANCH  24  26
ENDBRANCH   1  19
TORSDOF 8
ENDMDL
MODEL 2
REMARK VINA RESULT:      -8.1      3.387      7.487
REMARK  8 active torsions:
REMARK  status: ('A' for Active; 'I' for Inactive)
REMARK    1  A    between atoms: C2_2  and  N1_3 
REMARK    2  A    between atoms: N1_3  and  C4_5 
REMARK    3  A    between atoms: C4_5  and  C5_6 
REMARK    4  A    between atoms: C5_6  and  C6_7 
REMARK    5  A    between atoms: C12_14  and  N3_15 
REMARK    6  A    between atoms: N3_15  and  C13_16 
REMARK    7  A    between atoms: C16_21  and  N5_22 
REMARK    8  A    between atoms: C20_26  and  C21_27 
ROOT
HETATM    1  N3  UNL     1      23.787   6.144  52.343  1.00  0.00    -0.190 N 
HETATM    2  H21 UNL     1      23.975   6.555  53.270  1.00  0.00     0.184 HD
ENDROOT
BRANCH   1   3
HETATM    3  C12 UNL     1      23.029   4.964  52.055  1.00  0.00     0.049 A 
HETATM    4  C11 UNL     1      21.702   4.979  52.009  1.00  0.00     0.029 A 
HETATM    5  C10 UNL     1      20.896   3.782  51.714  1.00  0.00     0.019 A 
HETATM    6  C9  UNL     1      21.470   2.637  51.482  1.00  0.00     0.086 A 
HETATM    7  N2  UNL     1      22.891   2.611  51.527  1.00  0.00    -0.380 N 
HETATM    8  C8  UNL     1      23.529   1.332  51.255  1.00  0.00     0.123 C 
HETATM    9  C23 UNL     1      23.775   3.713  51.815  1.00  0.00     0.134 A 
HETATM   10  C7  UNL     1      24.971   1.398  51.777  1.00  0.00     0.024 C 
HETATM   11  C6  UNL     1      24.858   1.958  53.173  1.00  0.00    -0.009 C 
HETATM   12  C24 UNL     1      24.639   3.441  53.032  1.00  0.00     0.036 C 
BRANCH  11  13
HETATM   13  C5  UNL     1      26.014   1.630  54.071  1.00  0.00     0.024 C 
BRANCH  13  14
HETATM   14  C4  UNL     1      26.166   0.155  54.329  1.00  0.00     0.117 C 
BRANCH  14  15
HETATM   15  N1  UNL     1      27.534  -0.239  54.207  1.00  0.00    -0.417 N 
HETATM   16  C3  UNL     1      28.501   0.712  54.660  1.00  0.00     0.143 C 
BRANCH  15  17
HETATM   17  C2  UNL     1      27.891  -0.980  53.049  1.00  0.00     0.112 C 
HETATM   18  C1  UNL     1      26.783  -1.823  52.474  1.00  0.00     0.026 C 
ENDBRANCH  15  17
ENDBRANCH  14  15
ENDBRANCH  13  14
ENDBRANCH  11  13
ENDBRANCH   1   3
BRANCH   1  19
HETATM   19  C13 UNL     1      24.158   6.514  51.001  1.00  0.00     0.728 A 
HETATM   20  N4  UNL     1      23.245   6.927  50.121  1.00  0.00    -0.073 NA
HETATM   21  C14 UNL     1      23.486   7.292  48.863  1.00  0.00     0.164 A 
HETATM   22  C15 UNL     1      24.817   7.228  48.457  1.00  0.00     0.098 A 
HETATM   23 CL1  UNL     1      25.299   7.675  46.832  1.00  0.00    -0.079 Cl
HETATM   24  C16 UNL     1      25.811   6.801  49.342  1.00  0.00     0.172 A 
HETATM   25  N6  UNL     1      25.446   6.457  50.594  1.00  0.00    -0.043 NA
BRANCH  24  26
HETATM   26  N5  UNL     1      27.167   6.755  48.872  1.00  0.00    -0.336 N 
HETATM   27  C17 UNL     1      27.865   5.627  48.374  1.00  0.00     0.093 A 
HETATM   28  C18 UNL     1      29.113   5.772  47.992  1.00  0.00     0.018 A 
HETATM   29  C19 UNL     1      29.829   7.040  48.050  1.00  0.00     0.013 A 
HETATM   30  C20 UNL     1      29.143   8.067  48.518  1.00  0.00    -0.002 A 
HETATM   31  C22 UNL     1      27.736   8.088  48.988  1.00  0.00     0.171 A 
BRANCH  30  32
HETATM   32  C21 UNL     1      29.881   9.343  48.571  1.00  0.00     0.267 C 
HETATM   33  O1  UNL     1      30.305   9.853  49.638  1.00  0.00    -0.302 OA
ENDBRANCH  30  32
ENDBRANCH  24  26
ENDBRANCH   1  19
TORSDOF 8
ENDMDL
MODEL 3
REMARK VINA RESULT:      -7.8      3.503      7.343
REMARK  8 active torsions:
REMARK  status: ('A' for Active; 'I' for Inactive)
REMARK    1  A    between atoms: C2_2  and  N1_3 
REMARK    2  A    between atoms: N1_3  and  C4_5 
REMARK    3  A    between atoms: C4_5  and  C5_6 
REMARK    4  A    between atoms: C5_6  and  C6_7 
REMARK    5  A    between atoms: C12_14  and  N3_15 
REMARK    6  A    between atoms: N3_15  and  C13_16 
REMARK    7  A    between atoms: C16_21  and  N5_22 
REMARK    8  A    between atoms: C20_26  and  C21_27 
ROOT
HETATM    1  N3  UNL     1      23.838   7.079  51.672  1.00  0.00    -0.190 N 
HETATM    2  H21 UNL     1      23.957   7.465  52.621  1.00  0.00     0.184 HD
ENDROOT
BRANCH   1   3
HETATM    3  C12 UNL     1      22.947   6.036  51.265  1.00  0.00     0.049 A 
HETATM    4  C11 UNL     1      21.652   6.260  51.066  1.00  0.00     0.029 A 
HETATM    5  C10 UNL     1      20.711   5.207  50.646  1.00  0.00     0.019 A 
HETATM    6  C9  UNL     1      21.124   3.989  50.450  1.00  0.00     0.086 A 
HETATM    7  N2  UNL     1      22.509   3.739  50.658  1.00  0.00    -0.380 N 
HETATM    8  C8  UNL     1      22.968   2.379  50.425  1.00  0.00     0.123 C 
HETATM    9  C23 UNL     1      23.512   4.686  51.077  1.00  0.00     0.134 A 
HETATM   10  C7  UNL     1      24.331   2.212  51.111  1.00  0.00     0.024 C 
HETATM   11  C6  UNL     1      24.142   2.768  52.499  1.00  0.00    -0.009 C 
HETATM   12  C24 UNL     1      24.174   4.269  52.377  1.00  0.00     0.036 C 
BRANCH  11  13
HETATM   13  C5  UNL     1      25.119   2.254  53.515  1.00  0.00     0.024 C 
BRANCH  13  14
HETATM   14  C4  UNL     1      26.313   1.574  52.900  1.00  0.00     0.117 C 
BRANCH  14  15
HETATM   15  N1  UNL     1      27.393   1.512  53.832  1.00  0.00    -0.417 N 
HETATM   16  C3  UNL     1      28.511   2.359  53.551  1.00  0.00     0.143 C 
BRANCH  15  17
HETATM   17  C2  UNL     1      27.704   0.237  54.375  1.00  0.00     0.112 C 
HETATM   18  C1  UNL     1      29.117  -0.223  54.136  1.00  0.00     0.026 C 
ENDBRANCH  15  17
ENDBRANCH  14  15
ENDBRANCH  13  14
ENDBRANCH  11  13
ENDBRANCH   1   3
BRANCH   1  19
HETATM   19  C13 UNL     1      24.454   7.367  50.401  1.00  0.00     0.728 A 
HETATM   20  N4  UNL     1      23.762   7.934  49.411  1.00  0.00    -0.073 NA
HETATM   21  C14 UNL     1      24.239   8.241  48.206  1.00  0.00     0.164 A 
HETATM   22  C15 UNL     1      25.579   7.931  47.986  1.00  0.00     0.098 A 
HETATM   23 CL1  UNL     1      26.355   8.273  46.452  1.00  0.00    -0.079 Cl
HETATM   24  C16 UNL     1      26.346   7.336  48.992  1.00  0.00     0.172 A 
HETATM   25  N6  UNL     1      25.754   7.072  50.175  1.00  0.00    -0.043 NA
BRANCH  24  26
HETATM   26  N5  UNL     1      27.723   7.040  48.713  1.00  0.00    -0.336 N 
HETATM   27  C17 UNL     1      28.263   5.808  48.266  1.00  0.00     0.093 A 
HETATM   28  C18 UNL     1      29.557   5.719  48.068  1.00  0.00     0.018 A 
HETATM   29  C19 UNL     1      30.482   6.825  48.280  1.00  0.00     0.013 A 
HETATM   30  C20 UNL     1      29.939   7.956  48.694  1.00  0.00    -0.002 A 
HETATM   31  C22 UNL     1      28.508   8.237  48.965  1.00  0.00     0.171 A 
BRANCH  30  32
HETATM   32  C21 UNL     1      30.886   9.066  48.906  1.00  0.00     0.267 C 
HETATM   33  O1  UNL     1      30.590  10.121  49.521  1.00  0.00    -0.302 OA
ENDBRANCH  30  32
ENDBRANCH  24  26
ENDBRANCH   1  19
TORSDOF 8
ENDMDL
MODEL 4
REMARK VINA RESULT:      -7.7      2.424      4.030
REMARK  8 active torsions:
REMARK  status: ('A' for Active; 'I' for Inactive)
REMARK    1  A    between atoms: C2_2  and  N1_3 
REMARK    2  A    between atoms: N1_3  and  C4_5 
REMARK    3  A    between atoms: C4_5  and  C5_6 
REMARK    4  A    between atoms: C5_6  and  C6_7 
REMARK    5  A    between atoms: C12_14  and  N3_15 
REMARK    6  A    between atoms: N3_15  and  C13_16 
REMARK    7  A    between atoms: C16_21  and  N5_22 
REMARK    8  A    between atoms: C20_26  and  C21_27 
ROOT
HETATM    1  N3  UNL     1      26.440   3.237  49.752  1.00  0.00    -0.190 N 
HETATM    2  H21 UNL     1      27.183   3.364  49.048  1.00  0.00     0.184 HD
ENDROOT
BRANCH   1   3
HETATM    3  C12 UNL     1      25.096   3.725  49.693  1.00  0.00     0.049 A 
HETATM    4  C11 UNL     1      24.133   3.051  49.075  1.00  0.00     0.029 A 
HETATM    5  C10 UNL     1      22.741   3.528  48.998  1.00  0.00     0.019 A 
HETATM    6  C9  UNL     1      22.396   4.657  49.548  1.00  0.00     0.086 A 
HETATM    7  N2  UNL     1      23.420   5.385  50.214  1.00  0.00    -0.380 N 
HETATM    8  C8  UNL     1      23.027   6.639  50.838  1.00  0.00     0.123 C 
HETATM    9  C23 UNL     1      24.809   5.020  50.341  1.00  0.00     0.134 A 
HETATM   10  C7  UNL     1      24.297   7.461  51.096  1.00  0.00     0.024 C 
HETATM   11  C6  UNL     1      25.064   7.416  49.799  1.00  0.00    -0.009 C 
HETATM   12  C24 UNL     1      25.725   6.064  49.729  1.00  0.00     0.036 C 
BRANCH  11  13
HETATM   13  C5  UNL     1      26.039   8.542  49.612  1.00  0.00     0.024 C 
BRANCH  13  14
HETATM   14  C4  UNL     1      26.957   8.342  48.436  1.00  0.00     0.117 C 
BRANCH  14  15
HETATM   15  N1  UNL     1      28.313   8.222  48.871  1.00  0.00    -0.417 N 
HETATM   16  C3  UNL     1      28.878   9.384  49.483  1.00  0.00     0.143 C 
BRANCH  15  17
HETATM   17  C2  UNL     1      29.190   7.467  48.047  1.00  0.00     0.112 C 
HETATM   18  C1  UNL     1      29.002   5.976  48.125  1.00  0.00     0.026 C 
ENDBRANCH  15  17
ENDBRANCH  14  15
ENDBRANCH  13  14
ENDBRANCH  11  13
ENDBRANCH   1   3
BRANCH   1  19
HETATM   19  C13 UNL     1      26.388   2.569  51.029  1.00  0.00     0.728 A 
HETATM   20  N4  UNL     1      27.451   2.533  51.833  1.00  0.00    -0.073 NA
HETATM   21  C14 UNL     1      27.503   1.946  53.027  1.00  0.00     0.164 A 
HETATM   22  C15 UNL     1      26.331   1.323  53.449  1.00  0.00     0.098 A 
HETATM   23 CL1  UNL     1      26.237   0.507  54.998  1.00  0.00    -0.079 Cl
HETATM   24  C16 UNL     1      25.189   1.334  52.642  1.00  0.00     0.172 A 
HETATM   25  N6  UNL     1      25.256   1.961  51.450  1.00  0.00    -0.043 NA
BRANCH  24  26
HETATM   26  N5  UNL     1      24.007   0.678  53.127  1.00  0.00    -0.336 N 
HETATM   27  C17 UNL     1      23.935  -0.547  53.835  1.00  0.00     0.093 A 
HETATM   28  C18 UNL     1      22.758  -1.001  54.196  1.00  0.00     0.018 A 
HETATM   29  C19 UNL     1      21.507  -0.311  53.909  1.00  0.00     0.013 A 
HETATM   30  C20 UNL     1      21.617   0.828  53.249  1.00  0.00    -0.002 A 
HETATM   31  C22 UNL     1      22.856   1.489  52.769  1.00  0.00     0.171 A 
BRANCH  30  32
HETATM   32  C21 UNL     1      20.344   1.515  52.966  1.00  0.00     0.267 C 
HETATM   33  O1  UNL     1      20.224   2.766  52.935  1.00  0.00    -0.302 OA
ENDBRANCH  30  32
ENDBRANCH  24  26
ENDBRANCH   1  19
TORSDOF 8
ENDMDL
MODEL 5
REMARK VINA RESULT:      -7.7      1.898      2.621
REMARK  8 active torsions:
REMARK  status: ('A' for Active; 'I' for Inactive)
REMARK    1  A    between atoms: C2_2  and  N1_3 
REMARK    2  A    between atoms: N1_3  and  C4_5 
REMARK    3  A    between atoms: C4_5  and  C5_6 
REMARK    4  A    between atoms: C5_6  and  C6_7 
REMARK    5  A    between atoms: C12_14  and  N3_15 
REMARK    6  A    between atoms: N3_15  and  C13_16 
REMARK    7  A    between atoms: C16_21  and  N5_22 
REMARK    8  A    between atoms: C20_26  and  C21_27 
ROOT
HETATM    1  N3  UNL     1      26.374   4.264  48.882  1.00  0.00    -0.190 N 
HETATM    2  H21 UNL     1      26.973   3.985  48.090  1.00  0.00     0.184 HD
ENDROOT
BRANCH   1   3
HETATM    3  C12 UNL     1      25.615   5.469  49.014  1.00  0.00     0.049 A 
HETATM    4  C11 UNL     1      24.320   5.516  48.722  1.00  0.00     0.029 A 
HETATM    5  C10 UNL     1      23.513   6.742  48.848  1.00  0.00     0.019 A 
HETATM    6  C9  UNL     1      24.053   7.852  49.261  1.00  0.00     0.086 A 
HETATM    7  N2  UNL     1      25.439   7.812  49.579  1.00  0.00    -0.380 N 
HETATM    8  C8  UNL     1      26.036   9.051  50.052  1.00  0.00     0.123 C 
HETATM    9  C23 UNL     1      26.323   6.677  49.482  1.00  0.00     0.134 A 
HETATM   10  C7  UNL     1      27.560   8.931  49.910  1.00  0.00     0.024 C 
HETATM   11  C6  UNL     1      27.784   8.415  48.511  1.00  0.00    -0.009 C 
HETATM   12  C24 UNL     1      27.479   6.940  48.535  1.00  0.00     0.036 C 
BRANCH  11  13
HETATM   13  C5  UNL     1      29.143   8.711  47.947  1.00  0.00     0.024 C 
BRANCH  13  14
HETATM   14  C4  UNL     1      30.008   7.487  47.810  1.00  0.00     0.117 C 
BRANCH  14  15
HETATM   15  N1  UNL     1      30.843   7.330  48.958  1.00  0.00    -0.417 N 
HETATM   16  C3  UNL     1      31.666   8.450  49.291  1.00  0.00     0.143 C 
BRANCH  15  17
HETATM   17  C2  UNL     1      31.427   6.050  49.159  1.00  0.00     0.112 C 
HETATM   18  C1  UNL     1      31.540   5.206  47.918  1.00  0.00     0.026 C 
ENDBRANCH  15  17
ENDBRANCH  14  15
ENDBRANCH  13  14
ENDBRANCH  11  13
ENDBRANCH   1   3
BRANCH   1  19
HETATM   19  C13 UNL     1      26.036   3.638  50.136  1.00  0.00     0.728 A 
HETATM   20  N4  UNL     1      24.834   3.807  50.689  1.00  0.00    -0.073 NA
HETATM   21  C14 UNL     1      24.425   3.272  51.838  1.00  0.00     0.164 A 
HETATM   22  C15 UNL     1      25.354   2.472  52.500  1.00  0.00     0.098 A 
HETATM   23 CL1  UNL     1      24.968   1.696  54.024  1.00  0.00    -0.079 Cl
HETATM   24  C16 UNL     1      26.627   2.265  51.961  1.00  0.00     0.172 A 
HETATM   25  N6  UNL     1      26.928   2.859  50.788  1.00  0.00    -0.043 NA
BRANCH  24  26
HETATM   26  N5  UNL     1      27.544   1.430  52.684  1.00  0.00    -0.336 N 
HETATM   27  C17 UNL     1      28.588   1.847  53.546  1.00  0.00     0.093 A 
HETATM   28  C18 UNL     1      29.337   0.935  54.121  1.00  0.00     0.018 A 
HETATM   29  C19 UNL     1      29.155  -0.497  53.923  1.00  0.00     0.013 A 
HETATM   30  C20 UNL     1      28.170  -0.845  53.114  1.00  0.00    -0.002 A 
HETATM   31  C22 UNL     1      27.229   0.042  52.387  1.00  0.00     0.171 A 
BRANCH  30  32
HETATM   32  C21 UNL     1      27.998  -2.297  52.923  1.00  0.00     0.267 C 
HETATM   33  O1  UNL     1      28.708  -3.159  53.498  1.00  0.00    -0.302 OA
ENDBRANCH  30  32
ENDBRANCH  24  26
ENDBRANCH   1  19
TORSDOF 8
ENDMDL
MODEL 6
REMARK VINA RESULT:      -7.7      1.854      2.929
REMARK  8 active torsions:
REMARK  status: ('A' for Active; 'I' for Inactive)
REMARK    1  A    between atoms: C2_2  and  N1_3 
REMARK    2  A    between atoms: N1_3  and  C4_5 
REMARK    3  A    between atoms: C4_5  and  C5_6 
REMARK    4  A    between atoms: C5_6  and  C6_7 
REMARK    5  A    between atoms: C12_14  and  N3_15 
REMARK    6  A    between atoms: N3_15  and  C13_16 
REMARK    7  A    between atoms: C16_21  and  N5_22 
REMARK    8  A    between atoms: C20_26  and  C21_27 
ROOT
HETATM    1  N3  UNL     1      21.735  -0.036  51.041  1.00  0.00    -0.190 N 
HETATM    2  H21 UNL     1      21.628  -0.567  50.164  1.00  0.00     0.184 HD
ENDROOT
BRANCH   1   3
HETATM    3  C12 UNL     1      21.110   1.205  51.386  1.00  0.00     0.049 A 
HETATM    4  C11 UNL     1      19.798   1.300  51.569  1.00  0.00     0.029 A 
HETATM    5  C10 UNL     1      19.128   2.563  51.925  1.00  0.00     0.019 A 
HETATM    6  C9  UNL     1      19.814   3.658  52.079  1.00  0.00     0.086 A 
HETATM    7  N2  UNL     1      21.220   3.565  51.888  1.00  0.00    -0.380 N 
HETATM    8  C8  UNL     1      21.985   4.789  52.073  1.00  0.00     0.123 C 
HETATM    9  C23 UNL     1      21.977   2.391  51.529  1.00  0.00     0.134 A 
HETATM   10  C7  UNL     1      23.355   4.599  51.407  1.00  0.00     0.024 C 
HETATM   11  C6  UNL     1      23.053   4.040  50.039  1.00  0.00    -0.009 C 
HETATM   12  C24 UNL     1      22.730   2.581  50.225  1.00  0.00     0.036 C 
BRANCH  11  13
HETATM   13  C5  UNL     1      24.134   4.264  49.022  1.00  0.00     0.024 C 
BRANCH  13  14
HETATM   14  C4  UNL     1      24.337   5.716  48.682  1.00  0.00     0.117 C 
BRANCH  14  15
HETATM   15  N1  UNL     1      25.671   6.123  48.990  1.00  0.00    -0.417 N 
HETATM   16  C3  UNL     1      26.655   5.085  49.001  1.00  0.00     0.143 C 
BRANCH  15  17
HETATM   17  C2  UNL     1      25.825   7.133  49.978  1.00  0.00     0.112 C 
HETATM   18  C1  UNL     1      24.582   7.932  50.261  1.00  0.00     0.026 C 
ENDBRANCH  15  17
ENDBRANCH  14  15
ENDBRANCH  13  14
ENDBRANCH  11  13
ENDBRANCH   1   3
BRANCH   1  19
HETATM   19  C13 UNL     1      22.498  -0.254  52.245  1.00  0.00     0.728 A 
HETATM   20  N4  UNL     1      21.939  -0.799  53.327  1.00  0.00    -0.073 NA
HETATM   21  C14 UNL     1      22.557  -1.043  54.481  1.00  0.00     0.164 A 
HETATM   22  C15 UNL     1      23.903  -0.688  54.536  1.00  0.00     0.098 A 
HETATM   23 CL1  UNL     1      24.856  -0.945  55.985  1.00  0.00    -0.079 Cl
HETATM   24  C16 UNL     1      24.533  -0.113  53.429  1.00  0.00     0.172 A 
HETATM   25  N6  UNL     1      23.805   0.086  52.311  1.00  0.00    -0.043 NA
BRANCH  24  26
HETATM   26  N5  UNL     1      25.923   0.232  53.540  1.00  0.00    -0.336 N 
HETATM   27  C17 UNL     1      26.471   1.511  53.805  1.00  0.00     0.093 A 
HETATM   28  C18 UNL     1      27.776   1.642  53.865  1.00  0.00     0.018 A 
HETATM   29  C19 UNL     1      28.704   0.535  53.673  1.00  0.00     0.013 A 
HETATM   30  C20 UNL     1      28.154  -0.641  53.430  1.00  0.00    -0.002 A 
HETATM   31  C22 UNL     1      26.711  -0.972  53.332  1.00  0.00     0.171 A 
BRANCH  30  32
HETATM   32  C21 UNL     1      29.104  -1.752  53.238  1.00  0.00     0.267 C 
HETATM   33  O1  UNL     1      28.780  -2.963  53.321  1.00  0.00    -0.302 OA
ENDBRANCH  30  32
ENDBRANCH  24  26
ENDBRANCH   1  19
TORSDOF 8
ENDMDL
MODEL 7
REMARK VINA RESULT:      -7.6      1.694      2.411
REMARK  8 active torsions:
REMARK  status: ('A' for Active; 'I' for Inactive)
REMARK    1  A    between atoms: C2_2  and  N1_3 
REMARK    2  A    between atoms: N1_3  and  C4_5 
REMARK    3  A    between atoms: C4_5  and  C5_6 
REMARK    4  A    between atoms: C5_6  and  C6_7 
REMARK    5  A    between atoms: C12_14  and  N3_15 
REMARK    6  A    between atoms: N3_15  and  C13_16 
REMARK    7  A    between atoms: C16_21  and  N5_22 
REMARK    8  A    between atoms: C20_26  and  C21_27 
ROOT
HETATM    1  N3  UNL     1      21.761   1.932  48.776  1.00  0.00    -0.190 N 
HETATM    2  H21 UNL     1      22.008   1.603  47.831  1.00  0.00     0.184 HD
ENDROOT
BRANCH   1   3
HETATM    3  C12 UNL     1      21.049   3.124  49.122  1.00  0.00     0.049 A 
HETATM    4  C11 UNL     1      19.750   3.259  48.877  1.00  0.00     0.029 A 
HETATM    5  C10 UNL     1      18.991   4.474  49.222  1.00  0.00     0.019 A 
HETATM    6  C9  UNL     1      19.580   5.484  49.793  1.00  0.00     0.086 A 
HETATM    7  N2  UNL     1      20.970   5.348  50.061  1.00  0.00    -0.380 N 
HETATM    8  C8  UNL     1      21.621   6.475  50.711  1.00  0.00     0.123 C 
HETATM    9  C23 UNL     1      21.810   4.216  49.759  1.00  0.00     0.134 A 
HETATM   10  C7  UNL     1      23.136   6.330  50.510  1.00  0.00     0.024 C 
HETATM   11  C6  UNL     1      23.311   6.041  49.040  1.00  0.00    -0.009 C 
HETATM   12  C24 UNL     1      22.954   4.592  48.835  1.00  0.00     0.036 C 
BRANCH  11  13
HETATM   13  C5  UNL     1      24.667   6.381  48.495  1.00  0.00     0.024 C 
BRANCH  13  14
HETATM   14  C4  UNL     1      25.723   6.497  49.561  1.00  0.00     0.117 C 
BRANCH  14  15
HETATM   15  N1  UNL     1      26.906   5.795  49.176  1.00  0.00    -0.417 N 
HETATM   16  C3  UNL     1      27.761   6.472  48.250  1.00  0.00     0.143 C 
BRANCH  15  17
HETATM   17  C2  UNL     1      26.794   4.390  49.002  1.00  0.00     0.112 C 
HETATM   18  C1  UNL     1      26.381   3.632  50.235  1.00  0.00     0.026 C 
ENDBRANCH  15  17
ENDBRANCH  14  15
ENDBRANCH  13  14
ENDBRANCH  11  13
ENDBRANCH   1   3
BRANCH   1  19
HETATM   19  C13 UNL     1      21.989   1.407  50.099  1.00  0.00     0.728 A 
HETATM   20  N4  UNL     1      21.033   0.749  50.756  1.00  0.00    -0.073 NA
HETATM   21  C14 UNL     1      21.145   0.226  51.976  1.00  0.00     0.164 A 
HETATM   22  C15 UNL     1      22.380   0.396  52.597  1.00  0.00     0.098 A 
HETATM   23 CL1  UNL     1      22.688  -0.234  54.204  1.00  0.00    -0.079 Cl
HETATM   24  C16 UNL     1      23.415   1.078  51.950  1.00  0.00     0.172 A 
HETATM   25  N6  UNL     1      23.184   1.564  50.713  1.00  0.00    -0.043 NA
BRANCH  24  26
HETATM   26  N5  UNL     1      24.668   1.222  52.636  1.00  0.00    -0.336 N 
HETATM   27  C17 UNL     1      25.062   2.283  53.489  1.00  0.00     0.093 A 
HETATM   28  C18 UNL     1      26.259   2.251  54.028  1.00  0.00     0.018 A 
HETATM   29  C19 UNL     1      27.215   1.175  53.800  1.00  0.00     0.013 A 
HETATM   30  C20 UNL     1      26.809   0.205  53.000  1.00  0.00    -0.002 A 
HETATM   31  C22 UNL     1      25.501   0.076  52.312  1.00  0.00     0.171 A 
BRANCH  30  32
HETATM   32  C21 UNL     1      27.786  -0.876  52.778  1.00  0.00     0.267 C 
HETATM   33  O1  UNL     1      27.900  -1.873  53.534  1.00  0.00    -0.302 OA
ENDBRANCH  30  32
ENDBRANCH  24  26
ENDBRANCH   1  19
TORSDOF 8
ENDMDL
MODEL 8
REMARK VINA RESULT:      -7.6      3.506      8.399
REMARK  8 active torsions:
REMARK  status: ('A' for Active; 'I' for Inactive)
REMARK    1  A    between atoms: C2_2  and  N1_3 
REMARK    2  A    between atoms: N1_3  and  C4_5 
REMARK    3  A    between atoms: C4_5  and  C5_6 
REMARK    4  A    between atoms: C5_6  and  C6_7 
REMARK    5  A    between atoms: C12_14  and  N3_15 
REMARK    6  A    between atoms: N3_15  and  C13_16 
REMARK    7  A    between atoms: C16_21  and  N5_22 
REMARK    8  A    between atoms: C20_26  and  C21_27 
ROOT
HETATM    1  N3  UNL     1      24.074   4.250  49.047  1.00  0.00    -0.190 N 
HETATM    2  H21 UNL     1      23.317   4.038  48.381  1.00  0.00     0.184 HD
ENDROOT
BRANCH   1   3
HETATM    3  C12 UNL     1      24.625   3.381  50.042  1.00  0.00     0.049 A 
HETATM    4  C11 UNL     1      25.919   3.085  50.074  1.00  0.00     0.029 A 
HETATM    5  C10 UNL     1      26.514   2.194  51.085  1.00  0.00     0.019 A 
HETATM    6  C9  UNL     1      25.774   1.651  52.008  1.00  0.00     0.086 A 
HETATM    7  N2  UNL     1      24.387   1.964  51.984  1.00  0.00    -0.380 N 
HETATM    8  C8  UNL     1      23.566   1.365  53.025  1.00  0.00     0.123 C 
HETATM    9  C23 UNL     1      23.699   2.809  51.040  1.00  0.00     0.134 A 
HETATM   10  C7  UNL     1      22.099   1.447  52.580  1.00  0.00     0.024 C 
HETATM   11  C6  UNL     1      22.090   0.940  51.160  1.00  0.00    -0.009 C 
HETATM   12  C24 UNL     1      22.612   2.057  50.295  1.00  0.00     0.036 C 
BRANCH  11  13
HETATM   13  C5  UNL     1      20.761   0.424  50.691  1.00  0.00     0.024 C 
BRANCH  13  14
HETATM   14  C4  UNL     1      19.763   0.255  51.805  1.00  0.00     0.117 C 
BRANCH  14  15
HETATM   15  N1  UNL     1      18.509  -0.198  51.293  1.00  0.00    -0.417 N 
HETATM   16  C3  UNL     1      17.923   0.609  50.269  1.00  0.00     0.143 C 
BRANCH  15  17
HETATM   17  C2  UNL     1      17.602  -0.771  52.224  1.00  0.00     0.112 C 
HETATM   18  C1  UNL     1      18.250  -1.426  53.415  1.00  0.00     0.026 C 
ENDBRANCH  15  17
ENDBRANCH  14  15
ENDBRANCH  13  14
ENDBRANCH  11  13
ENDBRANCH   1   3
BRANCH   1  19
HETATM   19  C13 UNL     1      24.882   5.420  49.290  1.00  0.00     0.728 A 
HETATM   20  N4  UNL     1      24.602   6.257  50.290  1.00  0.00    -0.073 NA
HETATM   21  C14 UNL     1      25.286   7.358  50.597  1.00  0.00     0.164 A 
HETATM   22  C15 UNL     1      26.383   7.637  49.785  1.00  0.00     0.098 A 
HETATM   23 CL1  UNL     1      27.384   9.050  50.058  1.00  0.00    -0.079 Cl
HETATM   24  C16 UNL     1      26.716   6.791  48.724  1.00  0.00     0.172 A 
HETATM   25  N6  UNL     1      25.950   5.702  48.510  1.00  0.00    -0.043 NA
BRANCH  24  26
HETATM   26  N5  UNL     1      27.858   7.125  47.920  1.00  0.00    -0.336 N 
HETATM   27  C17 UNL     1      27.930   8.101  46.894  1.00  0.00     0.093 A 
HETATM   28  C18 UNL     1      29.065   8.266  46.256  1.00  0.00     0.018 A 
HETATM   29  C19 UNL     1      30.269   7.498  46.544  1.00  0.00     0.013 A 
HETATM   30  C20 UNL     1      30.162   6.600  47.508  1.00  0.00    -0.002 A 
HETATM   31  C22 UNL     1      28.969   6.283  48.331  1.00  0.00     0.171 A 
BRANCH  30  32
HETATM   32  C21 UNL     1      31.387   5.830  47.789  1.00  0.00     0.267 C 
HETATM   33  O1  UNL     1      31.532   5.106  48.805  1.00  0.00    -0.302 OA
ENDBRANCH  30  32
ENDBRANCH  24  26
ENDBRANCH   1  19
TORSDOF 8
ENDMDL
MODEL 9
REMARK VINA RESULT:      -7.6      1.510      2.302
REMARK  8 active torsions:
REMARK  status: ('A' for Active; 'I' for Inactive)
REMARK    1  A    between atoms: C2_2  and  N1_3 
REMARK    2  A    between atoms: N1_3  and  C4_5 
REMARK    3  A    between atoms: C4_5  and  C5_6 
REMARK    4  A    between atoms: C5_6  and  C6_7 
REMARK    5  A    between atoms: C12_14  and  N3_15 
REMARK    6  A    between atoms: N3_15  and  C13_16 
REMARK    7  A    between atoms: C16_21  and  N5_22 
REMARK    8  A    between atoms: C20_26  and  C21_27 
ROOT
HETATM    1  N3  UNL     1      23.029   2.853  49.195  1.00  0.00    -0.190 N 
HETATM    2  H21 UNL     1      23.146   2.608  48.200  1.00  0.00     0.184 HD
ENDROOT
BRANCH   1   3
HETATM    3  C12 UNL     1      22.630   4.116  49.737  1.00  0.00     0.049 A 
HETATM    4  C11 UNL     1      21.350   4.442  49.881  1.00  0.00     0.029 A 
HETATM    5  C10 UNL     1      20.909   5.734  50.436  1.00  0.00     0.019 A 
HETATM    6  C9  UNL     1      21.779   6.624  50.816  1.00  0.00     0.086 A 
HETATM    7  N2  UNL     1      23.152   6.283  50.668  1.00  0.00    -0.380 N 
HETATM    8  C8  UNL     1      24.121   7.276  51.106  1.00  0.00     0.123 C 
HETATM    9  C23 UNL     1      23.694   5.060  50.130  1.00  0.00     0.134 A 
HETATM   10  C7  UNL     1      25.476   6.931  50.472  1.00  0.00     0.024 C 
HETATM   11  C6  UNL     1      25.177   6.689  49.014  1.00  0.00    -0.009 C 
HETATM   12  C24 UNL     1      24.567   5.315  48.915  1.00  0.00     0.036 C 
BRANCH  11  13
HETATM   13  C5  UNL     1      26.355   6.861  48.100  1.00  0.00     0.024 C 
BRANCH  13  14
HETATM   14  C4  UNL     1      26.262   8.091  47.238  1.00  0.00     0.117 C 
BRANCH  14  15
HETATM   15  N1  UNL     1      27.176   9.092  47.691  1.00  0.00    -0.417 N 
HETATM   16  C3  UNL     1      28.271   8.626  48.484  1.00  0.00     0.143 C 
BRANCH  15  17
HETATM   17  C2  UNL     1      26.624  10.344  48.072  1.00  0.00     0.112 C 
HETATM   18  C1  UNL     1      25.120  10.383  48.114  1.00  0.00     0.026 C 
ENDBRANCH  15  17
ENDBRANCH  14  15
ENDBRANCH  13  14
ENDBRANCH  11  13
ENDBRANCH   1   3
BRANCH   1  19
HETATM   19  C13 UNL     1      23.196   2.116  50.423  1.00  0.00     0.728 A 
HETATM   20  N4  UNL     1      22.149   1.799  51.186  1.00  0.00    -0.073 NA
HETATM   21  C14 UNL     1      22.199   1.121  52.332  1.00  0.00     0.164 A 
HETATM   22  C15 UNL     1      23.468   0.723  52.747  1.00  0.00     0.098 A 
HETATM   23 CL1  UNL     1      23.701  -0.177  54.233  1.00  0.00    -0.079 Cl
HETATM   24  C16 UNL     1      24.596   1.032  51.982  1.00  0.00     0.172 A 
HETATM   25  N6  UNL     1      24.422   1.723  50.837  1.00  0.00    -0.043 NA
BRANCH  24  26
HETATM   26  N5  UNL     1      25.879   0.596  52.456  1.00  0.00    -0.336 N 
HETATM   27  C17 UNL     1      26.352  -0.737  52.550  1.00  0.00     0.093 A 
HETATM   28  C18 UNL     1      27.560  -0.950  53.018  1.00  0.00     0.018 A 
HETATM   29  C19 UNL     1      28.454   0.117  53.449  1.00  0.00     0.013 A 
HETATM   30  C20 UNL     1      27.978   1.345  53.343  1.00  0.00    -0.002 A 
HETATM   31  C22 UNL     1      26.649   1.768  52.839  1.00  0.00     0.171 A 
BRANCH  30  32
HETATM   32  C21 UNL     1      28.893   2.413  53.784  1.00  0.00     0.267 C 
HETATM   33  O1  UNL     1      29.509   2.389  54.879  1.00  0.00    -0.302 OA
ENDBRANCH  30  32
ENDBRANCH  24  26
ENDBRANCH   1  19
TORSDOF 8
ENDMDL
