MODEL 1
REMARK VINA RESULT:     -10.0      0.000      0.000
REMARK  3 active torsions:
REMARK  status: ('A' for Active; 'I' for Inactive)
REMARK    1  A    between atoms: C4_6  and  N3_7 
REMARK    2  A    between atoms: N3_7  and  C5_8 
REMARK    3  A    between atoms: C5_8  and  C6_9 
ROOT
HETATM    1  C1  UNL     1      20.874   0.442  53.819  1.00  0.00     0.022 C 
HETATM    2  C2  UNL     1      20.242   1.513  53.225  1.00  0.00     0.237 C 
HETATM    3  N1  UNL     1      19.804   2.681  52.519  1.00  0.00    -0.298 NA
HETATM    4  C3  UNL     1      20.694   3.408  51.886  1.00  0.00     0.171 C 
HETATM    5  N2  UNL     1      21.878   2.741  52.132  1.00  0.00    -0.232 NA
HETATM    6  C4  UNL     1      22.828   2.628  51.312  1.00  0.00     0.134 C 
HETATM    7  C15 UNL     1      23.720   1.840  52.202  1.00  0.00     0.013 C 
HETATM    8  C16 UNL     1      24.820   2.559  51.910  1.00  0.00     0.029 C 
HETATM    9  C17 UNL     1      26.276   2.478  52.188  1.00  0.00     0.286 C 
HETATM   10  C18 UNL     1      26.389   2.151  53.658  1.00  0.00     0.150 C 
HETATM   11  N5  UNL     1      25.878   1.230  54.482  1.00  0.00    -0.191 NA
HETATM   12  N6  UNL     1      25.526  -0.060  53.941  1.00  0.00    -0.302 N 
HETATM   13  C19 UNL     1      26.131  -1.305  53.511  1.00  0.00     0.147 C 
HETATM   14  C20 UNL     1      26.954  -1.080  52.186  1.00  0.00     0.051 C 
HETATM   15  C21 UNL     1      26.941   0.339  52.041  1.00  0.00     0.272 C 
HETATM   16  N7  UNL     1      26.965   1.482  51.334  1.00  0.00     0.096 N 
HETATM   17  C22 UNL     1      24.210  -0.431  53.617  1.00  0.00     0.180 C 
HETATM   18  C23 UNL     1      23.382   0.683  53.064  1.00  0.00    -0.042 C 
HETATM   19  C24 UNL     1      22.126   0.839  53.256  1.00  0.00     0.032 C 
HETATM   20  H22 UNL     1      27.837   1.896  50.949  1.00  0.00     0.317 HD
ENDROOT
BRANCH   6  21
HETATM   21  N3  UNL     1      23.215   2.991  49.995  1.00  0.00    -0.370 N 
HETATM   22  H4  UNL     1      23.576   2.176  49.431  1.00  0.00     0.161 HD
BRANCH  21  23
HETATM   23  C5  UNL     1      22.960   4.432  49.852  1.00  0.00     0.160 C 
BRANCH  23  24
HETATM   24  C6  UNL     1      24.181   5.167  49.455  1.00  0.00    -0.040 A 
HETATM   25  C7  UNL     1      24.063   6.543  49.299  1.00  0.00     0.011 A 
HETATM   26  C8  UNL     1      25.115   7.376  48.929  1.00  0.00     0.033 A 
HETATM   27  C9  UNL     1      26.352   6.755  48.709  1.00  0.00     0.066 A 
HETATM   28  N4  UNL     1      27.414   7.492  48.353  1.00  0.00    -0.260 NA
HETATM   29  C13 UNL     1      26.562   5.367  48.844  1.00  0.00    -0.007 A 
HETATM   30  C10 UNL     1      28.644   7.038  48.114  1.00  0.00     0.117 A 
HETATM   31  C11 UNL     1      28.831   5.675  48.250  1.00  0.00     0.020 A 
HETATM   32  C12 UNL     1      27.795   4.814  48.617  1.00  0.00     0.015 A 
HETATM   33  C14 UNL     1      25.433   4.696  49.210  1.00  0.00     0.022 A 
ENDBRANCH  23  24
ENDBRANCH  21  23
ENDBRANCH   6  21
TORSDOF 3
ENDMDL
MODEL 2
REMARK VINA RESULT:      -9.9      1.392      4.392
REMARK  3 active torsions:
REMARK  status: ('A' for Active; 'I' for Inactive)
REMARK    1  A    between atoms: C4_6  and  N3_7 
REMARK    2  A    between atoms: N3_7  and  C5_8 
REMARK    3  A    between atoms: C5_8  and  C6_9 
ROOT
HETATM    1  C1  UNL     1      24.180  -0.637  54.212  1.00  0.00     0.022 C 
HETATM    2  C2  UNL     1      25.509  -0.549  53.856  1.00  0.00     0.237 C 
HETATM    3  N1  UNL     1      26.814  -0.301  53.317  1.00  0.00    -0.298 NA
HETATM    4  C3  UNL     1      26.928   0.491  52.277  1.00  0.00     0.171 C 
HETATM    5  N2  UNL     1      25.623   0.863  52.019  1.00  0.00    -0.232 NA
HETATM    6  C4  UNL     1      25.262   1.999  51.611  1.00  0.00     0.134 C 
HETATM    7  C15 UNL     1      23.808   1.697  51.551  1.00  0.00     0.013 C 
HETATM    8  C16 UNL     1      23.634   2.267  50.343  1.00  0.00     0.029 C 
HETATM    9  C17 UNL     1      22.491   2.612  49.460  1.00  0.00     0.286 C 
HETATM   10  C18 UNL     1      21.598   1.395  49.461  1.00  0.00     0.150 C 
HETATM   11  N5  UNL     1      21.031   0.617  50.390  1.00  0.00    -0.191 NA
HETATM   12  N6  UNL     1      20.705   1.198  51.669  1.00  0.00    -0.302 N 
HETATM   13  C19 UNL     1      19.719   2.051  52.302  1.00  0.00     0.147 C 
HETATM   14  C20 UNL     1      19.861   3.529  51.775  1.00  0.00     0.051 C 
HETATM   15  C21 UNL     1      20.799   3.397  50.709  1.00  0.00     0.272 C 
HETATM   16  N7  UNL     1      21.780   3.835  49.900  1.00  0.00     0.096 N 
HETATM   17  C22 UNL     1      21.496   1.031  52.819  1.00  0.00     0.180 C 
HETATM   18  C23 UNL     1      22.965   0.997  52.548  1.00  0.00    -0.042 C 
HETATM   19  C24 UNL     1      23.821   0.296  53.191  1.00  0.00     0.032 C 
HETATM   20  H22 UNL     1      21.610   4.453  49.082  1.00  0.00     0.317 HD
ENDROOT
BRANCH   6  21
HETATM   21  N3  UNL     1      25.778   3.271  51.250  1.00  0.00    -0.370 N 
HETATM   22  H4  UNL     1      25.563   4.022  51.960  1.00  0.00     0.161 HD
BRANCH  21  23
HETATM   23  C5  UNL     1      26.477   3.106  49.967  1.00  0.00     0.160 C 
BRANCH  23  24
HETATM   24  C6  UNL     1      26.686   4.402  49.287  1.00  0.00    -0.040 A 
HETATM   25  C7  UNL     1      25.580   5.234  49.165  1.00  0.00     0.011 A 
HETATM   26  C8  UNL     1      25.610   6.483  48.552  1.00  0.00     0.033 A 
HETATM   27  C9  UNL     1      26.849   6.894  48.039  1.00  0.00     0.066 A 
HETATM   28  N4  UNL     1      26.958   8.087  47.436  1.00  0.00    -0.260 NA
HETATM   29  C13 UNL     1      28.022   6.115  48.118  1.00  0.00    -0.007 A 
HETATM   30  C10 UNL     1      28.067   8.603  46.906  1.00  0.00     0.117 A 
HETATM   31  C11 UNL     1      29.207   7.826  46.992  1.00  0.00     0.020 A 
HETATM   32  C12 UNL     1      29.206   6.567  47.599  1.00  0.00     0.015 A 
HETATM   33  C14 UNL     1      27.821   4.922  48.746  1.00  0.00     0.022 A 
ENDBRANCH  23  24
ENDBRANCH  21  23
ENDBRANCH   6  21
TORSDOF 3
ENDMDL
MODEL 3
REMARK VINA RESULT:      -9.5      3.806      7.152
REMARK  3 active torsions:
REMARK  status: ('A' for Active; 'I' for Inactive)
REMARK    1  A    between atoms: C4_6  and  N3_7 
REMARK    2  A    between atoms: N3_7  and  C5_8 
REMARK    3  A    between atoms: C5_8  and  C6_9 
ROOT
HETATM    1  C1  UNL     1      16.106   0.172  51.481  1.00  0.00     0.022 C 
HETATM    2  C2  UNL     1      16.331  -0.897  52.322  1.00  0.00     0.237 C 
HETATM    3  N1  UNL     1      16.797  -1.935  53.194  1.00  0.00    -0.298 NA
HETATM    4  C3  UNL     1      18.080  -2.009  53.459  1.00  0.00     0.171 C 
HETATM    5  N2  UNL     1      18.612  -0.957  52.740  1.00  0.00    -0.232 NA
HETATM    6  C4  UNL     1      19.576  -0.239  53.116  1.00  0.00     0.134 C 
HETATM    7  C15 UNL     1      19.609   0.634  51.914  1.00  0.00     0.013 C 
HETATM    8  C16 UNL     1      20.948   0.581  51.782  1.00  0.00     0.029 C 
HETATM    9  C17 UNL     1      21.985   1.244  50.952  1.00  0.00     0.286 C 
HETATM   10  C18 UNL     1      21.443   1.232  49.543  1.00  0.00     0.150 C 
HETATM   11  N5  UNL     1      20.304   1.600  48.946  1.00  0.00    -0.191 NA
HETATM   12  N6  UNL     1      19.540   2.678  49.524  1.00  0.00    -0.302 N 
HETATM   13  C19 UNL     1      19.529   4.123  49.626  1.00  0.00     0.147 C 
HETATM   14  C20 UNL     1      20.723   4.613  50.531  1.00  0.00     0.051 C 
HETATM   15  C21 UNL     1      21.478   3.420  50.733  1.00  0.00     0.272 C 
HETATM   16  N7  UNL     1      22.302   2.612  51.424  1.00  0.00     0.096 N 
HETATM   17  C22 UNL     1      18.400   2.478  50.321  1.00  0.00     0.180 C 
HETATM   18  C23 UNL     1      18.477   1.275  51.203  1.00  0.00    -0.042 C 
HETATM   19  C24 UNL     1      17.489   0.528  51.525  1.00  0.00     0.032 C 
HETATM   20  H22 UNL     1      23.333   2.741  51.453  1.00  0.00     0.317 HD
ENDROOT
BRANCH   6  21
HETATM   21  N3  UNL     1      20.488  -0.067  54.190  1.00  0.00    -0.370 N 
HETATM   22  H4  UNL     1      20.409   0.876  54.654  1.00  0.00     0.161 HD
BRANCH  21  23
HETATM   23  C5  UNL     1      21.257  -1.316  54.308  1.00  0.00     0.160 C 
BRANCH  23  24
HETATM   24  C6  UNL     1      22.710  -1.058  54.389  1.00  0.00    -0.040 A 
HETATM   25  C7  UNL     1      23.334  -1.354  55.595  1.00  0.00     0.011 A 
HETATM   26  C8  UNL     1      24.693  -1.169  55.834  1.00  0.00     0.033 A 
HETATM   27  C9  UNL     1      25.446  -0.650  54.770  1.00  0.00     0.066 A 
HETATM   28  N4  UNL     1      26.762  -0.447  54.923  1.00  0.00    -0.260 NA
HETATM   29  C13 UNL     1      24.896  -0.322  53.515  1.00  0.00    -0.007 A 
HETATM   30  C10 UNL     1      27.597   0.036  54.003  1.00  0.00     0.117 A 
HETATM   31  C11 UNL     1      27.041   0.354  52.778  1.00  0.00     0.020 A 
HETATM   32  C12 UNL     1      25.680   0.181  52.510  1.00  0.00     0.015 A 
HETATM   33  C14 UNL     1      23.556  -0.562  53.446  1.00  0.00     0.022 A 
ENDBRANCH  23  24
ENDBRANCH  21  23
ENDBRANCH   6  21
TORSDOF 3
ENDMDL
MODEL 4
REMARK VINA RESULT:      -9.4      2.254      6.433
REMARK  3 active torsions:
REMARK  status: ('A' for Active; 'I' for Inactive)
REMARK    1  A    between atoms: C4_6  and  N3_7 
REMARK    2  A    between atoms: N3_7  and  C5_8 
REMARK    3  A    between atoms: C5_8  and  C6_9 
ROOT
HETATM    1  C1  UNL     1      18.898   3.968  51.228  1.00  0.00     0.022 C 
HETATM    2  C2  UNL     1      19.046   2.676  51.686  1.00  0.00     0.237 C 
HETATM    3  N1  UNL     1      19.436   1.374  52.139  1.00  0.00    -0.298 NA
HETATM    4  C3  UNL     1      20.712   1.063  52.145  1.00  0.00     0.171 C 
HETATM    5  N2  UNL     1      21.317   2.208  51.666  1.00  0.00    -0.232 NA
HETATM    6  C4  UNL     1      22.430   2.654  52.053  1.00  0.00     0.134 C 
HETATM    7  C15 UNL     1      22.454   3.838  51.156  1.00  0.00     0.013 C 
HETATM    8  C16 UNL     1      23.736   3.660  50.783  1.00  0.00     0.029 C 
HETATM    9  C17 UNL     1      24.754   4.408  50.004  1.00  0.00     0.286 C 
HETATM   10  C18 UNL     1      24.040   4.891  48.764  1.00  0.00     0.150 C 
HETATM   11  N5  UNL     1      22.913   5.561  48.501  1.00  0.00    -0.191 NA
HETATM   12  N6  UNL     1      22.425   6.500  49.481  1.00  0.00    -0.302 N 
HETATM   13  C19 UNL     1      22.674   7.836  49.983  1.00  0.00     0.147 C 
HETATM   14  C20 UNL     1      24.042   7.877  50.765  1.00  0.00     0.051 C 
HETATM   15  C21 UNL     1      24.602   6.594  50.491  1.00  0.00     0.272 C 
HETATM   16  N7  UNL     1      25.359   5.520  50.775  1.00  0.00     0.096 N 
HETATM   17  C22 UNL     1      21.381   6.213  50.376  1.00  0.00     0.180 C 
HETATM   18  C23 UNL     1      21.366   4.799  50.860  1.00  0.00    -0.042 C 
HETATM   19  C24 UNL     1      20.315   4.119  51.129  1.00  0.00     0.032 C 
HETATM   20  H22 UNL     1      26.391   5.503  50.659  1.00  0.00     0.317 HD
ENDROOT
BRANCH   6  21
HETATM   21  N3  UNL     1      23.490   2.377  52.957  1.00  0.00    -0.370 N 
HETATM   22  H4  UNL     1      23.846   3.237  53.452  1.00  0.00     0.161 HD
BRANCH  21  23
HETATM   23  C5  UNL     1      23.734   0.928  52.905  1.00  0.00     0.160 C 
BRANCH  23  24
HETATM   24  C6  UNL     1      25.163   0.607  53.109  1.00  0.00    -0.040 A 
HETATM   25  C7  UNL     1      25.969   1.619  53.615  1.00  0.00     0.011 A 
HETATM   26  C8  UNL     1      27.331   1.478  53.864  1.00  0.00     0.033 A 
HETATM   27  C9  UNL     1      27.889   0.224  53.573  1.00  0.00     0.066 A 
HETATM   28  N4  UNL     1      29.196   0.011  53.788  1.00  0.00    -0.260 NA
HETATM   29  C13 UNL     1      27.147  -0.858  53.058  1.00  0.00    -0.007 A 
HETATM   30  C10 UNL     1      29.856  -1.124  53.561  1.00  0.00     0.117 A 
HETATM   31  C11 UNL     1      29.113  -2.175  53.055  1.00  0.00     0.020 A 
HETATM   32  C12 UNL     1      27.745  -2.062  52.794  1.00  0.00     0.015 A 
HETATM   33  C14 UNL     1      25.831  -0.555  52.872  1.00  0.00     0.022 A 
ENDBRANCH  23  24
ENDBRANCH  21  23
ENDBRANCH   6  21
TORSDOF 3
ENDMDL
MODEL 5
REMARK VINA RESULT:      -9.4      3.566      6.474
REMARK  3 active torsions:
REMARK  status: ('A' for Active; 'I' for Inactive)
REMARK    1  A    between atoms: C4_6  and  N3_7 
REMARK    2  A    between atoms: N3_7  and  C5_8 
REMARK    3  A    between atoms: C5_8  and  C6_9 
ROOT
HETATM    1  C1  UNL     1      20.558   0.250  54.697  1.00  0.00     0.022 C 
HETATM    2  C2  UNL     1      21.764  -0.418  54.722  1.00  0.00     0.237 C 
HETATM    3  N1  UNL     1      23.056  -1.008  54.533  1.00  0.00    -0.298 NA
HETATM    4  C3  UNL     1      23.699  -0.776  53.412  1.00  0.00     0.171 C 
HETATM    5  N2  UNL     1      22.832   0.042  52.715  1.00  0.00    -0.232 NA
HETATM    6  C4  UNL     1      23.180   0.994  51.967  1.00  0.00     0.134 C 
HETATM    7  C15 UNL     1      21.808   1.401  51.569  1.00  0.00     0.013 C 
HETATM    8  C16 UNL     1      22.110   1.527  50.263  1.00  0.00     0.029 C 
HETATM    9  C17 UNL     1      21.442   2.032  49.038  1.00  0.00     0.286 C 
HETATM   10  C18 UNL     1      20.047   1.455  49.072  1.00  0.00     0.150 C 
HETATM   11  N5  UNL     1      19.046   1.407  49.957  1.00  0.00    -0.191 NA
HETATM   12  N6  UNL     1      18.924   2.475  50.918  1.00  0.00    -0.302 N 
HETATM   13  C19 UNL     1      18.471   3.847  51.026  1.00  0.00     0.147 C 
HETATM   14  C20 UNL     1      19.438   4.803  50.229  1.00  0.00     0.051 C 
HETATM   15  C21 UNL     1      20.285   3.890  49.535  1.00  0.00     0.272 C 
HETATM   16  N7  UNL     1      21.439   3.511  48.958  1.00  0.00     0.096 N 
HETATM   17  C22 UNL     1      19.360   2.372  52.250  1.00  0.00     0.180 C 
HETATM   18  C23 UNL     1      20.607   1.568  52.422  1.00  0.00    -0.042 C 
HETATM   19  C24 UNL     1      20.876   0.823  53.427  1.00  0.00     0.032 C 
HETATM   20  H22 UNL     1      21.724   3.810  48.004  1.00  0.00     0.317 HD
ENDROOT
BRANCH   6  21
HETATM   21  N3  UNL     1      24.331   1.666  51.478  1.00  0.00    -0.370 N 
HETATM   22  H4  UNL     1      24.446   1.584  50.433  1.00  0.00     0.161 HD
BRANCH  21  23
HETATM   23  C5  UNL     1      24.995   2.284  52.636  1.00  0.00     0.160 C 
BRANCH  23  24
HETATM   24  C6  UNL     1      26.290   1.636  52.936  1.00  0.00    -0.040 A 
HETATM   25  C7  UNL     1      27.317   2.460  53.379  1.00  0.00     0.011 A 
HETATM   26  C8  UNL     1      28.592   2.007  53.703  1.00  0.00     0.033 A 
HETATM   27  C9  UNL     1      28.818   0.630  53.560  1.00  0.00     0.066 A 
HETATM   28  N4  UNL     1      30.022   0.118  53.855  1.00  0.00    -0.260 NA
HETATM   29  C13 UNL     1      27.835  -0.278  53.117  1.00  0.00    -0.007 A 
HETATM   30  C10 UNL     1      30.375  -1.164  53.768  1.00  0.00     0.117 A 
HETATM   31  C11 UNL     1      29.399  -2.040  53.331  1.00  0.00     0.020 A 
HETATM   32  C12 UNL     1      28.111  -1.614  52.997  1.00  0.00     0.015 A 
HETATM   33  C14 UNL     1      26.644   0.326  52.842  1.00  0.00     0.022 A 
ENDBRANCH  23  24
ENDBRANCH  21  23
ENDBRANCH   6  21
TORSDOF 3
ENDMDL
MODEL 6
REMARK VINA RESULT:      -9.4      2.177      7.279
REMARK  3 active torsions:
REMARK  status: ('A' for Active; 'I' for Inactive)
REMARK    1  A    between atoms: C4_6  and  N3_7 
REMARK    2  A    between atoms: N3_7  and  C5_8 
REMARK    3  A    between atoms: C5_8  and  C6_9 
ROOT
HETATM    1  C1  UNL     1      26.791   3.641  49.798  1.00  0.00     0.022 C 
HETATM    2  C2  UNL     1      25.499   3.913  49.400  1.00  0.00     0.237 C 
HETATM    3  N1  UNL     1      24.092   4.043  49.163  1.00  0.00    -0.298 NA
HETATM    4  C3  UNL     1      23.261   3.323  49.880  1.00  0.00     0.171 C 
HETATM    5  N2  UNL     1      24.101   2.605  50.710  1.00  0.00    -0.232 NA
HETATM    6  C4  UNL     1      23.850   2.305  51.907  1.00  0.00     0.134 C 
HETATM    7  C15 UNL     1      25.117   1.570  52.161  1.00  0.00     0.013 C 
HETATM    8  C16 UNL     1      24.516   0.536  52.779  1.00  0.00     0.029 C 
HETATM    9  C17 UNL     1      24.938  -0.669  53.537  1.00  0.00     0.286 C 
HETATM   10  C18 UNL     1      26.060  -1.280  52.733  1.00  0.00     0.150 C 
HETATM   11  N5  UNL     1      27.207  -0.849  52.198  1.00  0.00    -0.191 NA
HETATM   12  N6  UNL     1      27.892   0.251  52.831  1.00  0.00    -0.302 N 
HETATM   13  C19 UNL     1      28.734   0.547  53.973  1.00  0.00     0.147 C 
HETATM   14  C20 UNL     1      27.904   0.422  55.307  1.00  0.00     0.051 C 
HETATM   15  C21 UNL     1      26.672  -0.143  54.862  1.00  0.00     0.272 C 
HETATM   16  N7  UNL     1      25.345  -0.354  54.927  1.00  0.00     0.096 N 
HETATM   17  C22 UNL     1      27.830   1.574  52.363  1.00  0.00     0.180 C 
HETATM   18  C23 UNL     1      26.501   1.958  51.798  1.00  0.00    -0.042 C 
HETATM   19  C24 UNL     1      26.316   2.761  50.818  1.00  0.00     0.032 C 
HETATM   20  H22 UNL     1      24.908  -1.033  55.580  1.00  0.00     0.317 HD
ENDROOT
BRANCH   6  21
HETATM   21  N3  UNL     1      22.854   2.447  52.908  1.00  0.00    -0.370 N 
HETATM   22  H4  UNL     1      23.253   2.506  53.883  1.00  0.00     0.161 HD
BRANCH  21  23
HETATM   23  C5  UNL     1      21.553   2.478  52.223  1.00  0.00     0.160 C 
BRANCH  23  24
HETATM   24  C6  UNL     1      20.713   1.317  52.589  1.00  0.00    -0.040 A 
HETATM   25  C7  UNL     1      21.191   0.490  53.598  1.00  0.00     0.011 A 
HETATM   26  C8  UNL     1      20.522  -0.641  54.058  1.00  0.00     0.033 A 
HETATM   27  C9  UNL     1      19.296  -0.931  53.442  1.00  0.00     0.066 A 
HETATM   28  N4  UNL     1      18.592  -2.004  53.833  1.00  0.00    -0.260 NA
HETATM   29  C13 UNL     1      18.737  -0.148  52.412  1.00  0.00    -0.007 A 
HETATM   30  C10 UNL     1      17.417  -2.397  53.339  1.00  0.00     0.117 A 
HETATM   31  C11 UNL     1      16.885  -1.618  52.329  1.00  0.00     0.020 A 
HETATM   32  C12 UNL     1      17.534  -0.479  51.846  1.00  0.00     0.015 A 
HETATM   33  C14 UNL     1      19.516   0.920  52.079  1.00  0.00     0.022 A 
ENDBRANCH  23  24
ENDBRANCH  21  23
ENDBRANCH   6  21
TORSDOF 3
ENDMDL
MODEL 7
REMARK VINA RESULT:      -9.3      4.130     10.554
REMARK  3 active torsions:
REMARK  status: ('A' for Active; 'I' for Inactive)
REMARK    1  A    between atoms: C4_6  and  N3_7 
REMARK    2  A    between atoms: N3_7  and  C5_8 
REMARK    3  A    between atoms: C5_8  and  C6_9 
ROOT
HETATM    1  C1  UNL     1      33.573   7.452  45.315  1.00  0.00     0.022 C 
HETATM    2  C2  UNL     1      33.911   6.430  46.176  1.00  0.00     0.237 C 
HETATM    3  N1  UNL     1      34.089   5.459  47.215  1.00  0.00    -0.298 NA
HETATM    4  C3  UNL     1      33.375   5.568  48.311  1.00  0.00     0.171 C 
HETATM    5  N2  UNL     1      32.610   6.694  48.079  1.00  0.00    -0.232 NA
HETATM    6  C4  UNL     1      31.419   6.850  48.458  1.00  0.00     0.134 C 
HETATM    7  C15 UNL     1      31.246   8.215  47.897  1.00  0.00     0.013 C 
HETATM    8  C16 UNL     1      30.652   8.707  49.002  1.00  0.00     0.029 C 
HETATM    9  C17 UNL     1      29.965   9.962  49.398  1.00  0.00     0.286 C 
HETATM   10  C18 UNL     1      30.837  11.080  48.880  1.00  0.00     0.150 C 
HETATM   11  N5  UNL     1      31.393  11.404  47.708  1.00  0.00    -0.191 NA
HETATM   12  N6  UNL     1      30.737  10.984  46.494  1.00  0.00    -0.302 N 
HETATM   13  C19 UNL     1      29.615  11.325  45.643  1.00  0.00     0.147 C 
HETATM   14  C20 UNL     1      28.259  10.999  46.376  1.00  0.00     0.051 C 
HETATM   15  C21 UNL     1      28.683  10.673  47.698  1.00  0.00     0.272 C 
HETATM   16  N7  UNL     1      28.579  10.040  48.880  1.00  0.00     0.096 N 
HETATM   17  C22 UNL     1      31.143   9.869  45.740  1.00  0.00     0.180 C 
HETATM   18  C23 UNL     1      31.641   8.726  46.564  1.00  0.00    -0.042 C 
HETATM   19  C24 UNL     1      32.576   7.921  46.225  1.00  0.00     0.032 C 
HETATM   20  H22 UNL     1      27.940  10.351  49.639  1.00  0.00     0.317 HD
ENDROOT
BRANCH   6  21
HETATM   21  N3  UNL     1      30.376   6.191  49.160  1.00  0.00    -0.370 N 
HETATM   22  H4  UNL     1      30.372   6.407  50.193  1.00  0.00     0.161 HD
BRANCH  21  23
HETATM   23  C5  UNL     1      29.616   5.410  48.173  1.00  0.00     0.160 C 
BRANCH  23  24
HETATM   24  C6  UNL     1      28.163   5.452  48.443  1.00  0.00    -0.040 A 
HETATM   25  C7  UNL     1      27.514   6.657  48.203  1.00  0.00     0.011 A 
HETATM   26  C8  UNL     1      26.152   6.861  48.407  1.00  0.00     0.033 A 
HETATM   27  C9  UNL     1      25.424   5.762  48.884  1.00  0.00     0.066 A 
HETATM   28  N4  UNL     1      24.106   5.880  49.102  1.00  0.00    -0.260 NA
HETATM   29  C13 UNL     1      26.000   4.504  49.154  1.00  0.00    -0.007 A 
HETATM   30  C10 UNL     1      23.293   4.924  49.550  1.00  0.00     0.117 A 
HETATM   31  C11 UNL     1      23.875   3.697  49.811  1.00  0.00     0.020 A 
HETATM   32  C12 UNL     1      25.238   3.464  49.618  1.00  0.00     0.015 A 
HETATM   33  C14 UNL     1      27.339   4.472  48.903  1.00  0.00     0.022 A 
ENDBRANCH  23  24
ENDBRANCH  21  23
ENDBRANCH   6  21
TORSDOF 3
ENDMDL
MODEL 8
REMARK VINA RESULT:      -9.2      2.607      8.031
REMARK  3 active torsions:
REMARK  status: ('A' for Active; 'I' for Inactive)
REMARK    1  A    between atoms: C4_6  and  N3_7 
REMARK    2  A    between atoms: N3_7  and  C5_8 
REMARK    3  A    between atoms: C5_8  and  C6_9 
ROOT
HETATM    1  C1  UNL     1      26.368   2.912  49.710  1.00  0.00     0.022 C 
HETATM    2  C2  UNL     1      26.804   2.489  50.947  1.00  0.00     0.237 C 
HETATM    3  N1  UNL     1      27.029   2.088  52.305  1.00  0.00    -0.298 NA
HETATM    4  C3  UNL     1      26.040   2.181  53.163  1.00  0.00     0.171 C 
HETATM    5  N2  UNL     1      25.006   2.684  52.399  1.00  0.00    -0.232 NA
HETATM    6  C4  UNL     1      23.792   2.372  52.530  1.00  0.00     0.134 C 
HETATM    7  C15 UNL     1      23.279   3.249  51.446  1.00  0.00     0.013 C 
HETATM    8  C16 UNL     1      22.246   3.718  52.171  1.00  0.00     0.029 C 
HETATM    9  C17 UNL     1      21.045   4.558  51.933  1.00  0.00     0.286 C 
HETATM   10  C18 UNL     1      21.529   5.734  51.118  1.00  0.00     0.150 C 
HETATM   11  N5  UNL     1      22.236   5.902  49.995  1.00  0.00    -0.191 NA
HETATM   12  N6  UNL     1      22.180   4.873  48.986  1.00  0.00    -0.302 N 
HETATM   13  C19 UNL     1      21.317   4.369  47.937  1.00  0.00     0.147 C 
HETATM   14  C20 UNL     1      20.041   3.689  48.564  1.00  0.00     0.051 C 
HETATM   15  C21 UNL     1      20.149   4.024  49.945  1.00  0.00     0.272 C 
HETATM   16  N7  UNL     1      19.954   3.815  51.260  1.00  0.00     0.096 N 
HETATM   17  C22 UNL     1      23.186   3.908  48.808  1.00  0.00     0.180 C 
HETATM   18  C23 UNL     1      23.820   3.448  50.081  1.00  0.00    -0.042 C 
HETATM   19  C24 UNL     1      25.048   3.114  50.218  1.00  0.00     0.032 C 
HETATM   20  H22 UNL     1      19.053   4.007  51.740  1.00  0.00     0.317 HD
ENDROOT
BRANCH   6  21
HETATM   21  N3  UNL     1      22.927   1.555  53.304  1.00  0.00    -0.370 N 
HETATM   22  H4  UNL     1      22.667   1.987  54.230  1.00  0.00     0.161 HD
BRANCH  21  23
HETATM   23  C5  UNL     1      22.663   0.340  52.518  1.00  0.00     0.160 C 
BRANCH  23  24
HETATM   24  C6  UNL     1      21.214   0.104  52.345  1.00  0.00    -0.040 A 
HETATM   25  C7  UNL     1      20.559  -0.564  53.372  1.00  0.00     0.011 A 
HETATM   26  C8  UNL     1      19.200  -0.863  53.362  1.00  0.00     0.033 A 
HETATM   27  C9  UNL     1      18.481  -0.451  52.231  1.00  0.00     0.066 A 
HETATM   28  N4  UNL     1      17.166  -0.702  52.149  1.00  0.00    -0.260 NA
HETATM   29  C13 UNL     1      19.064   0.230  51.143  1.00  0.00    -0.007 A 
HETATM   30  C10 UNL     1      16.361  -0.369  51.140  1.00  0.00     0.117 A 
HETATM   31  C11 UNL     1      16.950   0.298  50.082  1.00  0.00     0.020 A 
HETATM   32  C12 UNL     1      18.312   0.610  50.063  1.00  0.00     0.015 A 
HETATM   33  C14 UNL     1      20.400   0.444  51.309  1.00  0.00     0.022 A 
ENDBRANCH  23  24
ENDBRANCH  21  23
ENDBRANCH   6  21
TORSDOF 3
ENDMDL
MODEL 9
REMARK VINA RESULT:      -9.1      1.900      7.853
REMARK  3 active torsions:
REMARK  status: ('A' for Active; 'I' for Inactive)
REMARK    1  A    between atoms: C4_6  and  N3_7 
REMARK    2  A    between atoms: N3_7  and  C5_8 
REMARK    3  A    between atoms: C5_8  and  C6_9 
ROOT
HETATM    1  C1  UNL     1      22.724   8.204  49.980  1.00  0.00     0.022 C 
HETATM    2  C2  UNL     1      22.316   6.891  50.075  1.00  0.00     0.237 C 
HETATM    3  N1  UNL     1      22.122   5.472  50.122  1.00  0.00    -0.298 NA
HETATM    4  C3  UNL     1      23.135   4.686  49.844  1.00  0.00     0.171 C 
HETATM    5  N2  UNL     1      24.156   5.573  49.569  1.00  0.00    -0.232 NA
HETATM    6  C4  UNL     1      25.368   5.397  49.868  1.00  0.00     0.134 C 
HETATM    7  C15 UNL     1      25.866   6.676  49.298  1.00  0.00     0.013 C 
HETATM    8  C16 UNL     1      26.926   6.112  48.689  1.00  0.00     0.029 C 
HETATM    9  C17 UNL     1      28.135   6.578  47.963  1.00  0.00     0.286 C 
HETATM   10  C18 UNL     1      27.649   7.647  47.014  1.00  0.00     0.150 C 
HETATM   11  N5  UNL     1      26.914   8.760  47.112  1.00  0.00    -0.191 NA
HETATM   12  N6  UNL     1      26.924   9.485  48.359  1.00  0.00    -0.302 N 
HETATM   13  C19 UNL     1      27.749  10.395  49.127  1.00  0.00     0.147 C 
HETATM   14  C20 UNL     1      29.030   9.649  49.661  1.00  0.00     0.051 C 
HETATM   15  C21 UNL     1      28.966   8.391  48.992  1.00  0.00     0.272 C 
HETATM   16  N7  UNL     1      29.193   7.071  48.875  1.00  0.00     0.096 N 
HETATM   17  C22 UNL     1      25.897   9.395  49.314  1.00  0.00     0.180 C 
HETATM   18  C23 UNL     1      25.291   8.035  49.430  1.00  0.00    -0.042 C 
HETATM   19  C24 UNL     1      24.061   7.791  49.691  1.00  0.00     0.032 C 
HETATM   20  H22 UNL     1      30.110   6.673  48.592  1.00  0.00     0.317 HD
ENDROOT
BRANCH   6  21
HETATM   21  N3  UNL     1      26.239   4.464  50.489  1.00  0.00    -0.370 N 
HETATM   22  H4  UNL     1      26.917   4.915  51.160  1.00  0.00     0.161 HD
BRANCH  21  23
HETATM   23  C5  UNL     1      25.881   3.132  49.981  1.00  0.00     0.160 C 
BRANCH  23  24
HETATM   24  C6  UNL     1      25.653   2.170  51.080  1.00  0.00    -0.040 A 
HETATM   25  C7  UNL     1      26.780   1.641  51.696  1.00  0.00     0.011 A 
HETATM   26  C8  UNL     1      26.737   0.725  52.743  1.00  0.00     0.033 A 
HETATM   27  C9  UNL     1      25.461   0.335  53.176  1.00  0.00     0.066 A 
HETATM   28  N4  UNL     1      25.337  -0.542  54.182  1.00  0.00    -0.260 NA
HETATM   29  C13 UNL     1      24.265   0.820  52.609  1.00  0.00    -0.007 A 
HETATM   30  C10 UNL     1      24.194  -0.998  54.694  1.00  0.00     0.117 A 
HETATM   31  C11 UNL     1      23.031  -0.512  54.126  1.00  0.00     0.020 A 
HETATM   32  C12 UNL     1      23.044   0.406  53.073  1.00  0.00     0.015 A 
HETATM   33  C14 UNL     1      24.482   1.707  51.596  1.00  0.00     0.022 A 
ENDBRANCH  23  24
ENDBRANCH  21  23
ENDBRANCH   6  21
TORSDOF 3
ENDMDL
