MODEL 1
REMARK VINA RESULT:      -7.6      0.000      0.000
REMARK  8 active torsions:
REMARK  status: ('A' for Active; 'I' for Inactive)
REMARK    1  A    between atoms: C2_2  and  C3_3 
REMARK    2  A    between atoms: C3_3  and  C4_4 
REMARK    3  A    between atoms: C4_4  and  C5_5 
REMARK    4  A    between atoms: C5_5  and  C6_6 
REMARK    5  A    between atoms: C6_6  and  N1_7 
REMARK       I    between atoms: N1_7  and  C7_8 
REMARK    6  A    between atoms: C7_8  and  C8_10 
REMARK    7  A    between atoms: C8_10  and  C9_11 
REMARK    8  A    between atoms: C11_13  and  O2_14 
ROOT
HETATM    1  C9  UNL     1      21.943   1.028  51.203  1.00  0.00     0.014 A 
HETATM    2  C10 UNL     1      20.721   1.041  50.794  1.00  0.00     0.046 A 
HETATM    3  C11 UNL     1      20.543   0.237  51.964  1.00  0.00     0.093 A 
HETATM    4  C12 UNL     1      20.448  -0.515  53.081  1.00  0.00     0.066 A 
HETATM    5  C13 UNL     1      21.607  -0.854  53.959  1.00  0.00     0.168 A 
HETATM    6  O3  UNL     1      21.206  -1.529  54.958  1.00  0.00    -0.289 OA
HETATM    7  C14 UNL     1      23.076  -0.744  54.209  1.00  0.00     0.041 A 
HETATM    8  C15 UNL     1      24.249  -0.288  53.866  1.00  0.00     0.020 A 
HETATM    9  C16 UNL     1      24.038   0.500  52.646  1.00  0.00     0.004 A 
HETATM   10  C17 UNL     1      23.271   0.956  51.733  1.00  0.00     0.016 A 
HETATM   11  C18 UNL     1      25.352   0.362  53.178  1.00  0.00     0.018 A 
HETATM   12  C19 UNL     1      26.417  -0.419  52.557  1.00  0.00    -0.011 A 
HETATM   13  C20 UNL     1      27.544   0.204  52.798  1.00  0.00    -0.003 A 
HETATM   14  C21 UNL     1      27.304   1.419  53.583  1.00  0.00    -0.003 A 
HETATM   15  C22 UNL     1      26.010   1.543  53.829  1.00  0.00    -0.011 A 
ENDROOT
BRANCH   1  16
HETATM   16  C8  UNL     1      22.598   1.885  50.134  1.00  0.00     0.101 C 
BRANCH  16  17
HETATM   17  C7  UNL     1      22.603   3.296  50.654  1.00  0.00     0.152 C 
HETATM   18  N1  UNL     1      22.585   4.392  51.548  1.00  0.00    -0.372 N 
HETATM   19  H14 UNL     1      22.533   3.713  52.365  1.00  0.00     0.161 HD
HETATM   20  O1  UNL     1      22.675   3.435  49.347  1.00  0.00    -0.177 OA
BRANCH  18  21
HETATM   21  C6  UNL     1      22.643   5.696  50.919  1.00  0.00     0.121 C 
BRANCH  21  22
HETATM   22  C5  UNL     1      24.009   6.261  50.934  1.00  0.00     0.020 C 
BRANCH  22  23
HETATM   23  C4  UNL     1      24.630   6.122  49.549  1.00  0.00     0.002 C 
BRANCH  23  24
HETATM   24  C3  UNL     1      26.042   5.586  49.707  1.00  0.00    -0.000 C 
BRANCH  24  25
HETATM   25  C2  UNL     1      26.159   4.150  49.328  1.00  0.00    -0.005 C 
HETATM   26  C1  UNL     1      26.293   3.188  50.462  1.00  0.00     0.005 C 
ENDBRANCH  24  25
ENDBRANCH  23  24
ENDBRANCH  22  23
ENDBRANCH  21  22
ENDBRANCH  18  21
ENDBRANCH  16  17
ENDBRANCH   1  16
BRANCH   3  27
HETATM   27  O2  UNL     1      19.156   0.153  51.645  1.00  0.00    -0.384 OA
HETATM   28  H18 UNL     1      18.818  -0.803  51.523  1.00  0.00     0.211 HD
ENDBRANCH   3  27
TORSDOF 8
ENDMDL
MODEL 2
REMARK VINA RESULT:      -7.4      2.183      4.777
REMARK  8 active torsions:
REMARK  status: ('A' for Active; 'I' for Inactive)
REMARK    1  A    between atoms: C2_2  and  C3_3 
REMARK    2  A    between atoms: C3_3  and  C4_4 
REMARK    3  A    between atoms: C4_4  and  C5_5 
REMARK    4  A    between atoms: C5_5  and  C6_6 
REMARK    5  A    between atoms: C6_6  and  N1_7 
REMARK       I    between atoms: N1_7  and  C7_8 
REMARK    6  A    between atoms: C7_8  and  C8_10 
REMARK    7  A    between atoms: C8_10  and  C9_11 
REMARK    8  A    between atoms: C11_13  and  O2_14 
ROOT
HETATM    1  C9  UNL     1      25.614   2.293  51.312  1.00  0.00     0.014 A 
HETATM    2  C10 UNL     1      26.882   2.520  51.335  1.00  0.00     0.046 A 
HETATM    3  C11 UNL     1      26.814   1.593  52.424  1.00  0.00     0.093 A 
HETATM    4  C12 UNL     1      26.676   0.715  53.438  1.00  0.00     0.066 A 
HETATM    5  C13 UNL     1      25.372   0.119  53.854  1.00  0.00     0.168 A 
HETATM    6  O3  UNL     1      25.559  -0.708  54.800  1.00  0.00    -0.289 OA
HETATM    7  C14 UNL     1      23.894   0.044  53.645  1.00  0.00     0.041 A 
HETATM    8  C15 UNL     1      22.827   0.405  52.987  1.00  0.00     0.020 A 
HETATM    9  C16 UNL     1      23.285   1.332  51.946  1.00  0.00     0.004 A 
HETATM   10  C17 UNL     1      24.218   1.981  51.364  1.00  0.00     0.016 A 
HETATM   11  C18 UNL     1      21.898   1.033  52.063  1.00  0.00     0.018 A 
HETATM   12  C19 UNL     1      20.887   1.974  52.536  1.00  0.00    -0.011 A 
HETATM   13  C20 UNL     1      19.786   1.726  51.870  1.00  0.00    -0.003 A 
HETATM   14  C21 UNL     1      19.991   0.621  50.928  1.00  0.00    -0.003 A 
HETATM   15  C22 UNL     1      21.237   0.183  51.018  1.00  0.00    -0.011 A 
ENDROOT
BRANCH   1  16
HETATM   16  C8  UNL     1      25.200   3.172  50.144  1.00  0.00     0.101 C 
BRANCH  16  17
HETATM   17  C7  UNL     1      24.703   4.464  50.731  1.00  0.00     0.152 C 
HETATM   18  N1  UNL     1      24.272   5.427  51.674  1.00  0.00    -0.372 N 
HETATM   19  H14 UNL     1      24.410   4.714  52.451  1.00  0.00     0.161 HD
HETATM   20  O1  UNL     1      24.790   4.709  49.440  1.00  0.00    -0.177 OA
BRANCH  18  21
HETATM   21  C6  UNL     1      23.919   6.715  51.114  1.00  0.00     0.121 C 
BRANCH  21  22
HETATM   22  C5  UNL     1      22.482   6.801  50.779  1.00  0.00     0.020 C 
BRANCH  22  23
HETATM   23  C4  UNL     1      21.724   5.699  51.508  1.00  0.00     0.002 C 
BRANCH  23  24
HETATM   24  C3  UNL     1      20.719   5.089  50.546  1.00  0.00    -0.000 C 
BRANCH  24  25
HETATM   25  C2  UNL     1      21.313   4.773  49.217  1.00  0.00    -0.005 C 
HETATM   26  C1  UNL     1      21.577   3.328  48.949  1.00  0.00     0.005 C 
ENDBRANCH  24  25
ENDBRANCH  23  24
ENDBRANCH  22  23
ENDBRANCH  21  22
ENDBRANCH  18  21
ENDBRANCH  16  17
ENDBRANCH   1  16
BRANCH   3  27
HETATM   27  O2  UNL     1      28.224   1.738  52.581  1.00  0.00    -0.384 OA
HETATM   28  H18 UNL     1      28.726   0.849  52.633  1.00  0.00     0.211 HD
ENDBRANCH   3  27
TORSDOF 8
ENDMDL
MODEL 3
REMARK VINA RESULT:      -7.4      1.613      2.012
REMARK  8 active torsions:
REMARK  status: ('A' for Active; 'I' for Inactive)
REMARK    1  A    between atoms: C2_2  and  C3_3 
REMARK    2  A    between atoms: C3_3  and  C4_4 
REMARK    3  A    between atoms: C4_4  and  C5_5 
REMARK    4  A    between atoms: C5_5  and  C6_6 
REMARK    5  A    between atoms: C6_6  and  N1_7 
REMARK       I    between atoms: N1_7  and  C7_8 
REMARK    6  A    between atoms: C7_8  and  C8_10 
REMARK    7  A    between atoms: C8_10  and  C9_11 
REMARK    8  A    between atoms: C11_13  and  O2_14 
ROOT
HETATM    1  C9  UNL     1      23.807   1.351  51.779  1.00  0.00     0.014 A 
HETATM    2  C10 UNL     1      22.646   1.739  51.378  1.00  0.00     0.046 A 
HETATM    3  C11 UNL     1      22.227   0.933  52.483  1.00  0.00     0.093 A 
HETATM    4  C12 UNL     1      21.905   0.158  53.540  1.00  0.00     0.066 A 
HETATM    5  C13 UNL     1      22.906  -0.559  54.385  1.00  0.00     0.168 A 
HETATM    6  O3  UNL     1      22.314  -1.166  55.331  1.00  0.00    -0.289 OA
HETATM    7  C14 UNL     1      24.343  -0.887  54.636  1.00  0.00     0.041 A 
HETATM    8  C15 UNL     1      25.603  -0.756  54.324  1.00  0.00     0.020 A 
HETATM    9  C16 UNL     1      25.643   0.148  53.168  1.00  0.00     0.004 A 
HETATM   10  C17 UNL     1      25.051   0.868  52.296  1.00  0.00     0.016 A 
HETATM   11  C18 UNL     1      26.855  -0.394  53.683  1.00  0.00     0.018 A 
HETATM   12  C19 UNL     1      27.669  -1.396  53.000  1.00  0.00    -0.011 A 
HETATM   13  C20 UNL     1      28.921  -1.135  53.283  1.00  0.00    -0.003 A 
HETATM   14  C21 UNL     1      29.019   0.036  54.159  1.00  0.00    -0.003 A 
HETATM   15  C22 UNL     1      27.808   0.502  54.420  1.00  0.00    -0.011 A 
ENDROOT
BRANCH   1  16
HETATM   16  C8  UNL     1      24.696   2.066  50.776  1.00  0.00     0.101 C 
BRANCH  16  17
HETATM   17  C7  UNL     1      24.449   3.539  50.952  1.00  0.00     0.152 C 
HETATM   18  N1  UNL     1      24.246   4.797  51.566  1.00  0.00    -0.372 N 
HETATM   19  H14 UNL     1      24.335   4.335  52.520  1.00  0.00     0.161 HD
HETATM   20  O1  UNL     1      24.470   3.370  49.647  1.00  0.00    -0.177 OA
BRANCH  18  21
HETATM   21  C6  UNL     1      24.051   5.901  50.649  1.00  0.00     0.121 C 
BRANCH  21  22
HETATM   22  C5  UNL     1      25.312   6.618  50.365  1.00  0.00     0.020 C 
BRANCH  22  23
HETATM   23  C4  UNL     1      25.654   6.477  48.887  1.00  0.00     0.002 C 
BRANCH  23  24
HETATM   24  C3  UNL     1      26.895   5.611  48.763  1.00  0.00    -0.000 C 
BRANCH  24  25
HETATM   25  C2  UNL     1      28.068   6.358  48.230  1.00  0.00    -0.005 C 
HETATM   26  C1  UNL     1      29.334   5.577  48.103  1.00  0.00     0.005 C 
ENDBRANCH  24  25
ENDBRANCH  23  24
ENDBRANCH  22  23
ENDBRANCH  21  22
ENDBRANCH  18  21
ENDBRANCH  16  17
ENDBRANCH   1  16
BRANCH   3  27
HETATM   27  O2  UNL     1      20.879   1.268  52.165  1.00  0.00    -0.384 OA
HETATM   28  H18 UNL     1      20.782   2.154  51.665  1.00  0.00     0.211 HD
ENDBRANCH   3  27
TORSDOF 8
ENDMDL
MODEL 4
REMARK VINA RESULT:      -7.2      1.555      2.350
REMARK  8 active torsions:
REMARK  status: ('A' for Active; 'I' for Inactive)
REMARK    1  A    between atoms: C2_2  and  C3_3 
REMARK    2  A    between atoms: C3_3  and  C4_4 
REMARK    3  A    between atoms: C4_4  and  C5_5 
REMARK    4  A    between atoms: C5_5  and  C6_6 
REMARK    5  A    between atoms: C6_6  and  N1_7 
REMARK       I    between atoms: N1_7  and  C7_8 
REMARK    6  A    between atoms: C7_8  and  C8_10 
REMARK    7  A    between atoms: C8_10  and  C9_11 
REMARK    8  A    between atoms: C11_13  and  O2_14 
ROOT
HETATM    1  C9  UNL     1      23.415   1.386  51.934  1.00  0.00     0.014 A 
HETATM    2  C10 UNL     1      22.236   1.743  51.554  1.00  0.00     0.046 A 
HETATM    3  C11 UNL     1      21.856   0.846  52.602  1.00  0.00     0.093 A 
HETATM    4  C12 UNL     1      21.571  -0.011  53.604  1.00  0.00     0.066 A 
HETATM    5  C13 UNL     1      22.604  -0.733  54.404  1.00  0.00     0.168 A 
HETATM    6  O3  UNL     1      22.041  -1.429  55.305  1.00  0.00    -0.289 OA
HETATM    7  C14 UNL     1      24.055  -1.007  54.640  1.00  0.00     0.041 A 
HETATM    8  C15 UNL     1      25.307  -0.796  54.342  1.00  0.00     0.020 A 
HETATM    9  C16 UNL     1      25.305   0.183  53.248  1.00  0.00     0.004 A 
HETATM   10  C17 UNL     1      24.680   0.931  52.423  1.00  0.00     0.016 A 
HETATM   11  C18 UNL     1      26.542  -0.332  53.731  1.00  0.00     0.018 A 
HETATM   12  C19 UNL     1      27.403  -1.246  52.987  1.00  0.00    -0.011 A 
HETATM   13  C20 UNL     1      28.641  -0.945  53.293  1.00  0.00    -0.003 A 
HETATM   14  C21 UNL     1      28.681   0.169  54.245  1.00  0.00    -0.003 A 
HETATM   15  C22 UNL     1      27.449   0.558  54.530  1.00  0.00    -0.011 A 
ENDROOT
BRANCH   1  16
HETATM   16  C8  UNL     1      24.269   2.207  50.984  1.00  0.00     0.101 C 
BRANCH  16  17
HETATM   17  C7  UNL     1      24.099   3.647  51.384  1.00  0.00     0.152 C 
HETATM   18  N1  UNL     1      23.694   4.797  52.102  1.00  0.00    -0.372 N 
HETATM   19  H14 UNL     1      23.177   4.173  52.791  1.00  0.00     0.161 HD
HETATM   20  O1  UNL     1      24.851   3.700  50.305  1.00  0.00    -0.177 OA
BRANCH  18  21
HETATM   21  C6  UNL     1      24.160   6.054  51.556  1.00  0.00     0.121 C 
BRANCH  21  22
HETATM   22  C5  UNL     1      23.116   6.738  50.763  1.00  0.00     0.020 C 
BRANCH  22  23
HETATM   23  C4  UNL     1      21.746   6.205  51.163  1.00  0.00     0.002 C 
BRANCH  23  24
HETATM   24  C3  UNL     1      20.951   5.927  49.898  1.00  0.00    -0.000 C 
BRANCH  24  25
HETATM   25  C2  UNL     1      20.996   4.494  49.493  1.00  0.00    -0.005 C 
HETATM   26  C1  UNL     1      21.907   4.169  48.356  1.00  0.00     0.005 C 
ENDBRANCH  24  25
ENDBRANCH  23  24
ENDBRANCH  22  23
ENDBRANCH  21  22
ENDBRANCH  18  21
ENDBRANCH  16  17
ENDBRANCH   1  16
BRANCH   3  27
HETATM   27  O2  UNL     1      20.493   1.136  52.300  1.00  0.00    -0.384 OA
HETATM   28  H18 UNL     1      20.358   1.581  51.390  1.00  0.00     0.211 HD
ENDBRANCH   3  27
TORSDOF 8
ENDMDL
MODEL 5
REMARK VINA RESULT:      -7.2      1.980      5.635
REMARK  8 active torsions:
REMARK  status: ('A' for Active; 'I' for Inactive)
REMARK    1  A    between atoms: C2_2  and  C3_3 
REMARK    2  A    between atoms: C3_3  and  C4_4 
REMARK    3  A    between atoms: C4_4  and  C5_5 
REMARK    4  A    between atoms: C5_5  and  C6_6 
REMARK    5  A    between atoms: C6_6  and  N1_7 
REMARK       I    between atoms: N1_7  and  C7_8 
REMARK    6  A    between atoms: C7_8  and  C8_10 
REMARK    7  A    between atoms: C8_10  and  C9_11 
REMARK    8  A    between atoms: C11_13  and  O2_14 
ROOT
HETATM    1  C9  UNL     1      23.374   4.221  51.414  1.00  0.00     0.014 A 
HETATM    2  C10 UNL     1      22.850   5.196  50.754  1.00  0.00     0.046 A 
HETATM    3  C11 UNL     1      24.082   5.092  50.034  1.00  0.00     0.093 A 
HETATM    4  C12 UNL     1      25.263   4.938  49.400  1.00  0.00     0.066 A 
HETATM    5  C13 UNL     1      26.286   3.918  49.779  1.00  0.00     0.168 A 
HETATM    6  O3  UNL     1      27.269   3.976  48.975  1.00  0.00    -0.289 OA
HETATM    7  C14 UNL     1      26.686   2.812  50.702  1.00  0.00     0.041 A 
HETATM    8  C15 UNL     1      26.417   2.032  51.712  1.00  0.00     0.020 A 
HETATM    9  C16 UNL     1      25.077   2.413  52.174  1.00  0.00     0.004 A 
HETATM   10  C17 UNL     1      24.035   3.146  52.089  1.00  0.00     0.016 A 
HETATM   11  C18 UNL     1      25.789   1.381  52.850  1.00  0.00     0.018 A 
HETATM   12  C19 UNL     1      26.350   1.506  54.192  1.00  0.00    -0.011 A 
HETATM   13  C20 UNL     1      26.245   0.332  54.765  1.00  0.00    -0.003 A 
HETATM   14  C21 UNL     1      25.620  -0.632  53.855  1.00  0.00    -0.003 A 
HETATM   15  C22 UNL     1      25.337  -0.043  52.705  1.00  0.00    -0.011 A 
ENDROOT
BRANCH   1  16
HETATM   16  C8  UNL     1      22.268   3.945  52.418  1.00  0.00     0.101 C 
BRANCH  16  17
HETATM   17  C7  UNL     1      21.257   3.078  51.721  1.00  0.00     0.152 C 
HETATM   18  N1  UNL     1      20.636   2.278  50.733  1.00  0.00    -0.372 N 
HETATM   19  H14 UNL     1      21.474   2.428  50.096  1.00  0.00     0.161 HD
HETATM   20  O1  UNL     1      20.712   3.327  52.893  1.00  0.00    -0.177 OA
BRANCH  18  21
HETATM   21  C6  UNL     1      19.336   1.754  51.099  1.00  0.00     0.121 C 
BRANCH  21  22
HETATM   22  C5  UNL     1      19.339   0.279  51.197  1.00  0.00     0.020 C 
BRANCH  22  23
HETATM   23  C4  UNL     1      19.788  -0.136  52.593  1.00  0.00     0.002 C 
BRANCH  23  24
HETATM   24  C3  UNL     1      21.294  -0.336  52.573  1.00  0.00    -0.000 C 
BRANCH  24  25
HETATM   25  C2  UNL     1      21.950   0.099  53.837  1.00  0.00    -0.005 C 
HETATM   26  C1  UNL     1      21.921  -0.888  54.957  1.00  0.00     0.005 C 
ENDBRANCH  24  25
ENDBRANCH  23  24
ENDBRANCH  22  23
ENDBRANCH  21  22
ENDBRANCH  18  21
ENDBRANCH  16  17
ENDBRANCH   1  16
BRANCH   3  27
HETATM   27  O2  UNL     1      23.645   6.171  49.211  1.00  0.00    -0.384 OA
HETATM   28  H18 UNL     1      22.706   6.043  48.829  1.00  0.00     0.211 HD
ENDBRANCH   3  27
TORSDOF 8
ENDMDL
MODEL 6
REMARK VINA RESULT:      -7.0      1.891      3.404
REMARK  8 active torsions:
REMARK  status: ('A' for Active; 'I' for Inactive)
REMARK    1  A    between atoms: C2_2  and  C3_3 
REMARK    2  A    between atoms: C3_3  and  C4_4 
REMARK    3  A    between atoms: C4_4  and  C5_5 
REMARK    4  A    between atoms: C5_5  and  C6_6 
REMARK    5  A    between atoms: C6_6  and  N1_7 
REMARK       I    between atoms: N1_7  and  C7_8 
REMARK    6  A    between atoms: C7_8  and  C8_10 
REMARK    7  A    between atoms: C8_10  and  C9_11 
REMARK    8  A    between atoms: C11_13  and  O2_14 
ROOT
HETATM    1  C9  UNL     1      25.195   2.319  50.811  1.00  0.00     0.014 A 
HETATM    2  C10 UNL     1      24.293   2.959  50.150  1.00  0.00     0.046 A 
HETATM    3  C11 UNL     1      23.435   2.288  51.079  1.00  0.00     0.093 A 
HETATM    4  C12 UNL     1      22.688   1.625  51.985  1.00  0.00     0.066 A 
HETATM    5  C13 UNL     1      23.252   0.708  53.021  1.00  0.00     0.168 A 
HETATM    6  O3  UNL     1      22.317   0.269  53.761  1.00  0.00    -0.289 OA
HETATM    7  C14 UNL     1      24.464   0.060  53.608  1.00  0.00     0.041 A 
HETATM    8  C15 UNL     1      25.757  -0.110  53.626  1.00  0.00     0.020 A 
HETATM    9  C16 UNL     1      26.294   0.743  52.559  1.00  0.00     0.004 A 
HETATM   10  C17 UNL     1      26.123   1.568  51.600  1.00  0.00     0.016 A 
HETATM   11  C18 UNL     1      27.180  -0.058  53.336  1.00  0.00     0.018 A 
HETATM   12  C19 UNL     1      27.889  -1.230  52.833  1.00  0.00    -0.011 A 
HETATM   13  C20 UNL     1      29.054  -1.263  53.432  1.00  0.00    -0.003 A 
HETATM   14  C21 UNL     1      29.191  -0.134  54.357  1.00  0.00    -0.003 A 
HETATM   15  C22 UNL     1      28.093   0.604  54.327  1.00  0.00    -0.011 A 
ENDROOT
BRANCH   1  16
HETATM   16  C8  UNL     1      26.447   2.793  50.095  1.00  0.00     0.101 C 
BRANCH  16  17
HETATM   17  C7  UNL     1      26.317   4.282  49.936  1.00  0.00     0.152 C 
HETATM   18  N1  UNL     1      25.885   5.616  50.131  1.00  0.00    -0.372 N 
HETATM   19  H14 UNL     1      25.227   5.281  50.896  1.00  0.00     0.161 HD
HETATM   20  O1  UNL     1      27.228   3.943  49.049  1.00  0.00    -0.177 OA
BRANCH  18  21
HETATM   21  C6  UNL     1      26.516   6.594  49.269  1.00  0.00     0.121 C 
BRANCH  21  22
HETATM   22  C5  UNL     1      25.621   7.031  48.176  1.00  0.00     0.020 C 
BRANCH  22  23
HETATM   23  C4  UNL     1      24.196   6.582  48.477  1.00  0.00     0.002 C 
BRANCH  23  24
HETATM   24  C3  UNL     1      23.367   7.810  48.812  1.00  0.00    -0.000 C 
BRANCH  24  25
HETATM   25  C2  UNL     1      23.043   7.908  50.263  1.00  0.00    -0.005 C 
HETATM   26  C1  UNL     1      21.675   7.455  50.655  1.00  0.00     0.005 C 
ENDBRANCH  24  25
ENDBRANCH  23  24
ENDBRANCH  22  23
ENDBRANCH  21  22
ENDBRANCH  18  21
ENDBRANCH  16  17
ENDBRANCH   1  16
BRANCH   3  27
HETATM   27  O2  UNL     1      22.325   2.922  50.449  1.00  0.00    -0.384 OA
HETATM   28  H18 UNL     1      22.245   2.717  49.451  1.00  0.00     0.211 HD
ENDBRANCH   3  27
TORSDOF 8
ENDMDL
MODEL 7
REMARK VINA RESULT:      -6.7      2.571      3.655
REMARK  8 active torsions:
REMARK  status: ('A' for Active; 'I' for Inactive)
REMARK    1  A    between atoms: C2_2  and  C3_3 
REMARK    2  A    between atoms: C3_3  and  C4_4 
REMARK    3  A    between atoms: C4_4  and  C5_5 
REMARK    4  A    between atoms: C5_5  and  C6_6 
REMARK    5  A    between atoms: C6_6  and  N1_7 
REMARK       I    between atoms: N1_7  and  C7_8 
REMARK    6  A    between atoms: C7_8  and  C8_10 
REMARK    7  A    between atoms: C8_10  and  C9_11 
REMARK    8  A    between atoms: C11_13  and  O2_14 
ROOT
HETATM    1  C9  UNL     1      25.112   2.300  50.781  1.00  0.00     0.014 A 
HETATM    2  C10 UNL     1      24.204   2.908  50.097  1.00  0.00     0.046 A 
HETATM    3  C11 UNL     1      23.347   2.169  50.972  1.00  0.00     0.093 A 
HETATM    4  C12 UNL     1      22.600   1.444  51.830  1.00  0.00     0.066 A 
HETATM    5  C13 UNL     1      23.169   0.532  52.867  1.00  0.00     0.168 A 
HETATM    6  O3  UNL     1      22.229   0.025  53.555  1.00  0.00    -0.289 OA
HETATM    7  C14 UNL     1      24.389  -0.066  53.490  1.00  0.00     0.041 A 
HETATM    8  C15 UNL     1      25.687  -0.167  53.559  1.00  0.00     0.020 A 
HETATM    9  C16 UNL     1      26.221   0.740  52.537  1.00  0.00     0.004 A 
HETATM   10  C17 UNL     1      26.046   1.580  51.591  1.00  0.00     0.016 A 
HETATM   11  C18 UNL     1      27.116  -0.032  53.331  1.00  0.00     0.018 A 
HETATM   12  C19 UNL     1      27.908  -1.152  52.832  1.00  0.00    -0.011 A 
HETATM   13  C20 UNL     1      29.047  -1.138  53.479  1.00  0.00    -0.003 A 
HETATM   14  C21 UNL     1      29.084  -0.028  54.435  1.00  0.00    -0.003 A 
HETATM   15  C22 UNL     1      27.950   0.651  54.376  1.00  0.00    -0.011 A 
ENDROOT
BRANCH   1  16
HETATM   16  C8  UNL     1      26.365   2.858  50.130  1.00  0.00     0.101 C 
BRANCH  16  17
HETATM   17  C7  UNL     1      26.182   4.348  50.048  1.00  0.00     0.152 C 
HETATM   18  N1  UNL     1      25.667   5.647  50.270  1.00  0.00    -0.372 N 
HETATM   19  H14 UNL     1      24.939   5.236  50.928  1.00  0.00     0.161 HD
HETATM   20  O1  UNL     1      27.207   4.106  49.258  1.00  0.00    -0.177 OA
BRANCH  18  21
HETATM   21  C6  UNL     1      26.346   6.706  49.551  1.00  0.00     0.121 C 
BRANCH  21  22
HETATM   22  C5  UNL     1      25.968   8.046  50.047  1.00  0.00     0.020 C 
BRANCH  22  23
HETATM   23  C4  UNL     1      27.206   8.933  50.105  1.00  0.00     0.002 C 
BRANCH  23  24
HETATM   24  C3  UNL     1      27.086   9.996  49.027  1.00  0.00    -0.000 C 
BRANCH  24  25
HETATM   25  C2  UNL     1      27.899   9.685  47.818  1.00  0.00    -0.005 C 
HETATM   26  C1  UNL     1      29.159  10.470  47.662  1.00  0.00     0.005 C 
ENDBRANCH  24  25
ENDBRANCH  23  24
ENDBRANCH  22  23
ENDBRANCH  21  22
ENDBRANCH  18  21
ENDBRANCH  16  17
ENDBRANCH   1  16
BRANCH   3  27
HETATM   27  O2  UNL     1      22.231   2.760  50.311  1.00  0.00    -0.384 OA
HETATM   28  H18 UNL     1      21.381   2.194  50.352  1.00  0.00     0.211 HD
ENDBRANCH   3  27
TORSDOF 8
ENDMDL
MODEL 8
REMARK VINA RESULT:      -6.7      2.319      4.564
REMARK  8 active torsions:
REMARK  status: ('A' for Active; 'I' for Inactive)
REMARK    1  A    between atoms: C2_2  and  C3_3 
REMARK    2  A    between atoms: C3_3  and  C4_4 
REMARK    3  A    between atoms: C4_4  and  C5_5 
REMARK    4  A    between atoms: C5_5  and  C6_6 
REMARK    5  A    between atoms: C6_6  and  N1_7 
REMARK       I    between atoms: N1_7  and  C7_8 
REMARK    6  A    between atoms: C7_8  and  C8_10 
REMARK    7  A    between atoms: C8_10  and  C9_11 
REMARK    8  A    between atoms: C11_13  and  O2_14 
ROOT
HETATM    1  C9  UNL     1      25.134   2.000  51.871  1.00  0.00     0.014 A 
HETATM    2  C10 UNL     1      26.112   2.714  51.432  1.00  0.00     0.046 A 
HETATM    3  C11 UNL     1      26.815   2.005  52.457  1.00  0.00     0.093 A 
HETATM    4  C12 UNL     1      27.413   1.301  53.440  1.00  0.00     0.066 A 
HETATM    5  C13 UNL     1      26.709   0.301  54.297  1.00  0.00     0.168 A 
HETATM    6  O3  UNL     1      27.536  -0.236  55.098  1.00  0.00    -0.289 OA
HETATM    7  C14 UNL     1      25.427  -0.387  54.642  1.00  0.00     0.041 A 
HETATM    8  C15 UNL     1      24.156  -0.581  54.425  1.00  0.00     0.020 A 
HETATM    9  C16 UNL     1      23.798   0.292  53.301  1.00  0.00     0.004 A 
HETATM   10  C17 UNL     1      24.110   1.168  52.427  1.00  0.00     0.016 A 
HETATM   11  C18 UNL     1      22.797  -0.515  53.914  1.00  0.00     0.018 A 
HETATM   12  C19 UNL     1      21.708   0.001  54.737  1.00  0.00    -0.011 A 
HETATM   13  C20 UNL     1      20.663  -0.759  54.516  1.00  0.00    -0.003 A 
HETATM   14  C21 UNL     1      20.987  -1.813  53.551  1.00  0.00    -0.003 A 
HETATM   15  C22 UNL     1      22.250  -1.700  53.173  1.00  0.00    -0.011 A 
ENDROOT
BRANCH   1  16
HETATM   16  C8  UNL     1      24.021   2.462  50.948  1.00  0.00     0.101 C 
BRANCH  16  17
HETATM   17  C7  UNL     1      23.879   3.945  51.150  1.00  0.00     0.152 C 
HETATM   18  N1  UNL     1      24.034   5.242  51.696  1.00  0.00    -0.372 N 
HETATM   19  H14 UNL     1      24.672   4.840  52.445  1.00  0.00     0.161 HD
HETATM   20  O1  UNL     1      23.145   3.695  50.087  1.00  0.00    -0.177 OA
BRANCH  18  21
HETATM   21  C6  UNL     1      23.311   6.287  51.001  1.00  0.00     0.121 C 
BRANCH  21  22
HETATM   22  C5  UNL     1      24.013   7.587  51.067  1.00  0.00     0.020 C 
BRANCH  22  23
HETATM   23  C4  UNL     1      25.360   7.473  50.364  1.00  0.00     0.002 C 
BRANCH  23  24
HETATM   24  C3  UNL     1      25.654   8.793  49.673  1.00  0.00    -0.000 C 
BRANCH  24  25
HETATM   25  C2  UNL     1      25.072   8.869  48.303  1.00  0.00    -0.005 C 
HETATM   26  C1  UNL     1      25.190   7.630  47.478  1.00  0.00     0.005 C 
ENDBRANCH  24  25
ENDBRANCH  23  24
ENDBRANCH  22  23
ENDBRANCH  21  22
ENDBRANCH  18  21
ENDBRANCH  16  17
ENDBRANCH   1  16
BRANCH   3  27
HETATM   27  O2  UNL     1      27.991   2.721  52.089  1.00  0.00    -0.384 OA
HETATM   28  H18 UNL     1      28.815   2.470  52.639  1.00  0.00     0.211 HD
ENDBRANCH   3  27
TORSDOF 8
ENDMDL
MODEL 9
REMARK VINA RESULT:      -6.7      2.356      5.500
REMARK  8 active torsions:
REMARK  status: ('A' for Active; 'I' for Inactive)
REMARK    1  A    between atoms: C2_2  and  C3_3 
REMARK    2  A    between atoms: C3_3  and  C4_4 
REMARK    3  A    between atoms: C4_4  and  C5_5 
REMARK    4  A    between atoms: C5_5  and  C6_6 
REMARK    5  A    between atoms: C6_6  and  N1_7 
REMARK       I    between atoms: N1_7  and  C7_8 
REMARK    6  A    between atoms: C7_8  and  C8_10 
REMARK    7  A    between atoms: C8_10  and  C9_11 
REMARK    8  A    between atoms: C11_13  and  O2_14 
ROOT
HETATM    1  C9  UNL     1      24.588   2.750  51.779  1.00  0.00     0.014 A 
HETATM    2  C10 UNL     1      25.416   3.580  51.243  1.00  0.00     0.046 A 
HETATM    3  C11 UNL     1      26.340   2.531  51.550  1.00  0.00     0.093 A 
HETATM    4  C12 UNL     1      27.153   1.503  51.868  1.00  0.00     0.066 A 
HETATM    5  C13 UNL     1      26.692   0.249  52.535  1.00  0.00     0.168 A 
HETATM    6  O3  UNL     1      27.668  -0.554  52.662  1.00  0.00    -0.289 OA
HETATM    7  C14 UNL     1      25.557  -0.520  53.131  1.00  0.00     0.041 A 
HETATM    8  C15 UNL     1      24.290  -0.617  53.427  1.00  0.00     0.020 A 
HETATM    9  C16 UNL     1      23.665   0.621  52.947  1.00  0.00     0.004 A 
HETATM   10  C17 UNL     1      23.746   1.767  52.390  1.00  0.00     0.016 A 
HETATM   11  C18 UNL     1      22.871  -0.361  53.605  1.00  0.00     0.018 A 
HETATM   12  C19 UNL     1      22.296  -0.202  54.937  1.00  0.00    -0.011 A 
HETATM   13  C20 UNL     1      21.140  -0.820  54.935  1.00  0.00    -0.003 A 
HETATM   14  C21 UNL     1      20.878  -1.421  53.624  1.00  0.00    -0.003 A 
HETATM   15  C22 UNL     1      21.889  -1.169  52.807  1.00  0.00    -0.011 A 
ENDROOT
BRANCH   1  16
HETATM   16  C8  UNL     1      23.293   3.531  51.646  1.00  0.00     0.101 C 
BRANCH  16  17
HETATM   17  C7  UNL     1      22.677   3.129  50.334  1.00  0.00     0.152 C 
HETATM   18  N1  UNL     1      22.468   2.463  49.103  1.00  0.00    -0.372 N 
HETATM   19  H14 UNL     1      23.351   1.894  49.271  1.00  0.00     0.161 HD
HETATM   20  O1  UNL     1      21.866   4.055  50.799  1.00  0.00    -0.177 OA
BRANCH  18  21
HETATM   21  C6  UNL     1      21.290   2.884  48.374  1.00  0.00     0.121 C 
BRANCH  21  22
HETATM   22  C5  UNL     1      20.139   1.988  48.612  1.00  0.00     0.020 C 
BRANCH  22  23
HETATM   23  C4  UNL     1      20.570   0.836  49.512  1.00  0.00     0.002 C 
BRANCH  23  24
HETATM   24  C3  UNL     1      19.765   0.903  50.798  1.00  0.00    -0.000 C 
BRANCH  24  25
HETATM   25  C2  UNL     1      18.458   0.196  50.697  1.00  0.00    -0.005 C 
HETATM   26  C1  UNL     1      17.794  -0.132  51.993  1.00  0.00     0.005 C 
ENDBRANCH  24  25
ENDBRANCH  23  24
ENDBRANCH  22  23
ENDBRANCH  21  22
ENDBRANCH  18  21
ENDBRANCH  16  17
ENDBRANCH   1  16
BRANCH   3  27
HETATM   27  O2  UNL     1      27.375   3.335  50.990  1.00  0.00    -0.384 OA
HETATM   28  H18 UNL     1      27.465   3.243  49.976  1.00  0.00     0.211 HD
ENDBRANCH   3  27
TORSDOF 8
ENDMDL
