MODEL 1
REMARK VINA RESULT:     -10.0      0.000      0.000
REMARK  2 active torsions:
REMARK  status: ('A' for Active; 'I' for Inactive)
REMARK    1  A    between atoms: C11_14  and  N1_15 
REMARK    2  A    between atoms: N1_15  and  C12_16 
ROOT
HETATM    1  O1  UNL     1      20.643   2.276  51.303  1.00  0.00    -0.177 OA
HETATM    2  C1  UNL     1      20.257   3.326  50.789  1.00  0.00     0.155 A 
HETATM    3  C2  UNL     1      19.948   3.383  52.332  1.00  0.00     0.095 A 
HETATM    4  O2  UNL     1      20.456   2.203  52.722  1.00  0.00     0.000 OA
HETATM    5  C3  UNL     1      20.927   1.103  53.097  1.00  0.00    -0.015 A 
HETATM    6  C4  UNL     1      20.065   0.209  53.640  1.00  0.00     0.016 A 
HETATM    7  C5  UNL     1      20.546  -1.005  54.049  1.00  0.00     0.043 A 
HETATM    8  C6  UNL     1      21.832  -1.384  53.950  1.00  0.00     0.117 A 
HETATM    9  F1  UNL     1      22.299  -2.580  54.353  1.00  0.00    -0.206 F 
HETATM   10  C7  UNL     1      22.675  -0.424  53.386  1.00  0.00     0.054 A 
HETATM   11  C8  UNL     1      22.305   0.864  52.925  1.00  0.00    -0.021 A 
HETATM   12  C9  UNL     1      23.432   1.616  52.379  1.00  0.00     0.026 C 
HETATM   13  C10 UNL     1      23.849   2.324  51.333  1.00  0.00     0.017 A 
HETATM   14  C11 UNL     1      25.241   2.802  51.518  1.00  0.00     0.138 A 
HETATM   15  N2  UNL     1      25.903   3.414  50.604  1.00  0.00    -0.224 NA
HETATM   16  C18 UNL     1      25.384   3.722  49.335  1.00  0.00     0.230 A 
HETATM   17  N3  UNL     1      24.199   3.380  49.162  1.00  0.00    -0.269 NA
HETATM   18  C19 UNL     1      23.311   2.754  50.043  1.00  0.00     0.170 A 
HETATM   19  C20 UNL     1      22.464   1.794  49.323  1.00  0.00     0.022 C 
HETATM   20  C21 UNL     1      21.172   2.016  49.016  1.00  0.00     0.088 C 
HETATM   21  N4  UNL     1      20.535   3.276  49.399  1.00  0.00    -0.348 N 
HETATM   22  H16 UNL     1      20.087   4.196  49.582  1.00  0.00     0.167 HD
ENDROOT
BRANCH  14  23
HETATM   23  N1  UNL     1      26.043   2.691  52.702  1.00  0.00    -0.340 N 
HETATM   24  H7  UNL     1      25.834   3.457  53.396  1.00  0.00     0.167 HD
BRANCH  23  25
HETATM   25  C12 UNL     1      27.031   1.729  53.040  1.00  0.00     0.035 A 
HETATM   26  C13 UNL     1      28.188   2.136  53.656  1.00  0.00     0.029 A 
HETATM   27  C14 UNL     1      29.174   1.244  54.006  1.00  0.00     0.004 A 
HETATM   28  C15 UNL     1      29.064  -0.110  53.762  1.00  0.00     0.019 A 
HETATM   29  C16 UNL     1      27.902  -0.493  53.147  1.00  0.00     0.013 A 
HETATM   30 BR1  UNL     1      27.677  -2.362  52.774  1.00  0.00    -0.051 Br
HETATM   31  C17 UNL     1      26.892   0.385  52.784  1.00  0.00     0.048 A 
ENDBRANCH  23  25
ENDBRANCH  14  23
TORSDOF 2
ENDMDL
MODEL 2
REMARK VINA RESULT:      -9.4      2.681      4.645
REMARK  2 active torsions:
REMARK  status: ('A' for Active; 'I' for Inactive)
REMARK    1  A    between atoms: C11_14  and  N1_15 
REMARK    2  A    between atoms: N1_15  and  C12_16 
ROOT
HETATM    1  O1  UNL     1      20.814   2.267  50.177  1.00  0.00    -0.177 OA
HETATM    2  C1  UNL     1      19.784   1.601  50.068  1.00  0.00     0.155 A 
HETATM    3  C2  UNL     1      20.682   1.342  48.800  1.00  0.00     0.095 A 
HETATM    4  O2  UNL     1      21.748   2.101  49.102  1.00  0.00     0.000 OA
HETATM    5  C3  UNL     1      22.747   2.806  49.374  1.00  0.00    -0.015 A 
HETATM    6  C4  UNL     1      23.033   3.832  48.534  1.00  0.00     0.016 A 
HETATM    7  C5  UNL     1      24.111   4.628  48.810  1.00  0.00     0.043 A 
HETATM    8  C6  UNL     1      24.922   4.467  49.869  1.00  0.00     0.117 A 
HETATM    9  F1  UNL     1      25.981   5.255  50.136  1.00  0.00    -0.206 F 
HETATM   10  C7  UNL     1      24.584   3.395  50.699  1.00  0.00     0.054 A 
HETATM   11  C8  UNL     1      23.499   2.500  50.526  1.00  0.00    -0.021 A 
HETATM   12  C9  UNL     1      23.421   1.494  51.583  1.00  0.00     0.026 C 
HETATM   13  C10 UNL     1      22.609   0.922  52.467  1.00  0.00     0.017 A 
HETATM   14  C11 UNL     1      23.315  -0.104  53.272  1.00  0.00     0.138 A 
HETATM   15  N2  UNL     1      22.775  -0.719  54.262  1.00  0.00    -0.224 NA
HETATM   16  C18 UNL     1      21.451  -0.508  54.686  1.00  0.00     0.230 A 
HETATM   17  N3  UNL     1      20.812   0.312  54.001  1.00  0.00    -0.269 NA
HETATM   18  C19 UNL     1      21.208   1.037  52.872  1.00  0.00     0.170 A 
HETATM   19  C20 UNL     1      20.633   2.388  52.901  1.00  0.00     0.022 C 
HETATM   20  C21 UNL     1      19.597   2.779  52.135  1.00  0.00     0.088 C 
HETATM   21  N4  UNL     1      18.974   1.834  51.208  1.00  0.00    -0.348 N 
HETATM   22  H16 UNL     1      18.460   1.158  50.609  1.00  0.00     0.167 HD
ENDROOT
BRANCH  14  23
HETATM   23  N1  UNL     1      24.652  -0.586  53.077  1.00  0.00    -0.340 N 
HETATM   24  H7  UNL     1      24.668  -1.563  52.680  1.00  0.00     0.167 HD
BRANCH  23  25
HETATM   25  C12 UNL     1      25.893   0.054  53.338  1.00  0.00     0.035 A 
HETATM   26  C13 UNL     1      25.916   1.400  53.604  1.00  0.00     0.029 A 
HETATM   27  C14 UNL     1      27.090   2.066  53.864  1.00  0.00     0.004 A 
HETATM   28  C15 UNL     1      28.313   1.427  53.876  1.00  0.00     0.019 A 
HETATM   29  C16 UNL     1      28.266   0.085  53.607  1.00  0.00     0.013 A 
HETATM   30 BR1  UNL     1      29.928  -0.873  53.605  1.00  0.00    -0.051 Br
HETATM   31  C17 UNL     1      27.096  -0.610  53.342  1.00  0.00     0.048 A 
ENDBRANCH  23  25
ENDBRANCH  14  23
TORSDOF 2
ENDMDL
MODEL 3
REMARK VINA RESULT:      -9.3      3.398      4.985
REMARK  2 active torsions:
REMARK  status: ('A' for Active; 'I' for Inactive)
REMARK    1  A    between atoms: C11_14  and  N1_15 
REMARK    2  A    between atoms: N1_15  and  C12_16 
ROOT
HETATM    1  O1  UNL     1      21.717   1.381  51.239  1.00  0.00    -0.177 OA
HETATM    2  C1  UNL     1      20.537   1.724  51.169  1.00  0.00     0.155 A 
HETATM    3  C2  UNL     1      21.049   1.991  52.635  1.00  0.00     0.095 A 
HETATM    4  O2  UNL     1      22.328   1.602  52.517  1.00  0.00     0.000 OA
HETATM    5  C3  UNL     1      23.525   1.242  52.418  1.00  0.00    -0.015 A 
HETATM    6  C4  UNL     1      23.927   0.200  53.187  1.00  0.00     0.016 A 
HETATM    7  C5  UNL     1      25.225  -0.225  53.093  1.00  0.00     0.043 A 
HETATM    8  C6  UNL     1      26.146   0.322  52.282  1.00  0.00     0.117 A 
HETATM    9  F1  UNL     1      27.420  -0.101  52.194  1.00  0.00    -0.206 F 
HETATM   10  C7  UNL     1      25.678   1.392  51.515  1.00  0.00     0.054 A 
HETATM   11  C8  UNL     1      24.365   1.927  51.518  1.00  0.00    -0.021 A 
HETATM   12  C9  UNL     1      24.206   3.041  50.586  1.00  0.00     0.026 C 
HETATM   13  C10 UNL     1      23.454   3.520  49.600  1.00  0.00     0.017 A 
HETATM   14  C11 UNL     1      23.971   4.818  49.102  1.00  0.00     0.138 A 
HETATM   15  N2  UNL     1      23.481   5.428  48.083  1.00  0.00    -0.224 NA
HETATM   16  C18 UNL     1      22.391   4.951  47.335  1.00  0.00     0.230 A 
HETATM   17  N3  UNL     1      21.899   3.888  47.756  1.00  0.00    -0.269 NA
HETATM   18  C19 UNL     1      22.259   3.111  48.863  1.00  0.00     0.170 A 
HETATM   19  C20 UNL     1      22.126   1.682  48.554  1.00  0.00     0.022 C 
HETATM   20  C21 UNL     1      21.120   0.907  49.004  1.00  0.00     0.088 C 
HETATM   21  N4  UNL     1      20.075   1.483  49.850  1.00  0.00    -0.348 N 
HETATM   22  H16 UNL     1      19.277   1.888  50.378  1.00  0.00     0.167 HD
ENDROOT
BRANCH  14  23
HETATM   23  N1  UNL     1      25.039   5.594  49.660  1.00  0.00    -0.340 N 
HETATM   24  H7  UNL     1      24.795   5.981  50.611  1.00  0.00     0.167 HD
BRANCH  23  25
HETATM   25  C12 UNL     1      26.320   5.892  49.123  1.00  0.00     0.035 A 
HETATM   26  C13 UNL     1      27.209   4.873  48.889  1.00  0.00     0.029 A 
HETATM   27  C14 UNL     1      28.459   5.109  48.368  1.00  0.00     0.004 A 
HETATM   28  C15 UNL     1      28.898   6.377  48.049  1.00  0.00     0.019 A 
HETATM   29  C16 UNL     1      27.995   7.379  48.290  1.00  0.00     0.013 A 
HETATM   30 BR1  UNL     1      28.533   9.172  47.871  1.00  0.00    -0.051 Br
HETATM   31  C17 UNL     1      26.729   7.169  48.814  1.00  0.00     0.048 A 
ENDBRANCH  23  25
ENDBRANCH  14  23
TORSDOF 2
ENDMDL
MODEL 4
REMARK VINA RESULT:      -9.0      2.798      6.010
REMARK  2 active torsions:
REMARK  status: ('A' for Active; 'I' for Inactive)
REMARK    1  A    between atoms: C11_14  and  N1_15 
REMARK    2  A    between atoms: N1_15  and  C12_16 
ROOT
HETATM    1  O1  UNL     1      25.919   4.369  50.429  1.00  0.00    -0.177 OA
HETATM    2  C1  UNL     1      26.008   5.047  49.406  1.00  0.00     0.155 A 
HETATM    3  C2  UNL     1      26.795   3.702  49.182  1.00  0.00     0.095 A 
HETATM    4  O2  UNL     1      26.565   3.091  50.355  1.00  0.00     0.000 OA
HETATM    5  C3  UNL     1      26.356   2.512  51.447  1.00  0.00    -0.015 A 
HETATM    6  C4  UNL     1      27.434   2.230  52.219  1.00  0.00     0.016 A 
HETATM    7  C5  UNL     1      27.238   1.608  53.422  1.00  0.00     0.043 A 
HETATM    8  C6  UNL     1      26.036   1.250  53.904  1.00  0.00     0.117 A 
HETATM    9  F1  UNL     1      25.850   0.639  55.089  1.00  0.00    -0.206 F 
HETATM   10  C7  UNL     1      24.961   1.561  53.067  1.00  0.00     0.054 A 
HETATM   11  C8  UNL     1      25.029   2.200  51.803  1.00  0.00    -0.021 A 
HETATM   12  C9  UNL     1      23.715   2.387  51.193  1.00  0.00     0.026 C 
HETATM   13  C10 UNL     1      22.911   3.277  50.618  1.00  0.00     0.017 A 
HETATM   14  C11 UNL     1      21.614   2.670  50.231  1.00  0.00     0.138 A 
HETATM   15  N2  UNL     1      20.632   3.349  49.758  1.00  0.00    -0.224 NA
HETATM   16  C18 UNL     1      20.675   4.735  49.532  1.00  0.00     0.230 A 
HETATM   17  N3  UNL     1      21.767   5.270  49.799  1.00  0.00    -0.269 NA
HETATM   18  C19 UNL     1      22.953   4.697  50.273  1.00  0.00     0.170 A 
HETATM   19  C20 UNL     1      23.612   5.595  51.230  1.00  0.00     0.022 C 
HETATM   20  C21 UNL     1      24.704   6.328  50.941  1.00  0.00     0.088 C 
HETATM   21  N4  UNL     1      25.300   6.260  49.606  1.00  0.00    -0.348 N 
HETATM   22  H16 UNL     1      25.687   6.295  48.643  1.00  0.00     0.167 HD
ENDROOT
BRANCH  14  23
HETATM   23  N1  UNL     1      21.257   1.283  50.291  1.00  0.00    -0.340 N 
HETATM   24  H7  UNL     1      21.473   0.778  49.390  1.00  0.00     0.167 HD
BRANCH  23  25
HETATM   25  C12 UNL     1      20.679   0.540  51.355  1.00  0.00     0.035 A 
HETATM   26  C13 UNL     1      19.322   0.341  51.381  1.00  0.00     0.029 A 
HETATM   27  C14 UNL     1      18.714  -0.372  52.388  1.00  0.00     0.004 A 
HETATM   28  C15 UNL     1      19.427  -0.931  53.429  1.00  0.00     0.019 A 
HETATM   29  C16 UNL     1      20.779  -0.719  53.382  1.00  0.00     0.013 A 
HETATM   30 BR1  UNL     1      21.838  -1.466  54.797  1.00  0.00    -0.051 Br
HETATM   31  C17 UNL     1      21.416  -0.006  52.380  1.00  0.00     0.048 A 
ENDBRANCH  23  25
ENDBRANCH  14  23
TORSDOF 2
ENDMDL
MODEL 5
REMARK VINA RESULT:      -8.9      3.267      6.444
REMARK  2 active torsions:
REMARK  status: ('A' for Active; 'I' for Inactive)
REMARK    1  A    between atoms: C11_14  and  N1_15 
REMARK    2  A    between atoms: N1_15  and  C12_16 
ROOT
HETATM    1  O1  UNL     1      25.151   3.676  51.131  1.00  0.00    -0.177 OA
HETATM    2  C1  UNL     1      25.267   4.558  50.280  1.00  0.00     0.155 A 
HETATM    3  C2  UNL     1      25.902   3.232  49.714  1.00  0.00     0.095 A 
HETATM    4  O2  UNL     1      25.658   2.395  50.735  1.00  0.00     0.000 OA
HETATM    5  C3  UNL     1      25.435   1.605  51.682  1.00  0.00    -0.015 A 
HETATM    6  C4  UNL     1      26.510   1.058  52.303  1.00  0.00     0.016 A 
HETATM    7  C5  UNL     1      26.301   0.200  53.348  1.00  0.00     0.043 A 
HETATM    8  C6  UNL     1      25.089  -0.147  53.814  1.00  0.00     0.117 A 
HETATM    9  F1  UNL     1      24.890  -0.991  54.844  1.00  0.00    -0.206 F 
HETATM   10  C7  UNL     1      24.019   0.443  53.137  1.00  0.00     0.054 A 
HETATM   11  C8  UNL     1      24.099   1.342  52.045  1.00  0.00    -0.021 A 
HETATM   12  C9  UNL     1      22.787   1.782  51.575  1.00  0.00     0.026 C 
HETATM   13  C10 UNL     1      22.057   2.849  51.265  1.00  0.00     0.017 A 
HETATM   14  C11 UNL     1      20.689   2.467  50.837  1.00  0.00     0.138 A 
HETATM   15  N2  UNL     1      19.764   3.322  50.589  1.00  0.00    -0.224 NA
HETATM   16  C18 UNL     1      19.940   4.714  50.674  1.00  0.00     0.230 A 
HETATM   17  N3  UNL     1      21.092   5.072  50.983  1.00  0.00    -0.269 NA
HETATM   18  C19 UNL     1      22.231   4.300  51.240  1.00  0.00     0.170 A 
HETATM   19  C20 UNL     1      23.018   4.894  52.329  1.00  0.00     0.022 C 
HETATM   20  C21 UNL     1      24.168   5.570  52.141  1.00  0.00     0.088 C 
HETATM   21  N4  UNL     1      24.697   5.753  50.789  1.00  0.00    -0.348 N 
HETATM   22  H16 UNL     1      25.045   5.970  49.835  1.00  0.00     0.167 HD
ENDROOT
BRANCH  14  23
HETATM   23  N1  UNL     1      20.193   1.141  50.610  1.00  0.00    -0.340 N 
HETATM   24  H7  UNL     1      20.513   0.750  49.684  1.00  0.00     0.167 HD
BRANCH  23  25
HETATM   25  C12 UNL     1      19.369   0.328  51.433  1.00  0.00     0.035 A 
HETATM   26  C13 UNL     1      19.858  -0.143  52.625  1.00  0.00     0.029 A 
HETATM   27  C14 UNL     1      19.100  -0.931  53.457  1.00  0.00     0.004 A 
HETATM   28  C15 UNL     1      17.805  -1.295  53.151  1.00  0.00     0.019 A 
HETATM   29  C16 UNL     1      17.337  -0.814  51.957  1.00  0.00     0.013 A 
HETATM   30 BR1  UNL     1      15.543  -1.279  51.460  1.00  0.00    -0.051 Br
HETATM   31  C17 UNL     1      18.080  -0.018  51.099  1.00  0.00     0.048 A 
ENDBRANCH  23  25
ENDBRANCH  14  23
TORSDOF 2
ENDMDL
MODEL 6
REMARK VINA RESULT:      -8.8      3.132      6.591
REMARK  2 active torsions:
REMARK  status: ('A' for Active; 'I' for Inactive)
REMARK    1  A    between atoms: C11_14  and  N1_15 
REMARK    2  A    between atoms: N1_15  and  C12_16 
ROOT
HETATM    1  O1  UNL     1      24.374   3.099  51.834  1.00  0.00    -0.177 OA
HETATM    2  C1  UNL     1      24.870   3.968  51.117  1.00  0.00     0.155 A 
HETATM    3  C2  UNL     1      25.442   2.569  50.674  1.00  0.00     0.095 A 
HETATM    4  O2  UNL     1      24.781   1.761  51.518  1.00  0.00     0.000 OA
HETATM    5  C3  UNL     1      24.169   0.998  52.302  1.00  0.00    -0.015 A 
HETATM    6  C4  UNL     1      24.913   0.273  53.173  1.00  0.00     0.016 A 
HETATM    7  C5  UNL     1      24.274  -0.562  54.050  1.00  0.00     0.043 A 
HETATM    8  C6  UNL     1      22.941  -0.718  54.114  1.00  0.00     0.117 A 
HETATM    9  F1  UNL     1      22.318  -1.539  54.979  1.00  0.00    -0.206 F 
HETATM   10  C7  UNL     1      22.224   0.050  53.193  1.00  0.00     0.054 A 
HETATM   11  C8  UNL     1      22.763   0.947  52.236  1.00  0.00    -0.021 A 
HETATM   12  C9  UNL     1      21.733   1.602  51.433  1.00  0.00     0.026 C 
HETATM   13  C10 UNL     1      21.297   2.779  50.994  1.00  0.00     0.017 A 
HETATM   14  C11 UNL     1      20.081   2.632  50.156  1.00  0.00     0.138 A 
HETATM   15  N2  UNL     1      19.410   3.630  49.706  1.00  0.00    -0.224 NA
HETATM   16  C18 UNL     1      19.757   4.973  49.933  1.00  0.00     0.230 A 
HETATM   17  N3  UNL     1      20.802   5.134  50.591  1.00  0.00    -0.269 NA
HETATM   18  C19 UNL     1      21.682   4.184  51.120  1.00  0.00     0.170 A 
HETATM   19  C20 UNL     1      22.183   4.621  52.429  1.00  0.00     0.022 C 
HETATM   20  C21 UNL     1      23.423   5.106  52.635  1.00  0.00     0.088 C 
HETATM   21  N4  UNL     1      24.356   5.228  51.515  1.00  0.00    -0.348 N 
HETATM   22  H16 UNL     1      25.004   5.406  50.722  1.00  0.00     0.167 HD
ENDROOT
BRANCH  14  23
HETATM   23  N1  UNL     1      19.486   1.408  49.704  1.00  0.00    -0.340 N 
HETATM   24  H7  UNL     1      19.924   1.060  48.810  1.00  0.00     0.167 HD
BRANCH  23  25
HETATM   25  C12 UNL     1      18.437   0.643  50.280  1.00  0.00     0.035 A 
HETATM   26  C13 UNL     1      17.189   0.671  49.709  1.00  0.00     0.029 A 
HETATM   27  C14 UNL     1      16.141  -0.053  50.226  1.00  0.00     0.004 A 
HETATM   28  C15 UNL     1      16.275  -0.849  51.345  1.00  0.00     0.019 A 
HETATM   29  C16 UNL     1      17.529  -0.861  51.897  1.00  0.00     0.013 A 
HETATM   30 BR1  UNL     1      17.794  -1.946  53.458  1.00  0.00    -0.051 Br
HETATM   31  C17 UNL     1      18.602  -0.142  51.396  1.00  0.00     0.048 A 
ENDBRANCH  23  25
ENDBRANCH  14  23
TORSDOF 2
ENDMDL
MODEL 7
REMARK VINA RESULT:      -8.4      3.280      6.438
REMARK  2 active torsions:
REMARK  status: ('A' for Active; 'I' for Inactive)
REMARK    1  A    between atoms: C11_14  and  N1_15 
REMARK    2  A    between atoms: N1_15  and  C12_16 
ROOT
HETATM    1  O1  UNL     1      24.747   0.567  53.395  1.00  0.00    -0.177 OA
HETATM    2  C1  UNL     1      25.968   0.654  53.269  1.00  0.00     0.155 A 
HETATM    3  C2  UNL     1      25.536  -0.824  52.935  1.00  0.00     0.095 A 
HETATM    4  O2  UNL     1      24.206  -0.724  53.086  1.00  0.00     0.000 OA
HETATM    5  C3  UNL     1      22.963  -0.642  53.223  1.00  0.00    -0.015 A 
HETATM    6  C4  UNL     1      22.391  -1.407  54.186  1.00  0.00     0.016 A 
HETATM    7  C5  UNL     1      21.037  -1.331  54.370  1.00  0.00     0.043 A 
HETATM    8  C6  UNL     1      20.217  -0.543  53.654  1.00  0.00     0.117 A 
HETATM    9  F1  UNL     1      18.886  -0.473  53.840  1.00  0.00    -0.206 F 
HETATM   10  C7  UNL     1      20.858   0.220  52.675  1.00  0.00     0.054 A 
HETATM   11  C8  UNL     1      22.246   0.234  52.385  1.00  0.00    -0.021 A 
HETATM   12  C9  UNL     1      22.589   1.156  51.305  1.00  0.00     0.026 C 
HETATM   13  C10 UNL     1      23.400   2.151  50.955  1.00  0.00     0.017 A 
HETATM   14  C11 UNL     1      23.117   2.625  49.578  1.00  0.00     0.138 A 
HETATM   15  N2  UNL     1      23.693   3.645  49.052  1.00  0.00    -0.224 NA
HETATM   16  C18 UNL     1      24.668   4.418  49.706  1.00  0.00     0.230 A 
HETATM   17  N3  UNL     1      24.966   4.018  50.847  1.00  0.00    -0.269 NA
HETATM   18  C19 UNL     1      24.490   2.913  51.562  1.00  0.00     0.170 A 
HETATM   19  C20 UNL     1      24.358   3.241  52.987  1.00  0.00     0.022 C 
HETATM   20  C21 UNL     1      25.214   2.817  53.937  1.00  0.00     0.088 C 
HETATM   21  N4  UNL     1      26.359   1.983  53.570  1.00  0.00    -0.348 N 
HETATM   22  H16 UNL     1      27.225   1.465  53.323  1.00  0.00     0.167 HD
ENDROOT
BRANCH  14  23
HETATM   23  N1  UNL     1      22.215   2.039  48.630  1.00  0.00    -0.340 N 
HETATM   24  H7  UNL     1      22.621   1.180  48.173  1.00  0.00     0.167 HD
BRANCH  23  25
HETATM   25  C12 UNL     1      20.909   2.448  48.249  1.00  0.00     0.035 A 
HETATM   26  C13 UNL     1      19.849   2.183  49.079  1.00  0.00     0.029 A 
HETATM   27  C14 UNL     1      18.566   2.559  48.757  1.00  0.00     0.004 A 
HETATM   28  C15 UNL     1      18.265   3.226  47.587  1.00  0.00     0.019 A 
HETATM   29  C16 UNL     1      19.338   3.480  46.774  1.00  0.00     0.013 A 
HETATM   30 BR1  UNL     1      18.999   4.404  45.127  1.00  0.00    -0.051 Br
HETATM   31  C17 UNL     1      20.640   3.112  47.075  1.00  0.00     0.048 A 
ENDBRANCH  23  25
ENDBRANCH  14  23
TORSDOF 2
ENDMDL
MODEL 8
REMARK VINA RESULT:      -8.4      3.788      7.216
REMARK  2 active torsions:
REMARK  status: ('A' for Active; 'I' for Inactive)
REMARK    1  A    between atoms: C11_14  and  N1_15 
REMARK    2  A    between atoms: N1_15  and  C12_16 
ROOT
HETATM    1  O1  UNL     1      23.997   2.766  52.281  1.00  0.00    -0.177 OA
HETATM    2  C1  UNL     1      24.792   3.003  53.191  1.00  0.00     0.155 A 
HETATM    3  C2  UNL     1      23.792   4.215  53.073  1.00  0.00     0.095 A 
HETATM    4  O2  UNL     1      22.999   3.776  52.083  1.00  0.00     0.000 OA
HETATM    5  C3  UNL     1      22.252   3.376  51.159  1.00  0.00    -0.015 A 
HETATM    6  C4  UNL     1      22.222   4.111  50.020  1.00  0.00     0.016 A 
HETATM    7  C5  UNL     1      21.426   3.695  48.988  1.00  0.00     0.043 A 
HETATM    8  C6  UNL     1      20.658   2.592  49.019  1.00  0.00     0.117 A 
HETATM    9  F1  UNL     1      19.877   2.187  48.000  1.00  0.00    -0.206 F 
HETATM   10  C7  UNL     1      20.726   1.875  50.216  1.00  0.00     0.054 A 
HETATM   11  C8  UNL     1      21.506   2.197  51.355  1.00  0.00    -0.021 A 
HETATM   12  C9  UNL     1      21.354   1.228  52.438  1.00  0.00     0.026 C 
HETATM   13  C10 UNL     1      22.019   0.454  53.291  1.00  0.00     0.017 A 
HETATM   14  C11 UNL     1      21.096  -0.322  54.155  1.00  0.00     0.138 A 
HETATM   15  N2  UNL     1      21.493  -1.218  54.984  1.00  0.00    -0.224 NA
HETATM   16  C18 UNL     1      22.843  -1.555  55.186  1.00  0.00     0.230 A 
HETATM   17  N3  UNL     1      23.650  -0.888  54.512  1.00  0.00    -0.269 NA
HETATM   18  C19 UNL     1      23.414   0.150  53.603  1.00  0.00     0.170 A 
HETATM   19  C20 UNL     1      24.345   0.062  52.471  1.00  0.00     0.022 C 
HETATM   20  C21 UNL     1      25.408   0.873  52.309  1.00  0.00     0.088 C 
HETATM   21  N4  UNL     1      25.693   1.913  53.298  1.00  0.00    -0.348 N 
HETATM   22  H16 UNL     1      25.965   2.599  54.029  1.00  0.00     0.167 HD
ENDROOT
BRANCH  14  23
HETATM   23  N1  UNL     1      19.670  -0.193  54.231  1.00  0.00    -0.340 N 
HETATM   24  H7  UNL     1      19.374   0.545  54.923  1.00  0.00     0.167 HD
BRANCH  23  25
HETATM   25  C12 UNL     1      18.658  -0.898  53.527  1.00  0.00     0.035 A 
HETATM   26  C13 UNL     1      18.060  -0.314  52.439  1.00  0.00     0.029 A 
HETATM   27  C14 UNL     1      17.077  -0.956  51.723  1.00  0.00     0.004 A 
HETATM   28  C15 UNL     1      16.633  -2.221  52.049  1.00  0.00     0.019 A 
HETATM   29  C16 UNL     1      17.243  -2.784  53.138  1.00  0.00     0.013 A 
HETATM   30 BR1  UNL     1      16.678  -4.543  53.655  1.00  0.00    -0.051 Br
HETATM   31  C17 UNL     1      18.236  -2.160  53.877  1.00  0.00     0.048 A 
ENDBRANCH  23  25
ENDBRANCH  14  23
TORSDOF 2
ENDMDL
MODEL 9
REMARK VINA RESULT:      -8.3      3.914      6.622
REMARK  2 active torsions:
REMARK  status: ('A' for Active; 'I' for Inactive)
REMARK    1  A    between atoms: C11_14  and  N1_15 
REMARK    2  A    between atoms: N1_15  and  C12_16 
ROOT
HETATM    1  O1  UNL     1      24.510   6.186  49.046  1.00  0.00    -0.177 OA
HETATM    2  C1  UNL     1      25.028   6.814  49.968  1.00  0.00     0.155 A 
HETATM    3  C2  UNL     1      23.520   7.253  49.852  1.00  0.00     0.095 A 
HETATM    4  O2  UNL     1      23.117   6.460  48.846  1.00  0.00     0.000 OA
HETATM    5  C3  UNL     1      22.730   5.725  47.907  1.00  0.00    -0.015 A 
HETATM    6  C4  UNL     1      22.296   6.335  46.777  1.00  0.00     0.016 A 
HETATM    7  C5  UNL     1      21.877   5.559  45.729  1.00  0.00     0.043 A 
HETATM    8  C6  UNL     1      21.866   4.216  45.737  1.00  0.00     0.117 A 
HETATM    9  F1  UNL     1      21.454   3.459  44.703  1.00  0.00    -0.206 F 
HETATM   10  C7  UNL     1      22.321   3.641  46.927  1.00  0.00     0.054 A 
HETATM   11  C8  UNL     1      22.778   4.328  48.079  1.00  0.00    -0.021 A 
HETATM   12  C9  UNL     1      23.195   3.423  49.148  1.00  0.00     0.026 C 
HETATM   13  C10 UNL     1      24.176   3.144  50.001  1.00  0.00     0.017 A 
HETATM   14  C11 UNL     1      23.848   1.968  50.844  1.00  0.00     0.138 A 
HETATM   15  N2  UNL     1      24.678   1.438  51.668  1.00  0.00    -0.224 NA
HETATM   16  C18 UNL     1      25.982   1.918  51.884  1.00  0.00     0.230 A 
HETATM   17  N3  UNL     1      26.275   2.935  51.229  1.00  0.00    -0.269 NA
HETATM   18  C19 UNL     1      25.499   3.675  50.329  1.00  0.00     0.170 A 
HETATM   19  C20 UNL     1      26.322   4.147  49.208  1.00  0.00     0.022 C 
HETATM   20  C21 UNL     1      26.743   5.419  49.070  1.00  0.00     0.088 C 
HETATM   21  N4  UNL     1      26.387   6.421  50.074  1.00  0.00    -0.348 N 
HETATM   22  H16 UNL     1      26.221   7.128  50.818  1.00  0.00     0.167 HD
ENDROOT
BRANCH  14  23
HETATM   23  N1  UNL     1      22.598   1.269  50.902  1.00  0.00    -0.340 N 
HETATM   24  H7  UNL     1      22.107   1.254  49.968  1.00  0.00     0.167 HD
BRANCH  23  25
HETATM   25  C12 UNL     1      21.969   0.626  52.001  1.00  0.00     0.035 A 
HETATM   26  C13 UNL     1      22.688   0.386  53.145  1.00  0.00     0.029 A 
HETATM   27  C14 UNL     1      22.125  -0.232  54.237  1.00  0.00     0.004 A 
HETATM   28  C15 UNL     1      20.809  -0.645  54.253  1.00  0.00     0.019 A 
HETATM   29  C16 UNL     1      20.111  -0.395  53.102  1.00  0.00     0.013 A 
HETATM   30 BR1  UNL     1      18.272  -0.943  53.048  1.00  0.00    -0.051 Br
HETATM   31  C17 UNL     1      20.653   0.225  51.987  1.00  0.00     0.048 A 
ENDBRANCH  23  25
ENDBRANCH  14  23
TORSDOF 2
ENDMDL
