MODEL 1
REMARK VINA RESULT:      -9.0      0.000      0.000
REMARK  4 active torsions:
REMARK  status: ('A' for Active; 'I' for Inactive)
REMARK    1  A    between atoms: C2_2  and  O1_3 
REMARK    2  A    between atoms: O1_3  and  C3_4 
REMARK    3  A    between atoms: C9_12  and  N3_13 
REMARK    4  A    between atoms: N3_13  and  C10_14 
ROOT
HETATM    1  C3  UNL     1      26.630   0.246  53.064  1.00  0.00     0.121 C 
HETATM    2  C4  UNL     1      26.803   1.238  52.215  1.00  0.00     0.212 C 
HETATM    3  C5  UNL     1      25.841   2.142  51.571  1.00  0.00     0.056 A 
HETATM    4  N1  UNL     1      26.875   2.762  50.959  1.00  0.00    -0.262 NA
HETATM    5  C6  UNL     1      26.816   3.820  50.135  1.00  0.00     0.142 A 
HETATM    6  C7  UNL     1      25.624   4.376  49.836  1.00  0.00     0.089 A 
HETATM    7  C8  UNL     1      25.352   5.501  48.985  1.00  0.00     0.103 C 
HETATM    8  N2  UNL     1      25.130   6.394  48.294  1.00  0.00    -0.191 NA
HETATM    9  C9  UNL     1      24.505   3.821  50.402  1.00  0.00     0.067 A 
HETATM   10  C16 UNL     1      24.626   2.760  51.224  1.00  0.00     0.017 A 
HETATM   11  C17 UNL     1      23.391   2.220  51.812  1.00  0.00     0.013 C 
HETATM   12  C18 UNL     1      22.348   1.971  52.575  1.00  0.00     0.004 C 
HETATM   13  C19 UNL     1      21.280   0.919  52.325  1.00  0.00     0.299 C 
HETATM   14  N4  UNL     1      21.284  -0.051  53.459  1.00  0.00     0.087 N 
HETATM   15  C20 UNL     1      20.742   0.635  54.642  1.00  0.00     0.310 C 
HETATM   16  C21 UNL     1      22.662  -0.305  53.594  1.00  0.00     0.281 C 
HETATM   17  C22 UNL     1      23.285  -1.263  54.530  1.00  0.00     0.133 C 
HETATM   18  C23 UNL     1      24.772  -1.013  54.237  1.00  0.00     0.221 C 
HETATM   19  O2  UNL     1      24.587  -0.124  53.486  1.00  0.00    -0.274 OA
HETATM   20  N5  UNL     1      26.135  -0.785  53.970  1.00  0.00    -0.333 N 
HETATM   21  H23 UNL     1      26.767  -1.406  54.473  1.00  0.00     0.165 HD
ENDROOT
BRANCH   9  22
HETATM   22  N3  UNL     1      23.143   4.169  50.251  1.00  0.00    -0.354 N 
HETATM   23  H8  UNL     1      22.747   4.485  51.133  1.00  0.00     0.166 HD
BRANCH  22  24
HETATM   24  C10 UNL     1      22.584   4.024  48.959  1.00  0.00     0.034 A 
HETATM   25  C11 UNL     1      22.771   2.817  48.300  1.00  0.00     0.032 A 
HETATM   26  C12 UNL     1      22.262   2.613  47.016  1.00  0.00     0.046 A 
HETATM   27  C13 UNL     1      21.557   3.630  46.380  1.00  0.00     0.138 A 
HETATM   28  F1  UNL     1      21.043   3.483  45.127  1.00  0.00    -0.204 F 
HETATM   29  C14 UNL     1      21.352   4.836  46.998  1.00  0.00     0.074 A 
HETATM   30 CL1  UNL     1      20.465   6.119  46.210  1.00  0.00    -0.081 Cl
HETATM   31  C15 UNL     1      21.872   4.985  48.260  1.00  0.00     0.056 A 
ENDBRANCH  22  24
ENDBRANCH   9  22
BRANCH   1  32
HETATM   32  O1  UNL     1      28.014   0.148  53.003  1.00  0.00    -0.366 OA
BRANCH  32  33
HETATM   33  C2  UNL     1      28.795  -0.165  54.137  1.00  0.00     0.166 C 
HETATM   34  C1  UNL     1      29.958  -1.013  53.690  1.00  0.00     0.033 C 
ENDBRANCH  32  33
ENDBRANCH   1  32
TORSDOF 4
ENDMDL
MODEL 2
REMARK VINA RESULT:      -8.8      4.126      8.251
REMARK  4 active torsions:
REMARK  status: ('A' for Active; 'I' for Inactive)
REMARK    1  A    between atoms: C2_2  and  O1_3 
REMARK    2  A    between atoms: O1_3  and  C3_4 
REMARK    3  A    between atoms: C9_12  and  N3_13 
REMARK    4  A    between atoms: N3_13  and  C10_14 
ROOT
HETATM    1  C3  UNL     1      19.593   0.682  50.591  1.00  0.00     0.121 C 
HETATM    2  C4  UNL     1      20.172   0.071  51.604  1.00  0.00     0.212 C 
HETATM    3  C5  UNL     1      21.509   0.223  52.192  1.00  0.00     0.056 A 
HETATM    4  N1  UNL     1      21.187  -0.724  53.101  1.00  0.00    -0.262 NA
HETATM    5  C6  UNL     1      21.949  -1.178  54.108  1.00  0.00     0.142 A 
HETATM    6  C7  UNL     1      23.190  -0.682  54.291  1.00  0.00     0.089 A 
HETATM    7  C8  UNL     1      24.152  -1.030  55.299  1.00  0.00     0.103 C 
HETATM    8  N2  UNL     1      24.929  -1.318  56.098  1.00  0.00    -0.191 NA
HETATM    9  C9  UNL     1      23.621   0.285  53.419  1.00  0.00     0.067 A 
HETATM   10  C16 UNL     1      22.809   0.704  52.428  1.00  0.00     0.017 A 
HETATM   11  C17 UNL     1      23.324   1.754  51.536  1.00  0.00     0.013 C 
HETATM   12  C18 UNL     1      23.655   2.897  50.975  1.00  0.00     0.004 C 
HETATM   13  C19 UNL     1      24.393   3.075  49.659  1.00  0.00     0.299 C 
HETATM   14  N4  UNL     1      23.517   3.830  48.714  1.00  0.00     0.087 N 
HETATM   15  C20 UNL     1      23.435   5.220  49.188  1.00  0.00     0.310 C 
HETATM   16  C21 UNL     1      22.294   3.153  48.878  1.00  0.00     0.281 C 
HETATM   17  C22 UNL     1      21.046   3.414  48.131  1.00  0.00     0.133 C 
HETATM   18  C23 UNL     1      20.098   2.418  48.817  1.00  0.00     0.221 C 
HETATM   19  O2  UNL     1      20.879   2.062  49.624  1.00  0.00    -0.274 OA
HETATM   20  N5  UNL     1      19.227   1.507  49.444  1.00  0.00    -0.333 N 
HETATM   21  H23 UNL     1      18.297   1.468  49.030  1.00  0.00     0.165 HD
ENDROOT
BRANCH   9  22
HETATM   22  N3  UNL     1      24.863   0.957  53.350  1.00  0.00    -0.354 N 
HETATM   23  H8  UNL     1      24.738   1.964  53.415  1.00  0.00     0.166 HD
BRANCH  22  24
HETATM   24  C10 UNL     1      26.020   0.153  53.207  1.00  0.00     0.034 A 
HETATM   25  C11 UNL     1      25.879  -1.089  52.605  1.00  0.00     0.032 A 
HETATM   26  C12 UNL     1      26.976  -1.940  52.449  1.00  0.00     0.046 A 
HETATM   27  C13 UNL     1      28.230  -1.545  52.902  1.00  0.00     0.138 A 
HETATM   28  F1  UNL     1      29.330  -2.338  52.777  1.00  0.00    -0.204 F 
HETATM   29  C14 UNL     1      28.409  -0.326  53.501  1.00  0.00     0.074 A 
HETATM   30 CL1  UNL     1      29.981   0.183  54.072  1.00  0.00    -0.081 Cl
HETATM   31  C15 UNL     1      27.299   0.474  53.630  1.00  0.00     0.056 A 
ENDBRANCH  22  24
ENDBRANCH   9  22
BRANCH   1  32
HETATM   32  O1  UNL     1      18.513  -0.130  50.908  1.00  0.00    -0.366 OA
BRANCH  32  33
HETATM   33  C2  UNL     1      17.743   0.065  52.076  1.00  0.00     0.166 C 
HETATM   34  C1  UNL     1      16.464   0.760  51.688  1.00  0.00     0.033 C 
ENDBRANCH  32  33
ENDBRANCH   1  32
TORSDOF 4
ENDMDL
MODEL 3
REMARK VINA RESULT:      -8.7      2.546      5.177
REMARK  4 active torsions:
REMARK  status: ('A' for Active; 'I' for Inactive)
REMARK    1  A    between atoms: C2_2  and  O1_3 
REMARK    2  A    between atoms: O1_3  and  C3_4 
REMARK    3  A    between atoms: C9_12  and  N3_13 
REMARK    4  A    between atoms: N3_13  and  C10_14 
ROOT
HETATM    1  C3  UNL     1      22.244  -0.617  53.461  1.00  0.00     0.121 C 
HETATM    2  C4  UNL     1      21.848   0.084  52.418  1.00  0.00     0.212 C 
HETATM    3  C5  UNL     1      22.569   1.028  51.555  1.00  0.00     0.056 A 
HETATM    4  N1  UNL     1      21.437   1.190  50.834  1.00  0.00    -0.262 NA
HETATM    5  C6  UNL     1      21.269   1.954  49.743  1.00  0.00     0.142 A 
HETATM    6  C7  UNL     1      22.303   2.674  49.259  1.00  0.00     0.089 A 
HETATM    7  C8  UNL     1      22.328   3.543  48.116  1.00  0.00     0.103 C 
HETATM    8  N2  UNL     1      22.346   4.250  47.208  1.00  0.00    -0.191 NA
HETATM    9  C9  UNL     1      23.501   2.586  49.919  1.00  0.00     0.067 A 
HETATM   10  C16 UNL     1      23.610   1.799  51.008  1.00  0.00     0.017 A 
HETATM   11  C17 UNL     1      24.926   1.736  51.663  1.00  0.00     0.013 C 
HETATM   12  C18 UNL     1      26.155   1.431  52.023  1.00  0.00     0.004 C 
HETATM   13  C19 UNL     1      26.957   2.088  53.133  1.00  0.00     0.299 C 
HETATM   14  N4  UNL     1      27.299   1.055  54.156  1.00  0.00     0.087 N 
HETATM   15  C20 UNL     1      28.303   0.154  53.568  1.00  0.00     0.310 C 
HETATM   16  C21 UNL     1      26.058   0.412  54.318  1.00  0.00     0.281 C 
HETATM   17  C22 UNL     1      25.756  -0.673  55.274  1.00  0.00     0.133 C 
HETATM   18  C23 UNL     1      24.295  -0.972  54.905  1.00  0.00     0.221 C 
HETATM   19  O2  UNL     1      24.257  -0.224  53.995  1.00  0.00    -0.274 OA
HETATM   20  N5  UNL     1      22.956  -1.248  54.568  1.00  0.00    -0.333 N 
HETATM   21  H23 UNL     1      22.511  -1.942  55.166  1.00  0.00     0.165 HD
ENDROOT
BRANCH   9  22
HETATM   22  N3  UNL     1      24.729   3.237  49.662  1.00  0.00    -0.354 N 
HETATM   23  H8  UNL     1      25.443   2.570  49.375  1.00  0.00     0.166 HD
BRANCH  22  24
HETATM   24  C10 UNL     1      24.761   4.641  49.840  1.00  0.00     0.034 A 
HETATM   25  C11 UNL     1      24.168   5.166  50.980  1.00  0.00     0.032 A 
HETATM   26  C12 UNL     1      24.147   6.543  51.209  1.00  0.00     0.046 A 
HETATM   27  C13 UNL     1      24.725   7.409  50.286  1.00  0.00     0.138 A 
HETATM   28  F1  UNL     1      24.729   8.759  50.461  1.00  0.00    -0.204 F 
HETATM   29  C14 UNL     1      25.320   6.928  49.149  1.00  0.00     0.074 A 
HETATM   30 CL1  UNL     1      26.053   8.006  47.984  1.00  0.00    -0.081 Cl
HETATM   31  C15 UNL     1      25.315   5.566  48.971  1.00  0.00     0.056 A 
ENDBRANCH  22  24
ENDBRANCH   9  22
BRANCH   1  32
HETATM   32  O1  UNL     1      20.937  -1.085  53.458  1.00  0.00    -0.366 OA
BRANCH  32  33
HETATM   33  C2  UNL     1      19.833  -0.230  53.662  1.00  0.00     0.166 C 
HETATM   34  C1  UNL     1      18.609  -0.892  53.083  1.00  0.00     0.033 C 
ENDBRANCH  32  33
ENDBRANCH   1  32
TORSDOF 4
ENDMDL
MODEL 4
REMARK VINA RESULT:      -8.5      3.053      5.799
REMARK  4 active torsions:
REMARK  status: ('A' for Active; 'I' for Inactive)
REMARK    1  A    between atoms: C2_2  and  O1_3 
REMARK    2  A    between atoms: O1_3  and  C3_4 
REMARK    3  A    between atoms: C9_12  and  N3_13 
REMARK    4  A    between atoms: N3_13  and  C10_14 
ROOT
HETATM    1  C3  UNL     1      19.693  -0.577  53.477  1.00  0.00     0.121 C 
HETATM    2  C4  UNL     1      19.348   0.085  52.391  1.00  0.00     0.212 C 
HETATM    3  C5  UNL     1      20.156   0.802  51.396  1.00  0.00     0.056 A 
HETATM    4  N1  UNL     1      19.019   1.095  50.725  1.00  0.00    -0.262 NA
HETATM    5  C6  UNL     1      18.907   1.772  49.572  1.00  0.00     0.142 A 
HETATM    6  C7  UNL     1      20.010   2.249  48.960  1.00  0.00     0.089 A 
HETATM    7  C8  UNL     1      20.102   2.990  47.733  1.00  0.00     0.103 C 
HETATM    8  N2  UNL     1      20.175   3.595  46.757  1.00  0.00    -0.191 NA
HETATM    9  C9  UNL     1      21.220   2.011  49.559  1.00  0.00     0.067 A 
HETATM   10  C16 UNL     1      21.272   1.321  50.716  1.00  0.00     0.017 A 
HETATM   11  C17 UNL     1      22.601   1.086  51.300  1.00  0.00     0.013 C 
HETATM   12  C18 UNL     1      23.782   0.602  51.622  1.00  0.00     0.004 C 
HETATM   13  C19 UNL     1      24.763   1.205  52.613  1.00  0.00     0.299 C 
HETATM   14  N4  UNL     1      24.996   0.227  53.716  1.00  0.00     0.087 N 
HETATM   15  C20 UNL     1      25.785  -0.888  53.171  1.00  0.00     0.310 C 
HETATM   16  C21 UNL     1      23.678  -0.167  54.012  1.00  0.00     0.281 C 
HETATM   17  C22 UNL     1      23.264  -1.088  55.091  1.00  0.00     0.133 C 
HETATM   18  C23 UNL     1      21.750  -1.155  54.835  1.00  0.00     0.221 C 
HETATM   19  O2  UNL     1      21.777  -0.500  53.856  1.00  0.00    -0.274 OA
HETATM   20  N5  UNL     1      20.364  -1.219  54.603  1.00  0.00    -0.333 N 
HETATM   21  H23 UNL     1      19.851  -1.764  55.293  1.00  0.00     0.165 HD
ENDROOT
BRANCH   9  22
HETATM   22  N3  UNL     1      22.521   2.406  49.168  1.00  0.00    -0.354 N 
HETATM   23  H8  UNL     1      22.951   1.705  48.570  1.00  0.00     0.166 HD
BRANCH  22  24
HETATM   24  C10 UNL     1      22.984   3.653  49.654  1.00  0.00     0.034 A 
HETATM   25  C11 UNL     1      24.355   3.835  49.774  1.00  0.00     0.032 A 
HETATM   26  C12 UNL     1      24.879   5.033  50.264  1.00  0.00     0.046 A 
HETATM   27  C13 UNL     1      24.023   6.063  50.640  1.00  0.00     0.138 A 
HETATM   28  F1  UNL     1      24.483   7.249  51.125  1.00  0.00    -0.204 F 
HETATM   29  C14 UNL     1      22.664   5.921  50.535  1.00  0.00     0.074 A 
HETATM   30 CL1  UNL     1      21.579   7.209  51.001  1.00  0.00    -0.081 Cl
HETATM   31  C15 UNL     1      22.199   4.723  50.047  1.00  0.00     0.056 A 
ENDBRANCH  22  24
ENDBRANCH   9  22
BRANCH   1  32
HETATM   32  O1  UNL     1      18.328  -0.803  53.594  1.00  0.00    -0.366 OA
BRANCH  32  33
HETATM   33  C2  UNL     1      17.657  -1.768  52.813  1.00  0.00     0.166 C 
HETATM   34  C1  UNL     1      17.525  -3.028  53.629  1.00  0.00     0.033 C 
ENDBRANCH  32  33
ENDBRANCH   1  32
TORSDOF 4
ENDMDL
MODEL 5
REMARK VINA RESULT:      -7.9      4.226      8.320
REMARK  4 active torsions:
REMARK  status: ('A' for Active; 'I' for Inactive)
REMARK    1  A    between atoms: C2_2  and  O1_3 
REMARK    2  A    between atoms: O1_3  and  C3_4 
REMARK    3  A    between atoms: C9_12  and  N3_13 
REMARK    4  A    between atoms: N3_13  and  C10_14 
ROOT
HETATM    1  C3  UNL     1      20.214   2.916  49.031  1.00  0.00     0.121 C 
HETATM    2  C4  UNL     1      20.409   1.979  49.935  1.00  0.00     0.212 C 
HETATM    3  C5  UNL     1      21.444   1.825  50.965  1.00  0.00     0.056 A 
HETATM    4  N1  UNL     1      20.842   0.682  51.361  1.00  0.00    -0.262 NA
HETATM    5  C6  UNL     1      21.206  -0.120  52.373  1.00  0.00     0.142 A 
HETATM    6  C7  UNL     1      22.288   0.184  53.119  1.00  0.00     0.089 A 
HETATM    7  C8  UNL     1      22.836  -0.538  54.234  1.00  0.00     0.103 C 
HETATM    8  N2  UNL     1      23.284  -1.121  55.119  1.00  0.00    -0.191 NA
HETATM    9  C9  UNL     1      22.978   1.324  52.800  1.00  0.00     0.067 A 
HETATM   10  C16 UNL     1      22.563   2.094  51.773  1.00  0.00     0.017 A 
HETATM   11  C17 UNL     1      23.337   3.312  51.491  1.00  0.00     0.013 C 
HETATM   12  C18 UNL     1      23.818   4.537  51.468  1.00  0.00     0.004 C 
HETATM   13  C19 UNL     1      24.972   5.035  50.614  1.00  0.00     0.299 C 
HETATM   14  N4  UNL     1      24.473   6.115  49.712  1.00  0.00     0.087 N 
HETATM   15  C20 UNL     1      24.193   7.299  50.538  1.00  0.00     0.310 C 
HETATM   16  C21 UNL     1      23.288   5.533  49.222  1.00  0.00     0.281 C 
HETATM   17  C22 UNL     1      22.382   6.118  48.212  1.00  0.00     0.133 C 
HETATM   18  C23 UNL     1      21.276   5.053  48.179  1.00  0.00     0.221 C 
HETATM   19  O2  UNL     1      21.727   4.401  49.051  1.00  0.00    -0.274 OA
HETATM   20  N5  UNL     1      20.261   4.078  48.148  1.00  0.00    -0.333 N 
HETATM   21  H23 UNL     1      19.541   4.249  47.448  1.00  0.00     0.165 HD
ENDROOT
BRANCH   9  22
HETATM   22  N3  UNL     1      24.147   1.871  53.378  1.00  0.00    -0.354 N 
HETATM   23  H8  UNL     1      23.952   2.769  53.815  1.00  0.00     0.166 HD
BRANCH  22  24
HETATM   24  C10 UNL     1      25.337   1.114  53.256  1.00  0.00     0.034 A 
HETATM   25  C11 UNL     1      25.525   0.379  52.095  1.00  0.00     0.032 A 
HETATM   26  C12 UNL     1      26.667  -0.405  51.918  1.00  0.00     0.046 A 
HETATM   27  C13 UNL     1      27.635  -0.456  52.916  1.00  0.00     0.138 A 
HETATM   28  F1  UNL     1      28.765  -1.206  52.794  1.00  0.00    -0.204 F 
HETATM   29  C14 UNL     1      27.485   0.256  54.077  1.00  0.00     0.074 A 
HETATM   30 CL1  UNL     1      28.695   0.203  55.336  1.00  0.00    -0.081 Cl
HETATM   31  C15 UNL     1      26.344   1.012  54.202  1.00  0.00     0.056 A 
ENDBRANCH  22  24
ENDBRANCH   9  22
BRANCH   1  32
HETATM   32  O1  UNL     1      19.111   2.147  48.684  1.00  0.00    -0.366 OA
BRANCH  32  33
HETATM   33  C2  UNL     1      17.846   2.336  49.280  1.00  0.00     0.166 C 
HETATM   34  C1  UNL     1      16.836   2.562  48.186  1.00  0.00     0.033 C 
ENDBRANCH  32  33
ENDBRANCH   1  32
TORSDOF 4
ENDMDL
MODEL 6
REMARK VINA RESULT:      -7.9      3.279      5.851
REMARK  4 active torsions:
REMARK  status: ('A' for Active; 'I' for Inactive)
REMARK    1  A    between atoms: C2_2  and  O1_3 
REMARK    2  A    between atoms: O1_3  and  C3_4 
REMARK    3  A    between atoms: C9_12  and  N3_13 
REMARK    4  A    between atoms: N3_13  and  C10_14 
ROOT
HETATM    1  C3  UNL     1      20.352   1.515  51.129  1.00  0.00     0.121 C 
HETATM    2  C4  UNL     1      20.391   2.772  50.738  1.00  0.00     0.212 C 
HETATM    3  C5  UNL     1      21.440   3.792  50.855  1.00  0.00     0.056 A 
HETATM    4  N1  UNL     1      20.632   4.659  50.206  1.00  0.00    -0.262 NA
HETATM    5  C6  UNL     1      20.906   5.928  49.866  1.00  0.00     0.142 A 
HETATM    6  C7  UNL     1      22.103   6.466  50.179  1.00  0.00     0.089 A 
HETATM    7  C8  UNL     1      22.586   7.791  49.905  1.00  0.00     0.103 C 
HETATM    8  N2  UNL     1      22.969   8.856  49.698  1.00  0.00    -0.191 NA
HETATM    9  C9  UNL     1      23.001   5.672  50.844  1.00  0.00     0.067 A 
HETATM   10  C16 UNL     1      22.670   4.403  51.158  1.00  0.00     0.017 A 
HETATM   11  C17 UNL     1      23.682   3.598  51.858  1.00  0.00     0.013 C 
HETATM   12  C18 UNL     1      24.689   2.808  52.167  1.00  0.00     0.004 C 
HETATM   13  C19 UNL     1      25.133   2.422  53.568  1.00  0.00     0.299 C 
HETATM   14  N4  UNL     1      25.020   0.942  53.719  1.00  0.00     0.087 N 
HETATM   15  C20 UNL     1      26.075   0.323  52.901  1.00  0.00     0.310 C 
HETATM   16  C21 UNL     1      23.742   0.710  53.177  1.00  0.00     0.281 C 
HETATM   17  C22 UNL     1      23.041  -0.589  53.119  1.00  0.00     0.133 C 
HETATM   18  C23 UNL     1      21.765  -0.185  52.366  1.00  0.00     0.221 C 
HETATM   19  O2  UNL     1      22.101   0.928  52.174  1.00  0.00    -0.274 OA
HETATM   20  N5  UNL     1      20.595   0.183  51.675  1.00  0.00    -0.333 N 
HETATM   21  H23 UNL     1      19.915  -0.569  51.579  1.00  0.00     0.165 HD
ENDROOT
BRANCH   9  22
HETATM   22  N3  UNL     1      24.299   5.969  51.318  1.00  0.00    -0.354 N 
HETATM   23  H8  UNL     1      24.321   5.990  52.335  1.00  0.00     0.166 HD
BRANCH  22  24
HETATM   24  C10 UNL     1      25.305   6.179  50.345  1.00  0.00     0.034 A 
HETATM   25  C11 UNL     1      25.699   5.097  49.571  1.00  0.00     0.032 A 
HETATM   26  C12 UNL     1      26.699   5.230  48.605  1.00  0.00     0.046 A 
HETATM   27  C13 UNL     1      27.316   6.462  48.411  1.00  0.00     0.138 A 
HETATM   28  F1  UNL     1      28.297   6.645  47.485  1.00  0.00    -0.204 F 
HETATM   29  C14 UNL     1      26.954   7.554  49.156  1.00  0.00     0.074 A 
HETATM   30 CL1  UNL     1      27.720   9.107  48.918  1.00  0.00    -0.081 Cl
HETATM   31  C15 UNL     1      25.965   7.371  50.092  1.00  0.00     0.056 A 
ENDBRANCH  22  24
ENDBRANCH   9  22
BRANCH   1  32
HETATM   32  O1  UNL     1      19.083   1.531  50.566  1.00  0.00    -0.366 OA
BRANCH  32  33
HETATM   33  C2  UNL     1      18.286   0.370  50.476  1.00  0.00     0.166 C 
HETATM   34  C1  UNL     1      16.939   0.673  51.079  1.00  0.00     0.033 C 
ENDBRANCH  32  33
ENDBRANCH   1  32
TORSDOF 4
ENDMDL
MODEL 7
REMARK VINA RESULT:      -7.8      5.712      9.013
REMARK  4 active torsions:
REMARK  status: ('A' for Active; 'I' for Inactive)
REMARK    1  A    between atoms: C2_2  and  O1_3 
REMARK    2  A    between atoms: O1_3  and  C3_4 
REMARK    3  A    between atoms: C9_12  and  N3_13 
REMARK    4  A    between atoms: N3_13  and  C10_14 
ROOT
HETATM    1  C3  UNL     1      31.470   5.706  47.705  1.00  0.00     0.121 C 
HETATM    2  C4  UNL     1      30.273   5.272  48.042  1.00  0.00     0.212 C 
HETATM    3  C5  UNL     1      29.022   5.991  48.313  1.00  0.00     0.056 A 
HETATM    4  N1  UNL     1      28.417   4.802  48.529  1.00  0.00    -0.262 NA
HETATM    5  C6  UNL     1      27.127   4.589  48.832  1.00  0.00     0.142 A 
HETATM    6  C7  UNL     1      26.282   5.633  48.954  1.00  0.00     0.089 A 
HETATM    7  C8  UNL     1      24.880   5.616  49.268  1.00  0.00     0.103 C 
HETATM    8  N2  UNL     1      23.760   5.605  49.532  1.00  0.00    -0.191 NA
HETATM    9  C9  UNL     1      26.793   6.890  48.758  1.00  0.00     0.067 A 
HETATM   10  C16 UNL     1      28.098   7.042  48.454  1.00  0.00     0.017 A 
HETATM   11  C17 UNL     1      28.583   8.415  48.240  1.00  0.00     0.013 C 
HETATM   12  C18 UNL     1      28.915   9.582  47.731  1.00  0.00     0.004 C 
HETATM   13  C19 UNL     1      29.552  10.742  48.478  1.00  0.00     0.299 C 
HETATM   14  N4  UNL     1      30.879  11.040  47.862  1.00  0.00     0.087 N 
HETATM   15  C20 UNL     1      30.637  11.645  46.543  1.00  0.00     0.310 C 
HETATM   16  C21 UNL     1      31.422   9.747  47.748  1.00  0.00     0.281 C 
HETATM   17  C22 UNL     1      32.776   9.410  47.261  1.00  0.00     0.133 C 
HETATM   18  C23 UNL     1      32.717   7.876  47.311  1.00  0.00     0.221 C 
HETATM   19  O2  UNL     1      31.583   7.821  47.628  1.00  0.00    -0.274 OA
HETATM   20  N5  UNL     1      32.664   6.470  47.357  1.00  0.00    -0.333 N 
HETATM   21  H23 UNL     1      33.543   6.013  47.118  1.00  0.00     0.165 HD
ENDROOT
BRANCH   9  22
HETATM   22  N3  UNL     1      26.162   8.152  48.847  1.00  0.00    -0.354 N 
HETATM   23  H8  UNL     1      26.485   8.665  49.665  1.00  0.00     0.166 HD
BRANCH  22  24
HETATM   24  C10 UNL     1      25.230   8.475  47.832  1.00  0.00     0.034 A 
HETATM   25  C11 UNL     1      24.085   9.169  48.197  1.00  0.00     0.032 A 
HETATM   26  C12 UNL     1      23.115   9.503  47.249  1.00  0.00     0.046 A 
HETATM   27  C13 UNL     1      23.291   9.139  45.919  1.00  0.00     0.138 A 
HETATM   28  F1  UNL     1      22.375   9.439  44.956  1.00  0.00    -0.204 F 
HETATM   29  C14 UNL     1      24.409   8.454  45.520  1.00  0.00     0.074 A 
HETATM   30 CL1  UNL     1      24.642   7.993  43.850  1.00  0.00    -0.081 Cl
HETATM   31  C15 UNL     1      25.333   8.149  46.490  1.00  0.00     0.056 A 
ENDBRANCH  22  24
ENDBRANCH   9  22
BRANCH   1  32
HETATM   32  O1  UNL     1      31.797   4.357  47.701  1.00  0.00    -0.366 OA
BRANCH  32  33
HETATM   33  C2  UNL     1      32.317   3.713  46.557  1.00  0.00     0.166 C 
HETATM   34  C1  UNL     1      32.359   2.232  46.826  1.00  0.00     0.033 C 
ENDBRANCH  32  33
ENDBRANCH   1  32
TORSDOF 4
ENDMDL
MODEL 8
REMARK VINA RESULT:      -7.8      3.808      6.833
REMARK  4 active torsions:
REMARK  status: ('A' for Active; 'I' for Inactive)
REMARK    1  A    between atoms: C2_2  and  O1_3 
REMARK    2  A    between atoms: O1_3  and  C3_4 
REMARK    3  A    between atoms: C9_12  and  N3_13 
REMARK    4  A    between atoms: N3_13  and  C10_14 
ROOT
HETATM    1  C3  UNL     1      23.882   2.442  52.321  1.00  0.00     0.121 C 
HETATM    2  C4  UNL     1      22.977   1.655  52.865  1.00  0.00     0.212 C 
HETATM    3  C5  UNL     1      21.679   1.182  52.367  1.00  0.00     0.056 A 
HETATM    4  N1  UNL     1      21.525   0.483  53.513  1.00  0.00    -0.262 NA
HETATM    5  C6  UNL     1      20.499  -0.316  53.847  1.00  0.00     0.142 A 
HETATM    6  C7  UNL     1      19.469  -0.483  52.993  1.00  0.00     0.089 A 
HETATM    7  C8  UNL     1      18.290  -1.287  53.161  1.00  0.00     0.103 C 
HETATM    8  N2  UNL     1      17.339  -1.920  53.299  1.00  0.00    -0.191 NA
HETATM    9  C9  UNL     1      19.521   0.186  51.797  1.00  0.00     0.067 A 
HETATM   10  C16 UNL     1      20.580   0.973  51.515  1.00  0.00     0.017 A 
HETATM   11  C17 UNL     1      20.584   1.651  50.210  1.00  0.00     0.013 C 
HETATM   12  C18 UNL     1      20.734   1.968  48.942  1.00  0.00     0.004 C 
HETATM   13  C19 UNL     1      20.325   3.277  48.286  1.00  0.00     0.299 C 
HETATM   14  N4  UNL     1      21.542   3.936  47.726  1.00  0.00     0.087 N 
HETATM   15  C20 UNL     1      21.982   3.154  46.560  1.00  0.00     0.310 C 
HETATM   16  C21 UNL     1      22.439   3.810  48.803  1.00  0.00     0.281 C 
HETATM   17  C22 UNL     1      23.812   4.352  48.861  1.00  0.00     0.133 C 
HETATM   18  C23 UNL     1      24.264   3.819  50.230  1.00  0.00     0.221 C 
HETATM   19  O2  UNL     1      23.286   3.194  50.431  1.00  0.00    -0.274 OA
HETATM   20  N5  UNL     1      24.680   3.332  51.483  1.00  0.00    -0.333 N 
HETATM   21  H23 UNL     1      25.605   3.650  51.767  1.00  0.00     0.165 HD
ENDROOT
BRANCH   9  22
HETATM   22  N3  UNL     1      18.589   0.224  50.735  1.00  0.00    -0.354 N 
HETATM   23  H8  UNL     1      18.948  -0.262  49.916  1.00  0.00     0.166 HD
BRANCH  22  24
HETATM   24  C10 UNL     1      17.369   0.901  50.977  1.00  0.00     0.034 A 
HETATM   25  C11 UNL     1      16.190   0.266  50.615  1.00  0.00     0.032 A 
HETATM   26  C12 UNL     1      14.953   0.885  50.808  1.00  0.00     0.046 A 
HETATM   27  C13 UNL     1      14.894   2.157  51.368  1.00  0.00     0.138 A 
HETATM   28  F1  UNL     1      13.714   2.805  51.575  1.00  0.00    -0.204 F 
HETATM   29  C14 UNL     1      16.037   2.815  51.739  1.00  0.00     0.074 A 
HETATM   30 CL1  UNL     1      15.974   4.412  52.448  1.00  0.00    -0.081 Cl
HETATM   31  C15 UNL     1      17.228   2.163  51.529  1.00  0.00     0.056 A 
ENDBRANCH  22  24
ENDBRANCH   9  22
BRANCH   1  32
HETATM   32  O1  UNL     1      24.578   2.212  53.501  1.00  0.00    -0.366 OA
BRANCH  32  33
HETATM   33  C2  UNL     1      25.987   2.144  53.540  1.00  0.00     0.166 C 
HETATM   34  C1  UNL     1      26.380   0.913  54.316  1.00  0.00     0.033 C 
ENDBRANCH  32  33
ENDBRANCH   1  32
TORSDOF 4
ENDMDL
MODEL 9
REMARK VINA RESULT:      -7.8      3.622      5.216
REMARK  4 active torsions:
REMARK  status: ('A' for Active; 'I' for Inactive)
REMARK    1  A    between atoms: C2_2  and  O1_3 
REMARK    2  A    between atoms: O1_3  and  C3_4 
REMARK    3  A    between atoms: C9_12  and  N3_13 
REMARK    4  A    between atoms: N3_13  and  C10_14 
ROOT
HETATM    1  C3  UNL     1      25.221   3.406  50.684  1.00  0.00     0.121 C 
HETATM    2  C4  UNL     1      24.374   3.657  49.708  1.00  0.00     0.212 C 
HETATM    3  C5  UNL     1      23.054   3.092  49.400  1.00  0.00     0.056 A 
HETATM    4  N1  UNL     1      22.979   3.918  48.333  1.00  0.00    -0.262 NA
HETATM    5  C6  UNL     1      21.961   4.037  47.467  1.00  0.00     0.142 A 
HETATM    6  C7  UNL     1      20.858   3.275  47.614  1.00  0.00     0.089 A 
HETATM    7  C8  UNL     1      19.673   3.253  46.802  1.00  0.00     0.103 C 
HETATM    8  N2  UNL     1      18.728   3.225  46.146  1.00  0.00    -0.191 NA
HETATM    9  C9  UNL     1      20.829   2.397  48.666  1.00  0.00     0.067 A 
HETATM   10  C16 UNL     1      21.881   2.322  49.506  1.00  0.00     0.017 A 
HETATM   11  C17 UNL     1      21.783   1.372  50.624  1.00  0.00     0.013 C 
HETATM   12  C18 UNL     1      21.549   0.785  51.778  1.00  0.00     0.004 C 
HETATM   13  C19 UNL     1      21.895  -0.648  52.147  1.00  0.00     0.299 C 
HETATM   14  N4  UNL     1      22.840  -0.632  53.303  1.00  0.00     0.087 N 
HETATM   15  C20 UNL     1      22.091  -0.201  54.493  1.00  0.00     0.310 C 
HETATM   16  C21 UNL     1      23.761   0.348  52.887  1.00  0.00     0.281 C 
HETATM   17  C22 UNL     1      24.986   0.754  53.606  1.00  0.00     0.133 C 
HETATM   18  C23 UNL     1      25.487   1.881  52.690  1.00  0.00     0.221 C 
HETATM   19  O2  UNL     1      24.558   1.853  51.965  1.00  0.00    -0.274 OA
HETATM   20  N5  UNL     1      25.947   2.914  51.851  1.00  0.00    -0.333 N 
HETATM   21  H23 UNL     1      26.845   3.306  52.129  1.00  0.00     0.165 HD
ENDROOT
BRANCH   9  22
HETATM   22  N3  UNL     1      19.835   1.467  49.047  1.00  0.00    -0.354 N 
HETATM   23  H8  UNL     1      20.009   0.555  48.630  1.00  0.00     0.166 HD
BRANCH  22  24
HETATM   24  C10 UNL     1      18.810   1.938  49.902  1.00  0.00     0.034 A 
HETATM   25  C11 UNL     1      18.721   3.306  50.119  1.00  0.00     0.032 A 
HETATM   26  C12 UNL     1      17.746   3.837  50.966  1.00  0.00     0.046 A 
HETATM   27  C13 UNL     1      16.848   2.989  51.607  1.00  0.00     0.138 A 
HETATM   28  F1  UNL     1      15.881   3.456  52.445  1.00  0.00    -0.204 F 
HETATM   29  C14 UNL     1      16.905   1.633  51.418  1.00  0.00     0.074 A 
HETATM   30 CL1  UNL     1      15.780   0.559  52.215  1.00  0.00    -0.081 Cl
HETATM   31  C15 UNL     1      17.882   1.162  50.575  1.00  0.00     0.056 A 
ENDBRANCH  22  24
ENDBRANCH   9  22
BRANCH   1  32
HETATM   32  O1  UNL     1      25.993   4.383  50.069  1.00  0.00    -0.366 OA
BRANCH  32  33
HETATM   33  C2  UNL     1      27.015   4.064  49.149  1.00  0.00     0.166 C 
HETATM   34  C1  UNL     1      27.543   5.348  48.565  1.00  0.00     0.033 C 
ENDBRANCH  32  33
ENDBRANCH   1  32
TORSDOF 4
ENDMDL
