MODEL 1
REMARK VINA RESULT:      -9.0      0.000      0.000
REMARK  2 active torsions:
REMARK  status: ('A' for Active; 'I' for Inactive)
REMARK    1  A    between atoms: C6_7  and  O2_8 
REMARK    2  A    between atoms: O2_8  and  C7_9 
ROOT
HETATM    1  C7  UNL     1      25.577   1.166  53.782  1.00  0.00     0.297 C 
HETATM    2  O3  UNL     1      25.590   2.515  53.368  1.00  0.00    -0.333 OA
HETATM    3  C8  UNL     1      26.059   2.455  52.034  1.00  0.00     0.342 C 
HETATM    4  O4  UNL     1      25.473   1.383  51.367  1.00  0.00    -0.355 OA
HETATM    5  C9  UNL     1      24.222   1.070  51.877  1.00  0.00     0.177 C 
HETATM    6  C10 UNL     1      23.317   2.234  51.661  1.00  0.00     0.166 C 
HETATM    7  N1  UNL     1      22.752   2.351  50.349  1.00  0.00    -0.348 N 
HETATM    8  C11 UNL     1      23.437   3.230  49.439  1.00  0.00     0.088 A 
HETATM    9  C12 UNL     1      22.918   3.347  48.232  1.00  0.00    -0.006 A 
HETATM   10  C13 UNL     1      21.716   2.696  47.663  1.00  0.00     0.058 A 
HETATM   11  C14 UNL     1      21.054   1.805  48.639  1.00  0.00     0.016 A 
HETATM   12  C15 UNL     1      21.594   1.713  49.826  1.00  0.00     0.087 A 
HETATM   13  C16 UNL     1      21.051   0.895  50.810  1.00  0.00    -0.026 C 
HETATM   14  C17 UNL     1      20.625   0.228  51.625  1.00  0.00     0.018 C 
HETATM   15  N2  UNL     1      20.137  -0.568  52.608  1.00  0.00    -0.309 N 
HETATM   16  C18 UNL     1      21.223  -0.210  53.481  1.00  0.00     0.214 C 
HETATM   17  N3  UNL     1      22.466  -0.508  53.251  1.00  0.00    -0.255 NA
HETATM   18  C19 UNL     1      23.547  -0.171  54.078  1.00  0.00     0.128 C 
HETATM   19  C20 UNL     1      24.298   0.588  53.273  1.00  0.00     0.022 C 
HETATM   20  H21 UNL     1      19.288  -1.133  52.537  1.00  0.00     0.177 HD
ENDROOT
BRANCH   1  21
HETATM   21  O2  UNL     1      26.616   0.533  53.173  1.00  0.00    -0.347 OA
BRANCH  21  22
HETATM   22  C6  UNL     1      27.284  -0.426  53.873  1.00  0.00     0.157 C 
HETATM   23  C2  UNL     1      27.788  -1.574  53.092  1.00  0.00    -0.037 C 
HETATM   24  C1  UNL     1      26.970  -2.091  52.221  1.00  0.00     0.019 C 
HETATM   25  C3  UNL     1      29.180  -2.044  53.360  1.00  0.00     0.203 C 
HETATM   26  O1  UNL     1      30.072  -1.002  53.191  1.00  0.00    -0.387 OA
HETATM   27  C4  UNL     1      29.612   0.209  53.655  1.00  0.00     0.171 C 
HETATM   28  C5  UNL     1      28.476   0.102  54.641  1.00  0.00     0.063 C 
ENDBRANCH  21  22
ENDBRANCH   1  21
TORSDOF 2
ENDMDL
MODEL 2
REMARK VINA RESULT:      -8.1      2.011      2.846
REMARK  2 active torsions:
REMARK  status: ('A' for Active; 'I' for Inactive)
REMARK    1  A    between atoms: C6_7  and  O2_8 
REMARK    2  A    between atoms: O2_8  and  C7_9 
ROOT
HETATM    1  C7  UNL     1      24.184   1.060  53.072  1.00  0.00     0.297 C 
HETATM    2  O3  UNL     1      23.762   2.396  52.908  1.00  0.00    -0.333 OA
HETATM    3  C8  UNL     1      23.598   2.529  51.509  1.00  0.00     0.342 C 
HETATM    4  O4  UNL     1      22.990   1.392  50.985  1.00  0.00    -0.355 OA
HETATM    5  C9  UNL     1      22.174   0.761  51.912  1.00  0.00     0.177 C 
HETATM    6  C10 UNL     1      21.066   1.690  52.278  1.00  0.00     0.166 C 
HETATM    7  N1  UNL     1      19.972   1.749  51.355  1.00  0.00    -0.348 N 
HETATM    8  C11 UNL     1      20.009   2.819  50.393  1.00  0.00     0.088 A 
HETATM    9  C12 UNL     1      19.000   2.883  49.545  1.00  0.00    -0.006 A 
HETATM   10  C13 UNL     1      17.815   2.001  49.433  1.00  0.00     0.058 A 
HETATM   11  C14 UNL     1      17.829   0.922  50.442  1.00  0.00     0.016 A 
HETATM   12  C15 UNL     1      18.843   0.889  51.267  1.00  0.00     0.087 A 
HETATM   13  C16 UNL     1      18.952  -0.093  52.245  1.00  0.00    -0.026 C 
HETATM   14  C17 UNL     1      19.060  -0.891  53.047  1.00  0.00     0.018 C 
HETATM   15  N2  UNL     1      19.212  -1.838  54.005  1.00  0.00    -0.309 N 
HETATM   16  C18 UNL     1      20.483  -1.286  54.393  1.00  0.00     0.214 C 
HETATM   17  N3  UNL     1      21.529  -1.267  53.624  1.00  0.00    -0.255 NA
HETATM   18  C19 UNL     1      22.780  -0.735  53.970  1.00  0.00     0.128 C 
HETATM   19  C20 UNL     1      22.944   0.227  53.056  1.00  0.00     0.022 C 
HETATM   20  H21 UNL     1      18.541  -2.582  54.205  1.00  0.00     0.177 HD
ENDROOT
BRANCH   1  21
HETATM   21  O2  UNL     1      24.948   0.728  51.996  1.00  0.00    -0.347 OA
BRANCH  21  22
HETATM   22  C6  UNL     1      26.237   0.349  52.214  1.00  0.00     0.157 C 
HETATM   23  C2  UNL     1      27.203   1.435  52.476  1.00  0.00    -0.037 C 
HETATM   24  C1  UNL     1      27.130   2.480  51.701  1.00  0.00     0.019 C 
HETATM   25  C3  UNL     1      28.174   1.252  53.595  1.00  0.00     0.203 C 
HETATM   26  O1  UNL     1      27.497   1.005  54.774  1.00  0.00    -0.387 OA
HETATM   27  C4  UNL     1      26.396   0.192  54.627  1.00  0.00     0.171 C 
HETATM   28  C5  UNL     1      26.397  -0.627  53.361  1.00  0.00     0.063 C 
ENDBRANCH  21  22
ENDBRANCH   1  21
TORSDOF 2
ENDMDL
MODEL 3
REMARK VINA RESULT:      -8.0      2.631      6.982
REMARK  2 active torsions:
REMARK  status: ('A' for Active; 'I' for Inactive)
REMARK    1  A    between atoms: C6_7  and  O2_8 
REMARK    2  A    between atoms: O2_8  and  C7_9 
ROOT
HETATM    1  C7  UNL     1      22.092   1.949  51.443  1.00  0.00     0.297 C 
HETATM    2  O3  UNL     1      23.148   1.764  50.525  1.00  0.00    -0.333 OA
HETATM    3  C8  UNL     1      24.082   2.767  50.879  1.00  0.00     0.342 C 
HETATM    4  O4  UNL     1      24.187   2.859  52.264  1.00  0.00    -0.355 OA
HETATM    5  C9  UNL     1      23.906   1.654  52.891  1.00  0.00     0.177 C 
HETATM    6  C10 UNL     1      24.923   0.650  52.466  1.00  0.00     0.166 C 
HETATM    7  N1  UNL     1      26.182   0.710  53.148  1.00  0.00    -0.348 N 
HETATM    8  C11 UNL     1      27.226   1.449  52.489  1.00  0.00     0.088 A 
HETATM    9  C12 UNL     1      28.390   1.503  53.108  1.00  0.00    -0.006 A 
HETATM   10  C13 UNL     1      28.788   0.907  54.405  1.00  0.00     0.058 A 
HETATM   11  C14 UNL     1      27.679   0.162  55.037  1.00  0.00     0.016 A 
HETATM   12  C15 UNL     1      26.540   0.128  54.395  1.00  0.00     0.087 A 
HETATM   13  C16 UNL     1      25.435  -0.538  54.911  1.00  0.00    -0.026 C 
HETATM   14  C17 UNL     1      24.519  -1.073  55.320  1.00  0.00     0.018 C 
HETATM   15  N2  UNL     1      23.414  -1.699  55.794  1.00  0.00    -0.309 N 
HETATM   16  C18 UNL     1      22.640  -1.254  54.666  1.00  0.00     0.214 C 
HETATM   17  N3  UNL     1      22.369  -0.008  54.419  1.00  0.00    -0.255 NA
HETATM   18  C19 UNL     1      21.621   0.458  53.328  1.00  0.00     0.128 C 
HETATM   19  C20 UNL     1      22.500   1.240  52.693  1.00  0.00     0.022 C 
HETATM   20  H21 UNL     1      23.371  -2.235  56.663  1.00  0.00     0.177 HD
ENDROOT
BRANCH   1  21
HETATM   21  O2  UNL     1      21.995   3.280  51.706  1.00  0.00    -0.347 OA
BRANCH  21  22
HETATM   22  C6  UNL     1      20.783   3.881  51.546  1.00  0.00     0.157 C 
HETATM   23  C2  UNL     1      20.788   5.190  50.862  1.00  0.00    -0.037 C 
HETATM   24  C1  UNL     1      21.704   6.038  51.232  1.00  0.00     0.019 C 
HETATM   25  C3  UNL     1      19.754   5.433  49.812  1.00  0.00     0.203 C 
HETATM   26  O1  UNL     1      19.829   4.455  48.838  1.00  0.00    -0.387 OA
HETATM   27  C4  UNL     1      20.083   3.195  49.329  1.00  0.00     0.171 C 
HETATM   28  C5  UNL     1      19.779   3.031  50.797  1.00  0.00     0.063 C 
ENDBRANCH  21  22
ENDBRANCH   1  21
TORSDOF 2
ENDMDL
MODEL 4
REMARK VINA RESULT:      -7.9      2.904      6.417
REMARK  2 active torsions:
REMARK  status: ('A' for Active; 'I' for Inactive)
REMARK    1  A    between atoms: C6_7  and  O2_8 
REMARK    2  A    between atoms: O2_8  and  C7_9 
ROOT
HETATM    1  C7  UNL     1      24.770   4.025  51.131  1.00  0.00     0.297 C 
HETATM    2  O3  UNL     1      23.792   4.416  52.070  1.00  0.00    -0.333 OA
HETATM    3  C8  UNL     1      22.591   3.874  51.553  1.00  0.00     0.342 C 
HETATM    4  O4  UNL     1      22.814   2.589  51.066  1.00  0.00    -0.355 OA
HETATM    5  C9  UNL     1      23.857   1.954  51.723  1.00  0.00     0.177 C 
HETATM    6  C10 UNL     1      23.485   1.792  53.158  1.00  0.00     0.166 C 
HETATM    7  N1  UNL     1      22.623   0.687  53.458  1.00  0.00    -0.348 N 
HETATM    8  C11 UNL     1      21.217   0.983  53.545  1.00  0.00     0.088 A 
HETATM    9  C12 UNL     1      20.420  -0.029  53.827  1.00  0.00    -0.006 A 
HETATM   10  C13 UNL     1      20.761  -1.450  54.071  1.00  0.00     0.058 A 
HETATM   11  C14 UNL     1      22.214  -1.696  53.969  1.00  0.00     0.016 A 
HETATM   12  C15 UNL     1      22.976  -0.671  53.688  1.00  0.00     0.087 A 
HETATM   13  C16 UNL     1      24.354  -0.803  53.561  1.00  0.00    -0.026 C 
HETATM   14  C17 UNL     1      25.481  -0.892  53.448  1.00  0.00     0.018 C 
HETATM   15  N2  UNL     1      26.826  -0.979  53.302  1.00  0.00    -0.309 N 
HETATM   16  C18 UNL     1      26.910   0.414  52.955  1.00  0.00     0.214 C 
HETATM   17  N3  UNL     1      26.383   0.928  51.885  1.00  0.00    -0.255 NA
HETATM   18  C19 UNL     1      26.444   2.280  51.520  1.00  0.00     0.128 C 
HETATM   19  C20 UNL     1      25.153   2.627  51.487  1.00  0.00     0.022 C 
HETATM   20  H21 UNL     1      27.376  -1.830  53.436  1.00  0.00     0.177 HD
ENDROOT
BRANCH   1  21
HETATM   21  O2  UNL     1      24.188   4.020  49.901  1.00  0.00    -0.347 OA
BRANCH  21  22
HETATM   22  C6  UNL     1      24.732   4.805  48.929  1.00  0.00     0.157 C 
HETATM   23  C2  UNL     1      23.799   5.695  48.209  1.00  0.00    -0.037 C 
HETATM   24  C1  UNL     1      22.667   5.172  47.833  1.00  0.00     0.019 C 
HETATM   25  C3  UNL     1      24.222   7.107  47.974  1.00  0.00     0.203 C 
HETATM   26  O1  UNL     1      24.533   7.715  49.176  1.00  0.00    -0.387 OA
HETATM   27  C4  UNL     1      25.195   6.896  50.062  1.00  0.00     0.171 C 
HETATM   28  C5  UNL     1      25.850   5.697  49.424  1.00  0.00     0.063 C 
ENDBRANCH  21  22
ENDBRANCH   1  21
TORSDOF 2
ENDMDL
MODEL 5
REMARK VINA RESULT:      -7.7      8.982     11.924
REMARK  2 active torsions:
REMARK  status: ('A' for Active; 'I' for Inactive)
REMARK    1  A    between atoms: C6_7  and  O2_8 
REMARK    2  A    between atoms: O2_8  and  C7_9 
ROOT
HETATM    1  C7  UNL     1      30.247   8.223  48.194  1.00  0.00     0.297 C 
HETATM    2  O3  UNL     1      31.413   8.137  48.983  1.00  0.00    -0.333 OA
HETATM    3  C8  UNL     1      31.468   6.773  49.358  1.00  0.00     0.342 C 
HETATM    4  O4  UNL     1      31.131   5.964  48.276  1.00  0.00    -0.355 OA
HETATM    5  C9  UNL     1      31.440   6.559  47.062  1.00  0.00     0.177 C 
HETATM    6  C10 UNL     1      32.917   6.750  46.989  1.00  0.00     0.166 C 
HETATM    7  N1  UNL     1      33.677   5.594  46.616  1.00  0.00    -0.348 N 
HETATM    8  C11 UNL     1      34.237   4.826  47.697  1.00  0.00     0.088 A 
HETATM    9  C12 UNL     1      34.944   3.765  47.360  1.00  0.00    -0.006 A 
HETATM   10  C13 UNL     1      35.253   3.236  46.011  1.00  0.00     0.058 A 
HETATM   11  C14 UNL     1      34.655   4.062  44.942  1.00  0.00     0.016 A 
HETATM   12  C15 UNL     1      33.960   5.106  45.311  1.00  0.00     0.087 A 
HETATM   13  C16 UNL     1      33.350   5.939  44.380  1.00  0.00    -0.026 C 
HETATM   14  C17 UNL     1      32.840   6.628  43.634  1.00  0.00     0.018 C 
HETATM   15  N2  UNL     1      32.218   7.458  42.761  1.00  0.00    -0.309 N 
HETATM   16  C18 UNL     1      31.660   8.228  43.841  1.00  0.00     0.214 C 
HETATM   17  N3  UNL     1      30.800   7.761  44.695  1.00  0.00    -0.255 NA
HETATM   18  C19 UNL     1      30.241   8.483  45.759  1.00  0.00     0.128 C 
HETATM   19  C20 UNL     1      30.640   7.779  46.823  1.00  0.00     0.022 C 
HETATM   20  H21 UNL     1      32.263   7.378  41.744  1.00  0.00     0.177 HD
ENDROOT
BRANCH   1  21
HETATM   21  O2  UNL     1      29.338   7.343  48.695  1.00  0.00    -0.347 OA
BRANCH  21  22
HETATM   22  C6  UNL     1      28.053   7.423  48.251  1.00  0.00     0.157 C 
HETATM   23  C2  UNL     1      27.151   6.326  48.656  1.00  0.00    -0.037 C 
HETATM   24  C1  UNL     1      27.623   5.116  48.559  1.00  0.00     0.019 C 
HETATM   25  C3  UNL     1      25.786   6.687  49.142  1.00  0.00     0.203 C 
HETATM   26  O1  UNL     1      25.879   7.565  50.206  1.00  0.00    -0.387 OA
HETATM   27  C4  UNL     1      26.874   8.505  50.070  1.00  0.00     0.171 C 
HETATM   28  C5  UNL     1      27.350   8.701  48.652  1.00  0.00     0.063 C 
ENDBRANCH  21  22
ENDBRANCH   1  21
TORSDOF 2
ENDMDL
MODEL 6
REMARK VINA RESULT:      -7.7      3.233      7.148
REMARK  2 active torsions:
REMARK  status: ('A' for Active; 'I' for Inactive)
REMARK    1  A    between atoms: C6_7  and  O2_8 
REMARK    2  A    between atoms: O2_8  and  C7_9 
ROOT
HETATM    1  C7  UNL     1      22.944   4.610  50.388  1.00  0.00     0.297 C 
HETATM    2  O3  UNL     1      22.114   4.797  51.514  1.00  0.00    -0.333 OA
HETATM    3  C8  UNL     1      21.061   3.873  51.315  1.00  0.00     0.342 C 
HETATM    4  O4  UNL     1      21.565   2.665  50.842  1.00  0.00    -0.355 OA
HETATM    5  C9  UNL     1      22.867   2.441  51.262  1.00  0.00     0.177 C 
HETATM    6  C10 UNL     1      22.874   2.337  52.750  1.00  0.00     0.166 C 
HETATM    7  N1  UNL     1      22.483   1.068  53.288  1.00  0.00    -0.348 N 
HETATM    8  C11 UNL     1      21.106   0.945  53.690  1.00  0.00     0.088 A 
HETATM    9  C12 UNL     1      20.741  -0.219  54.192  1.00  0.00    -0.006 A 
HETATM   10  C13 UNL     1      21.551  -1.440  54.407  1.00  0.00     0.058 A 
HETATM   11  C14 UNL     1      22.953  -1.258  53.978  1.00  0.00     0.016 A 
HETATM   12  C15 UNL     1      23.281  -0.093  53.485  1.00  0.00     0.087 A 
HETATM   13  C16 UNL     1      24.572   0.173  53.044  1.00  0.00    -0.026 C 
HETATM   14  C17 UNL     1      25.621   0.407  52.674  1.00  0.00     0.018 C 
HETATM   15  N2  UNL     1      26.863   0.703  52.221  1.00  0.00    -0.309 N 
HETATM   16  C18 UNL     1      26.435   2.013  51.807  1.00  0.00     0.214 C 
HETATM   17  N3  UNL     1      25.562   2.227  50.870  1.00  0.00    -0.255 NA
HETATM   18  C19 UNL     1      25.120   3.488  50.446  1.00  0.00     0.128 C 
HETATM   19  C20 UNL     1      23.809   3.434  50.702  1.00  0.00     0.022 C 
HETATM   20  H21 UNL     1      27.666   0.072  52.257  1.00  0.00     0.177 HD
ENDROOT
BRANCH   1  21
HETATM   21  O2  UNL     1      22.148   4.298  49.330  1.00  0.00    -0.347 OA
BRANCH  21  22
HETATM   22  C6  UNL     1      22.666   4.424  48.077  1.00  0.00     0.157 C 
HETATM   23  C2  UNL     1      22.286   3.380  47.104  1.00  0.00    -0.037 C 
HETATM   24  C1  UNL     1      22.328   2.148  47.524  1.00  0.00     0.019 C 
HETATM   25  C3  UNL     1      21.886   3.814  45.732  1.00  0.00     0.203 C 
HETATM   26  O1  UNL     1      20.840   4.714  45.807  1.00  0.00    -0.387 OA
HETATM   27  C4  UNL     1      20.942   5.605  46.851  1.00  0.00     0.171 C 
HETATM   28  C5  UNL     1      22.334   5.743  47.412  1.00  0.00     0.063 C 
ENDBRANCH  21  22
ENDBRANCH   1  21
TORSDOF 2
ENDMDL
MODEL 7
REMARK VINA RESULT:      -7.7      2.595      4.504
REMARK  2 active torsions:
REMARK  status: ('A' for Active; 'I' for Inactive)
REMARK    1  A    between atoms: C6_7  and  O2_8 
REMARK    2  A    between atoms: O2_8  and  C7_9 
ROOT
HETATM    1  C7  UNL     1      22.931   2.053  52.189  1.00  0.00     0.297 C 
HETATM    2  O3  UNL     1      22.560   3.229  52.874  1.00  0.00    -0.333 OA
HETATM    3  C8  UNL     1      23.766   3.966  52.958  1.00  0.00     0.342 C 
HETATM    4  O4  UNL     1      24.463   3.885  51.756  1.00  0.00    -0.355 OA
HETATM    5  C9  UNL     1      23.618   3.697  50.673  1.00  0.00     0.177 C 
HETATM    6  C10 UNL     1      22.728   4.887  50.554  1.00  0.00     0.166 C 
HETATM    7  N1  UNL     1      23.299   6.031  49.908  1.00  0.00    -0.348 N 
HETATM    8  C11 UNL     1      23.854   7.038  50.774  1.00  0.00     0.088 A 
HETATM    9  C12 UNL     1      24.376   8.097  50.186  1.00  0.00    -0.006 A 
HETATM   10  C13 UNL     1      24.478   8.410  48.742  1.00  0.00     0.058 A 
HETATM   11  C14 UNL     1      23.895   7.345  47.901  1.00  0.00     0.016 A 
HETATM   12  C15 UNL     1      23.386   6.309  48.516  1.00  0.00     0.087 A 
HETATM   13  C16 UNL     1      22.823   5.251  47.813  1.00  0.00    -0.026 C 
HETATM   14  C17 UNL     1      22.363   4.374  47.255  1.00  0.00     0.018 C 
HETATM   15  N2  UNL     1      21.818   3.315  46.608  1.00  0.00    -0.309 N 
HETATM   16  C18 UNL     1      21.586   2.633  47.853  1.00  0.00     0.214 C 
HETATM   17  N3  UNL     1      22.533   2.226  48.643  1.00  0.00    -0.255 NA
HETATM   18  C19 UNL     1      22.343   1.562  49.863  1.00  0.00     0.128 C 
HETATM   19  C20 UNL     1      22.917   2.396  50.736  1.00  0.00     0.022 C 
HETATM   20  H21 UNL     1      21.711   3.239  45.595  1.00  0.00     0.177 HD
ENDROOT
BRANCH   1  21
HETATM   21  O2  UNL     1      24.205   1.742  52.553  1.00  0.00    -0.347 OA
BRANCH  21  22
HETATM   22  C6  UNL     1      24.664   0.489  52.281  1.00  0.00     0.157 C 
HETATM   23  C2  UNL     1      26.131   0.327  52.227  1.00  0.00    -0.037 C 
HETATM   24  C1  UNL     1      26.795   1.238  51.574  1.00  0.00     0.019 C 
HETATM   25  C3  UNL     1      26.730  -0.854  52.917  1.00  0.00     0.203 C 
HETATM   26  O1  UNL     1      26.360  -0.861  54.249  1.00  0.00    -0.387 OA
HETATM   27  C4  UNL     1      25.058  -0.473  54.470  1.00  0.00     0.171 C 
HETATM   28  C5  UNL     1      24.172  -0.562  53.253  1.00  0.00     0.063 C 
ENDBRANCH  21  22
ENDBRANCH   1  21
TORSDOF 2
ENDMDL
MODEL 8
REMARK VINA RESULT:      -7.7      3.227      7.063
REMARK  2 active torsions:
REMARK  status: ('A' for Active; 'I' for Inactive)
REMARK    1  A    between atoms: C6_7  and  O2_8 
REMARK    2  A    between atoms: O2_8  and  C7_9 
ROOT
HETATM    1  C7  UNL     1      21.993   4.286  50.492  1.00  0.00     0.297 C 
HETATM    2  O3  UNL     1      22.924   3.652  49.643  1.00  0.00    -0.333 OA
HETATM    3  C8  UNL     1      24.175   3.929  50.245  1.00  0.00     0.342 C 
HETATM    4  O4  UNL     1      24.082   3.796  51.628  1.00  0.00    -0.355 OA
HETATM    5  C9  UNL     1      23.105   2.885  52.001  1.00  0.00     0.177 C 
HETATM    6  C10 UNL     1      23.487   1.541  51.483  1.00  0.00     0.166 C 
HETATM    7  N1  UNL     1      24.453   0.824  52.261  1.00  0.00    -0.348 N 
HETATM    8  C11 UNL     1      25.823   0.932  51.832  1.00  0.00     0.088 A 
HETATM    9  C12 UNL     1      26.716   0.269  52.540  1.00  0.00    -0.006 A 
HETATM   10  C13 UNL     1      26.516  -0.585  53.734  1.00  0.00     0.058 A 
HETATM   11  C14 UNL     1      25.095  -0.660  54.131  1.00  0.00     0.016 A 
HETATM   12  C15 UNL     1      24.236   0.009  53.406  1.00  0.00     0.087 A 
HETATM   13  C16 UNL     1      22.878   0.009  53.704  1.00  0.00    -0.026 C 
HETATM   14  C17 UNL     1      21.766   0.025  53.936  1.00  0.00     0.018 C 
HETATM   15  N2  UNL     1      20.437   0.064  54.200  1.00  0.00    -0.309 N 
HETATM   16  C18 UNL     1      20.216   0.981  53.113  1.00  0.00     0.214 C 
HETATM   17  N3  UNL     1      20.692   2.189  53.076  1.00  0.00    -0.255 NA
HETATM   18  C19 UNL     1      20.499   3.105  52.033  1.00  0.00     0.128 C 
HETATM   19  C20 UNL     1      21.749   3.339  51.621  1.00  0.00     0.022 C 
HETATM   20  H21 UNL     1      19.973  -0.450  54.951  1.00  0.00     0.177 HD
ENDROOT
BRANCH   1  21
HETATM   21  O2  UNL     1      22.576   5.412  50.984  1.00  0.00    -0.347 OA
BRANCH  21  22
HETATM   22  C6  UNL     1      21.903   6.590  50.862  1.00  0.00     0.157 C 
HETATM   23  C2  UNL     1      22.683   7.740  50.361  1.00  0.00    -0.037 C 
HETATM   24  C1  UNL     1      23.867   7.910  50.874  1.00  0.00     0.019 C 
HETATM   25  C3  UNL     1      22.058   8.605  49.316  1.00  0.00     0.203 C 
HETATM   26  O1  UNL     1      21.694   7.841  48.224  1.00  0.00    -0.387 OA
HETATM   27  C4  UNL     1      21.177   6.609  48.551  1.00  0.00     0.171 C 
HETATM   28  C5  UNL     1      20.682   6.503  49.972  1.00  0.00     0.063 C 
ENDBRANCH  21  22
ENDBRANCH   1  21
TORSDOF 2
ENDMDL
MODEL 9
REMARK VINA RESULT:      -7.6      2.813      6.828
REMARK  2 active torsions:
REMARK  status: ('A' for Active; 'I' for Inactive)
REMARK    1  A    between atoms: C6_7  and  O2_8 
REMARK    2  A    between atoms: O2_8  and  C7_9 
ROOT
HETATM    1  C7  UNL     1      23.673   3.422  49.686  1.00  0.00     0.297 C 
HETATM    2  O3  UNL     1      24.948   2.999  49.255  1.00  0.00    -0.333 OA
HETATM    3  C8  UNL     1      25.840   3.675  50.121  1.00  0.00     0.342 C 
HETATM    4  O4  UNL     1      25.351   3.656  51.424  1.00  0.00    -0.355 OA
HETATM    5  C9  UNL     1      24.555   2.547  51.668  1.00  0.00     0.177 C 
HETATM    6  C10 UNL     1      25.392   1.322  51.524  1.00  0.00     0.166 C 
HETATM    7  N1  UNL     1      26.206   0.986  52.655  1.00  0.00    -0.348 N 
HETATM    8  C11 UNL     1      27.573   1.435  52.610  1.00  0.00     0.088 A 
HETATM    9  C12 UNL     1      28.329   1.123  53.644  1.00  0.00    -0.006 A 
HETATM   10  C13 UNL     1      27.975   0.368  54.868  1.00  0.00     0.058 A 
HETATM   11  C14 UNL     1      26.563  -0.067  54.862  1.00  0.00     0.016 A 
HETATM   12  C15 UNL     1      25.842   0.258  53.821  1.00  0.00     0.087 A 
HETATM   13  C16 UNL     1      24.501  -0.097  53.725  1.00  0.00    -0.026 C 
HETATM   14  C17 UNL     1      23.403  -0.374  53.633  1.00  0.00     0.018 C 
HETATM   15  N2  UNL     1      22.090  -0.687  53.506  1.00  0.00    -0.309 N 
HETATM   16  C18 UNL     1      22.010   0.021  52.256  1.00  0.00     0.214 C 
HETATM   17  N3  UNL     1      22.169   1.304  52.138  1.00  0.00    -0.255 NA
HETATM   18  C19 UNL     1      22.100   2.023  50.936  1.00  0.00     0.128 C 
HETATM   19  C20 UNL     1      23.321   2.559  50.853  1.00  0.00     0.022 C 
HETATM   20  H21 UNL     1      21.552  -1.236  54.179  1.00  0.00     0.177 HD
ENDROOT
BRANCH   1  21
HETATM   21  O2  UNL     1      23.783   4.710  50.111  1.00  0.00    -0.347 OA
BRANCH  21  22
HETATM   22  C6  UNL     1      23.129   5.677  49.410  1.00  0.00     0.157 C 
HETATM   23  C2  UNL     1      22.357   6.653  50.205  1.00  0.00    -0.037 C 
HETATM   24  C1  UNL     1      21.622   6.170  51.166  1.00  0.00     0.019 C 
HETATM   25  C3  UNL     1      22.479   8.098  49.849  1.00  0.00     0.203 C 
HETATM   26  O1  UNL     1      23.805   8.484  49.890  1.00  0.00    -0.387 OA
HETATM   27  C4  UNL     1      24.679   7.540  49.403  1.00  0.00     0.171 C 
HETATM   28  C5  UNL     1      24.036   6.500  48.520  1.00  0.00     0.063 C 
ENDBRANCH  21  22
ENDBRANCH   1  21
TORSDOF 2
ENDMDL
