MODEL 1
REMARK VINA RESULT:      -8.5      0.000      0.000
REMARK  7 active torsions:
REMARK  status: ('A' for Active; 'I' for Inactive)
REMARK    1  A    between atoms: O1_2  and  C2_3 
REMARK    2  A    between atoms: C6_9  and  N3_10 
REMARK    3  A    between atoms: C10_14  and  O2_15 
REMARK    4  A    between atoms: C14_21  and  C15_22 
REMARK    5  A    between atoms: C15_22  and  C16_23 
REMARK    6  A    between atoms: C16_23  and  C17_24 
REMARK    7  A    between atoms: C17_24  and  N4_25 
ROOT
HETATM    1  C2  UNL     1      21.838  -0.201  52.508  1.00  0.00     0.076 A 
HETATM    2  C3  UNL     1      20.731   0.136  51.719  1.00  0.00     0.070 A 
HETATM    3  C4  UNL     1      20.745   1.327  51.008  1.00  0.00     0.074 A 
HETATM    4  N1  UNL     1      19.716   1.711  50.239  1.00  0.00    -0.241 NA
HETATM    5  C5  UNL     1      19.791   2.885  49.577  1.00  0.00     0.236 A 
HETATM    6  N2  UNL     1      20.895   3.681  49.681  1.00  0.00    -0.223 NA
HETATM    7  C6  UNL     1      21.911   3.292  50.446  1.00  0.00     0.147 A 
HETATM    8  C12 UNL     1      21.879   2.099  51.141  1.00  0.00     0.040 A 
HETATM    9  C13 UNL     1      22.988   1.821  51.895  1.00  0.00     0.027 A 
HETATM   10  C14 UNL     1      22.940   0.621  52.595  1.00  0.00    -0.024 A 
ENDROOT
BRANCH   7  11
HETATM   11  N3  UNL     1      22.976   4.266  50.438  1.00  0.00    -0.285 N 
HETATM   12  C7  UNL     1      23.907   3.974  49.382  1.00  0.00     0.098 A 
HETATM   13  C8  UNL     1      24.945   4.789  49.235  1.00  0.00     0.020 A 
HETATM   14  C9  UNL     1      25.172   5.945  50.091  1.00  0.00     0.040 A 
HETATM   15  C10 UNL     1      24.277   6.156  51.044  1.00  0.00     0.120 A 
HETATM   16  C11 UNL     1      23.073   5.370  51.360  1.00  0.00     0.311 A 
HETATM   17  F1  UNL     1      23.142   4.924  52.675  1.00  0.00    -0.192 F 
HETATM   18 CL1  UNL     1      21.676   6.481  51.259  1.00  0.00    -0.052 Cl
BRANCH  15  19
HETATM   19  O2  UNL     1      24.588   7.281  51.798  1.00  0.00    -0.359 OA
HETATM   20  H9  UNL     1      23.823   7.757  52.261  1.00  0.00     0.217 HD
ENDBRANCH  15  19
ENDBRANCH   7  11
BRANCH  10  21
HETATM   21  C15 UNL     1      24.122   0.271  53.435  1.00  0.00     0.043 C 
BRANCH  21  22
HETATM   22  C16 UNL     1      25.318   1.142  53.100  1.00  0.00     0.035 C 
BRANCH  22  23
HETATM   23  C17 UNL     1      26.335   0.243  52.473  1.00  0.00     0.273 C 
BRANCH  23  24
HETATM   24  N4  UNL     1      27.705   0.650  52.665  1.00  0.00     0.092 N 
HETATM   25  C18 UNL     1      27.626   1.986  53.273  1.00  0.00     0.298 C 
HETATM   26  C19 UNL     1      28.975   2.378  53.838  1.00  0.00     0.198 C 
HETATM   27  O3  UNL     1      29.340   1.554  54.903  1.00  0.00    -0.388 OA
HETATM   28  C20 UNL     1      28.592   0.387  54.932  1.00  0.00     0.198 C 
HETATM   29  C21 UNL     1      28.441  -0.239  53.548  1.00  0.00     0.298 C 
ENDBRANCH  23  24
ENDBRANCH  22  23
ENDBRANCH  21  22
ENDBRANCH  10  21
BRANCH   1  30
HETATM   30  O1  UNL     1      21.793  -1.400  53.209  1.00  0.00    -0.355 OA
HETATM   31  C1  UNL     1      21.158  -1.523  54.481  1.00  0.00     0.210 C 
ENDBRANCH   1  30
TORSDOF 7
ENDMDL
MODEL 2
REMARK VINA RESULT:      -8.5      2.791      5.975
REMARK  7 active torsions:
REMARK  status: ('A' for Active; 'I' for Inactive)
REMARK    1  A    between atoms: O1_2  and  C2_3 
REMARK    2  A    between atoms: C6_9  and  N3_10 
REMARK    3  A    between atoms: C10_14  and  O2_15 
REMARK    4  A    between atoms: C14_21  and  C15_22 
REMARK    5  A    between atoms: C15_22  and  C16_23 
REMARK    6  A    between atoms: C16_23  and  C17_24 
REMARK    7  A    between atoms: C17_24  and  N4_25 
ROOT
HETATM    1  C2  UNL     1      21.419   1.157  51.595  1.00  0.00     0.076 A 
HETATM    2  C3  UNL     1      21.003   0.364  52.672  1.00  0.00     0.070 A 
HETATM    3  C4  UNL     1      21.958  -0.209  53.499  1.00  0.00     0.074 A 
HETATM    4  N1  UNL     1      21.626  -0.983  54.542  1.00  0.00    -0.241 NA
HETATM    5  C5  UNL     1      22.606  -1.515  55.305  1.00  0.00     0.236 A 
HETATM    6  N2  UNL     1      23.921  -1.275  55.027  1.00  0.00    -0.223 NA
HETATM    7  C6  UNL     1      24.240  -0.506  53.990  1.00  0.00     0.147 A 
HETATM    8  C12 UNL     1      23.273   0.059  53.182  1.00  0.00     0.040 A 
HETATM    9  C13 UNL     1      23.737   0.825  52.147  1.00  0.00     0.027 A 
HETATM   10  C14 UNL     1      22.754   1.383  51.338  1.00  0.00    -0.024 A 
ENDROOT
BRANCH   7  11
HETATM   11  N3  UNL     1      25.671  -0.380  53.852  1.00  0.00    -0.285 N 
HETATM   12  C7  UNL     1      26.176  -1.404  52.978  1.00  0.00     0.098 A 
HETATM   13  C8  UNL     1      27.483  -1.418  52.739  1.00  0.00     0.020 A 
HETATM   14  C9  UNL     1      28.405  -0.453  53.322  1.00  0.00     0.040 A 
HETATM   15  C10 UNL     1      27.874   0.461  54.119  1.00  0.00     0.120 A 
HETATM   16  C11 UNL     1      26.463   0.636  54.501  1.00  0.00     0.311 A 
HETATM   17  F1  UNL     1      26.343   0.562  55.883  1.00  0.00    -0.192 F 
HETATM   18 CL1  UNL     1      25.988   2.292  54.024  1.00  0.00    -0.052 Cl
BRANCH  15  19
HETATM   19  O2  UNL     1      28.839   1.327  54.618  1.00  0.00    -0.359 OA
HETATM   20  H9  UNL     1      29.482   1.740  53.954  1.00  0.00     0.217 HD
ENDBRANCH  15  19
ENDBRANCH   7  11
BRANCH  10  21
HETATM   21  C15 UNL     1      23.206   2.224  50.192  1.00  0.00     0.043 C 
BRANCH  21  22
HETATM   22  C16 UNL     1      23.922   3.474  50.669  1.00  0.00     0.035 C 
BRANCH  22  23
HETATM   23  C17 UNL     1      25.328   3.373  50.173  1.00  0.00     0.273 C 
BRANCH  23  24
HETATM   24  N4  UNL     1      26.047   4.622  50.130  1.00  0.00     0.092 N 
HETATM   25  C18 UNL     1      26.896   4.535  48.933  1.00  0.00     0.298 C 
HETATM   26  C19 UNL     1      27.439   5.905  48.583  1.00  0.00     0.198 C 
HETATM   27  O3  UNL     1      26.419   6.774  48.199  1.00  0.00    -0.388 OA
HETATM   28  C20 UNL     1      25.171   6.310  48.587  1.00  0.00     0.198 C 
HETATM   29  C21 UNL     1      25.171   5.776  50.018  1.00  0.00     0.298 C 
ENDBRANCH  23  24
ENDBRANCH  22  23
ENDBRANCH  21  22
ENDBRANCH  10  21
BRANCH   1  30
HETATM   30  O1  UNL     1      20.439   1.717  50.785  1.00  0.00    -0.355 OA
HETATM   31  C1  UNL     1      19.260   1.006  50.404  1.00  0.00     0.210 C 
ENDBRANCH   1  30
TORSDOF 7
ENDMDL
MODEL 3
REMARK VINA RESULT:      -8.4      2.578      6.212
REMARK  7 active torsions:
REMARK  status: ('A' for Active; 'I' for Inactive)
REMARK    1  A    between atoms: O1_2  and  C2_3 
REMARK    2  A    between atoms: C6_9  and  N3_10 
REMARK    3  A    between atoms: C10_14  and  O2_15 
REMARK    4  A    between atoms: C14_21  and  C15_22 
REMARK    5  A    between atoms: C15_22  and  C16_23 
REMARK    6  A    between atoms: C16_23  and  C17_24 
REMARK    7  A    between atoms: C17_24  and  N4_25 
ROOT
HETATM    1  C2  UNL     1      21.030   0.520  51.901  1.00  0.00     0.076 A 
HETATM    2  C3  UNL     1      20.817  -0.243  53.056  1.00  0.00     0.070 A 
HETATM    3  C4  UNL     1      21.906  -0.625  53.825  1.00  0.00     0.074 A 
HETATM    4  N1  UNL     1      21.770  -1.359  54.939  1.00  0.00    -0.241 NA
HETATM    5  C5  UNL     1      22.873  -1.702  55.639  1.00  0.00     0.236 A 
HETATM    6  N2  UNL     1      24.115  -1.313  55.229  1.00  0.00    -0.223 NA
HETATM    7  C6  UNL     1      24.239  -0.584  54.124  1.00  0.00     0.147 A 
HETATM    8  C12 UNL     1      23.141  -0.210  53.375  1.00  0.00     0.040 A 
HETATM    9  C13 UNL     1      23.409   0.535  52.258  1.00  0.00     0.027 A 
HETATM   10  C14 UNL     1      22.296   0.901  51.510  1.00  0.00    -0.024 A 
ENDROOT
BRANCH   7  11
HETATM   11  N3  UNL     1      25.624  -0.282  53.849  1.00  0.00    -0.285 N 
HETATM   12  C7  UNL     1      26.183  -1.275  52.972  1.00  0.00     0.098 A 
HETATM   13  C8  UNL     1      27.454  -1.133  52.615  1.00  0.00     0.020 A 
HETATM   14  C9  UNL     1      28.287  -0.028  53.071  1.00  0.00     0.040 A 
HETATM   15  C10 UNL     1      27.710   0.850  53.877  1.00  0.00     0.120 A 
HETATM   16  C11 UNL     1      26.326   0.860  54.380  1.00  0.00     0.311 A 
HETATM   17  F1  UNL     1      26.338   0.843  55.770  1.00  0.00    -0.192 F 
HETATM   18 CL1  UNL     1      25.595   2.415  53.884  1.00  0.00    -0.052 Cl
BRANCH  15  19
HETATM   19  O2  UNL     1      28.590   1.858  54.249  1.00  0.00    -0.359 OA
HETATM   20  H9  UNL     1      29.096   1.736  55.118  1.00  0.00     0.217 HD
ENDBRANCH  15  19
ENDBRANCH   7  11
BRANCH  10  21
HETATM   21  C15 UNL     1      22.533   1.710  50.280  1.00  0.00     0.043 C 
BRANCH  21  22
HETATM   22  C16 UNL     1      23.561   2.799  50.521  1.00  0.00     0.035 C 
BRANCH  22  23
HETATM   23  C17 UNL     1      22.832   3.938  51.157  1.00  0.00     0.273 C 
BRANCH  23  24
HETATM   24  N4  UNL     1      22.776   5.141  50.365  1.00  0.00     0.092 N 
HETATM   25  C18 UNL     1      21.957   6.078  51.147  1.00  0.00     0.298 C 
HETATM   26  C19 UNL     1      22.107   7.481  50.596  1.00  0.00     0.198 C 
HETATM   27  O3  UNL     1      23.405   7.959  50.767  1.00  0.00    -0.388 OA
HETATM   28  C20 UNL     1      24.302   6.935  51.035  1.00  0.00     0.198 C 
HETATM   29  C21 UNL     1      24.086   5.725  50.130  1.00  0.00     0.298 C 
ENDBRANCH  23  24
ENDBRANCH  22  23
ENDBRANCH  21  22
ENDBRANCH  10  21
BRANCH   1  30
HETATM   30  O1  UNL     1      19.919   0.887  51.152  1.00  0.00    -0.355 OA
HETATM   31  C1  UNL     1      19.042   1.942  51.546  1.00  0.00     0.210 C 
ENDBRANCH   1  30
TORSDOF 7
ENDMDL
MODEL 4
REMARK VINA RESULT:      -8.2      2.807      5.986
REMARK  7 active torsions:
REMARK  status: ('A' for Active; 'I' for Inactive)
REMARK    1  A    between atoms: O1_2  and  C2_3 
REMARK    2  A    between atoms: C6_9  and  N3_10 
REMARK    3  A    between atoms: C10_14  and  O2_15 
REMARK    4  A    between atoms: C14_21  and  C15_22 
REMARK    5  A    between atoms: C15_22  and  C16_23 
REMARK    6  A    between atoms: C16_23  and  C17_24 
REMARK    7  A    between atoms: C17_24  and  N4_25 
ROOT
HETATM    1  C2  UNL     1      25.936   0.584  52.935  1.00  0.00     0.076 A 
HETATM    2  C3  UNL     1      26.771   1.409  52.172  1.00  0.00     0.070 A 
HETATM    3  C4  UNL     1      26.207   2.265  51.237  1.00  0.00     0.074 A 
HETATM    4  N1  UNL     1      26.951   3.077  50.473  1.00  0.00    -0.241 NA
HETATM    5  C5  UNL     1      26.338   3.881  49.578  1.00  0.00     0.236 A 
HETATM    6  N2  UNL     1      24.980   3.877  49.443  1.00  0.00    -0.223 NA
HETATM    7  C6  UNL     1      24.250   3.068  50.207  1.00  0.00     0.147 A 
HETATM    8  C12 UNL     1      24.832   2.228  51.136  1.00  0.00     0.040 A 
HETATM    9  C13 UNL     1      23.968   1.445  51.852  1.00  0.00     0.027 A 
HETATM   10  C14 UNL     1      24.567   0.600  52.780  1.00  0.00    -0.024 A 
ENDROOT
BRANCH   7  11
HETATM   11  N3  UNL     1      22.843   3.198  49.912  1.00  0.00    -0.285 N 
HETATM   12  C7  UNL     1      22.317   4.390  50.521  1.00  0.00     0.098 A 
HETATM   13  C8  UNL     1      21.030   4.658  50.333  1.00  0.00     0.020 A 
HETATM   14  C9  UNL     1      20.148   3.804  49.551  1.00  0.00     0.040 A 
HETATM   15  C10 UNL     1      20.696   2.722  49.020  1.00  0.00     0.120 A 
HETATM   16  C11 UNL     1      22.091   2.260  49.116  1.00  0.00     0.311 A 
HETATM   17  F1  UNL     1      22.121   0.987  49.673  1.00  0.00    -0.192 F 
HETATM   18 CL1  UNL     1      22.715   2.113  47.447  1.00  0.00    -0.052 Cl
BRANCH  15  19
HETATM   19  O2  UNL     1      19.770   1.981  48.296  1.00  0.00    -0.359 OA
HETATM   20  H9  UNL     1      19.540   1.057  48.641  1.00  0.00     0.217 HD
ENDBRANCH  15  19
ENDBRANCH   7  11
BRANCH  10  21
HETATM   21  C15 UNL     1      23.669  -0.279  53.585  1.00  0.00     0.043 C 
BRANCH  21  22
HETATM   22  C16 UNL     1      22.368  -0.558  52.858  1.00  0.00     0.035 C 
BRANCH  22  23
HETATM   23  C17 UNL     1      21.324  -0.745  53.911  1.00  0.00     0.273 C 
BRANCH  23  24
HETATM   24  N4  UNL     1      20.160   0.093  53.767  1.00  0.00     0.092 N 
HETATM   25  C18 UNL     1      20.572   1.168  52.853  1.00  0.00     0.298 C 
HETATM   26  C19 UNL     1      19.354   1.915  52.351  1.00  0.00     0.198 C 
HETATM   27  O3  UNL     1      18.549   1.100  51.556  1.00  0.00    -0.388 OA
HETATM   28  C20 UNL     1      18.843  -0.244  51.731  1.00  0.00     0.198 C 
HETATM   29  C21 UNL     1      19.021  -0.612  53.202  1.00  0.00     0.298 C 
ENDBRANCH  23  24
ENDBRANCH  22  23
ENDBRANCH  21  22
ENDBRANCH  10  21
BRANCH   1  30
HETATM   30  O1  UNL     1      26.532  -0.262  53.863  1.00  0.00    -0.355 OA
HETATM   31  C1  UNL     1      27.551   0.179  54.760  1.00  0.00     0.210 C 
ENDBRANCH   1  30
TORSDOF 7
ENDMDL
MODEL 5
REMARK VINA RESULT:      -8.0      2.778      5.840
REMARK  7 active torsions:
REMARK  status: ('A' for Active; 'I' for Inactive)
REMARK    1  A    between atoms: O1_2  and  C2_3 
REMARK    2  A    between atoms: C6_9  and  N3_10 
REMARK    3  A    between atoms: C10_14  and  O2_15 
REMARK    4  A    between atoms: C14_21  and  C15_22 
REMARK    5  A    between atoms: C15_22  and  C16_23 
REMARK    6  A    between atoms: C16_23  and  C17_24 
REMARK    7  A    between atoms: C17_24  and  N4_25 
ROOT
HETATM    1  C2  UNL     1      25.380   0.398  53.100  1.00  0.00     0.076 A 
HETATM    2  C3  UNL     1      24.605  -0.456  53.894  1.00  0.00     0.070 A 
HETATM    3  C4  UNL     1      23.223  -0.408  53.790  1.00  0.00     0.074 A 
HETATM    4  N1  UNL     1      22.424  -1.195  54.525  1.00  0.00    -0.241 NA
HETATM    5  C5  UNL     1      21.085  -1.093  54.378  1.00  0.00     0.236 A 
HETATM    6  N2  UNL     1      20.540  -0.206  53.497  1.00  0.00    -0.223 NA
HETATM    7  C6  UNL     1      21.340   0.570  52.771  1.00  0.00     0.147 A 
HETATM    8  C12 UNL     1      22.715   0.502  52.887  1.00  0.00     0.040 A 
HETATM    9  C13 UNL     1      23.421   1.359  52.086  1.00  0.00     0.027 A 
HETATM   10  C14 UNL     1      24.804   1.285  52.217  1.00  0.00    -0.024 A 
ENDROOT
BRANCH   7  11
HETATM   11  N3  UNL     1      20.582   1.445  51.909  1.00  0.00    -0.285 N 
HETATM   12  C7  UNL     1      20.434   2.737  52.523  1.00  0.00     0.098 A 
HETATM   13  C8  UNL     1      19.765   3.664  51.847  1.00  0.00     0.020 A 
HETATM   14  C9  UNL     1      19.184   3.423  50.533  1.00  0.00     0.040 A 
HETATM   15  C10 UNL     1      19.356   2.212  50.028  1.00  0.00     0.120 A 
HETATM   16  C11 UNL     1      20.061   1.063  50.620  1.00  0.00     0.311 A 
HETATM   17  F1  UNL     1      19.187  -0.012  50.728  1.00  0.00    -0.192 F 
HETATM   18 CL1  UNL     1      21.343   0.580  49.471  1.00  0.00    -0.052 Cl
BRANCH  15  19
HETATM   19  O2  UNL     1      18.765   2.091  48.776  1.00  0.00    -0.359 OA
HETATM   20  H9  UNL     1      18.248   2.888  48.427  1.00  0.00     0.217 HD
ENDBRANCH  15  19
ENDBRANCH   7  11
BRANCH  10  21
HETATM   21  C15 UNL     1      25.621   2.201  51.369  1.00  0.00     0.043 C 
BRANCH  21  22
HETATM   22  C16 UNL     1      24.763   2.932  50.354  1.00  0.00     0.035 C 
BRANCH  22  23
HETATM   23  C17 UNL     1      25.278   4.333  50.293  1.00  0.00     0.273 C 
BRANCH  23  24
HETATM   24  N4  UNL     1      24.505   5.297  51.038  1.00  0.00     0.092 N 
HETATM   25  C18 UNL     1      24.837   6.598  50.440  1.00  0.00     0.298 C 
HETATM   26  C19 UNL     1      23.842   7.645  50.895  1.00  0.00     0.198 C 
HETATM   27  O3  UNL     1      22.563   7.377  50.409  1.00  0.00    -0.388 OA
HETATM   28  C20 UNL     1      22.441   6.067  49.970  1.00  0.00     0.198 C 
HETATM   29  C21 UNL     1      23.073   5.071  50.939  1.00  0.00     0.298 C 
ENDBRANCH  23  24
ENDBRANCH  22  23
ENDBRANCH  21  22
ENDBRANCH  10  21
BRANCH   1  30
HETATM   30  O1  UNL     1      26.762   0.327  53.228  1.00  0.00    -0.355 OA
HETATM   31  C1  UNL     1      27.414   0.284  54.498  1.00  0.00     0.210 C 
ENDBRANCH   1  30
TORSDOF 7
ENDMDL
MODEL 6
REMARK VINA RESULT:      -7.8      1.713      2.298
REMARK  7 active torsions:
REMARK  status: ('A' for Active; 'I' for Inactive)
REMARK    1  A    between atoms: O1_2  and  C2_3 
REMARK    2  A    between atoms: C6_9  and  N3_10 
REMARK    3  A    between atoms: C10_14  and  O2_15 
REMARK    4  A    between atoms: C14_21  and  C15_22 
REMARK    5  A    between atoms: C15_22  and  C16_23 
REMARK    6  A    between atoms: C16_23  and  C17_24 
REMARK    7  A    between atoms: C17_24  and  N4_25 
ROOT
HETATM    1  C2  UNL     1      23.499   1.355  52.886  1.00  0.00     0.076 A 
HETATM    2  C3  UNL     1      22.319   1.504  52.147  1.00  0.00     0.070 A 
HETATM    3  C4  UNL     1      22.205   2.568  51.263  1.00  0.00     0.074 A 
HETATM    4  N1  UNL     1      21.101   2.770  50.530  1.00  0.00    -0.241 NA
HETATM    5  C5  UNL     1      21.053   3.828  49.692  1.00  0.00     0.236 A 
HETATM    6  N2  UNL     1      22.107   4.688  49.585  1.00  0.00    -0.223 NA
HETATM    7  C6  UNL     1      23.198   4.478  50.316  1.00  0.00     0.147 A 
HETATM    8  C12 UNL     1      23.293   3.410  51.186  1.00  0.00     0.040 A 
HETATM    9  C13 UNL     1      24.469   3.313  51.881  1.00  0.00     0.027 A 
HETATM   10  C14 UNL     1      24.550   2.237  52.757  1.00  0.00    -0.024 A 
ENDROOT
BRANCH   7  11
HETATM   11  N3  UNL     1      24.195   5.494  50.073  1.00  0.00    -0.285 N 
HETATM   12  C7  UNL     1      25.134   5.041  49.083  1.00  0.00     0.098 A 
HETATM   13  C8  UNL     1      26.112   5.870  48.740  1.00  0.00     0.020 A 
HETATM   14  C9  UNL     1      26.268   7.197  49.321  1.00  0.00     0.040 A 
HETATM   15  C10 UNL     1      25.370   7.550  50.228  1.00  0.00     0.120 A 
HETATM   16  C11 UNL     1      24.224   6.775  50.734  1.00  0.00     0.311 A 
HETATM   17  F1  UNL     1      24.336   6.630  52.112  1.00  0.00    -0.192 F 
HETATM   18 CL1  UNL     1      22.754   7.746  50.430  1.00  0.00    -0.052 Cl
BRANCH  15  19
HETATM   19  O2  UNL     1      25.610   8.829  50.715  1.00  0.00    -0.359 OA
HETATM   20  H9  UNL     1      26.527   9.015  51.102  1.00  0.00     0.217 HD
ENDBRANCH  15  19
ENDBRANCH   7  11
BRANCH  10  21
HETATM   21  C15 UNL     1      25.808   2.087  53.544  1.00  0.00     0.043 C 
BRANCH  21  22
HETATM   22  C16 UNL     1      27.032   2.151  52.649  1.00  0.00     0.035 C 
BRANCH  22  23
HETATM   23  C17 UNL     1      28.122   1.423  53.368  1.00  0.00     0.273 C 
BRANCH  23  24
HETATM   24  N4  UNL     1      27.780   0.089  53.797  1.00  0.00     0.092 N 
HETATM   25  C18 UNL     1      27.353  -0.609  52.576  1.00  0.00     0.298 C 
HETATM   26  C19 UNL     1      27.298  -2.101  52.825  1.00  0.00     0.198 C 
HETATM   27  O3  UNL     1      28.567  -2.623  53.075  1.00  0.00    -0.388 OA
HETATM   28  C20 UNL     1      29.478  -1.630  53.403  1.00  0.00     0.198 C 
HETATM   29  C21 UNL     1      28.901  -0.619  54.391  1.00  0.00     0.298 C 
ENDBRANCH  23  24
ENDBRANCH  22  23
ENDBRANCH  21  22
ENDBRANCH  10  21
BRANCH   1  30
HETATM   30  O1  UNL     1      23.583   0.279  53.763  1.00  0.00    -0.355 OA
HETATM   31  C1  UNL     1      22.724  -0.857  53.668  1.00  0.00     0.210 C 
ENDBRANCH   1  30
TORSDOF 7
ENDMDL
MODEL 7
REMARK VINA RESULT:      -7.6      2.387      5.974
REMARK  7 active torsions:
REMARK  status: ('A' for Active; 'I' for Inactive)
REMARK    1  A    between atoms: O1_2  and  C2_3 
REMARK    2  A    between atoms: C6_9  and  N3_10 
REMARK    3  A    between atoms: C10_14  and  O2_15 
REMARK    4  A    between atoms: C14_21  and  C15_22 
REMARK    5  A    between atoms: C15_22  and  C16_23 
REMARK    6  A    between atoms: C16_23  and  C17_24 
REMARK    7  A    between atoms: C17_24  and  N4_25 
ROOT
HETATM    1  C2  UNL     1      26.689   1.800  52.205  1.00  0.00     0.076 A 
HETATM    2  C3  UNL     1      26.066   0.864  53.040  1.00  0.00     0.070 A 
HETATM    3  C4  UNL     1      24.706   0.632  52.900  1.00  0.00     0.074 A 
HETATM    4  N1  UNL     1      24.049  -0.247  53.671  1.00  0.00    -0.241 NA
HETATM    5  C5  UNL     1      22.723  -0.422  53.486  1.00  0.00     0.236 A 
HETATM    6  N2  UNL     1      22.048   0.281  52.529  1.00  0.00    -0.223 NA
HETATM    7  C6  UNL     1      22.709   1.149  51.769  1.00  0.00     0.147 A 
HETATM    8  C12 UNL     1      24.064   1.362  51.922  1.00  0.00     0.040 A 
HETATM    9  C13 UNL     1      24.620   2.286  51.079  1.00  0.00     0.027 A 
HETATM   10  C14 UNL     1      25.984   2.495  51.247  1.00  0.00    -0.024 A 
ENDROOT
BRANCH   7  11
HETATM   11  N3  UNL     1      21.827   1.799  50.829  1.00  0.00    -0.285 N 
HETATM   12  C7  UNL     1      21.735   1.026  49.620  1.00  0.00     0.098 A 
HETATM   13  C8  UNL     1      20.949   1.488  48.654  1.00  0.00     0.020 A 
HETATM   14  C9  UNL     1      20.193   2.727  48.772  1.00  0.00     0.040 A 
HETATM   15  C10 UNL     1      20.325   3.390  49.910  1.00  0.00     0.120 A 
HETATM   16  C11 UNL     1      21.141   3.041  51.085  1.00  0.00     0.311 A 
HETATM   17  F1  UNL     1      22.040   4.069  51.347  1.00  0.00    -0.192 F 
HETATM   18 CL1  UNL     1      20.036   2.946  52.487  1.00  0.00    -0.052 Cl
BRANCH  15  19
HETATM   19  O2  UNL     1      19.563   4.552  49.916  1.00  0.00    -0.359 OA
HETATM   20  H9  UNL     1      20.042   5.422  50.115  1.00  0.00     0.217 HD
ENDBRANCH  15  19
ENDBRANCH   7  11
BRANCH  10  21
HETATM   21  C15 UNL     1      26.639   3.496  50.355  1.00  0.00     0.043 C 
BRANCH  21  22
HETATM   22  C16 UNL     1      25.632   4.165  49.439  1.00  0.00     0.035 C 
BRANCH  22  23
HETATM   23  C17 UNL     1      25.817   5.639  49.609  1.00  0.00     0.273 C 
BRANCH  23  24
HETATM   24  N4  UNL     1      24.760   6.451  49.060  1.00  0.00     0.092 N 
HETATM   25  C18 UNL     1      23.643   5.523  48.833  1.00  0.00     0.298 C 
HETATM   26  C19 UNL     1      22.367   6.300  48.586  1.00  0.00     0.198 C 
HETATM   27  O3  UNL     1      21.977   7.012  49.719  1.00  0.00    -0.388 OA
HETATM   28  C20 UNL     1      23.013   7.139  50.632  1.00  0.00     0.198 C 
HETATM   29  C21 UNL     1      24.334   7.509  49.960  1.00  0.00     0.298 C 
ENDBRANCH  23  24
ENDBRANCH  22  23
ENDBRANCH  21  22
ENDBRANCH  10  21
BRANCH   1  30
HETATM   30  O1  UNL     1      28.053   2.010  52.371  1.00  0.00    -0.355 OA
HETATM   31  C1  UNL     1      28.621   2.414  53.616  1.00  0.00     0.210 C 
ENDBRANCH   1  30
TORSDOF 7
ENDMDL
MODEL 8
REMARK VINA RESULT:      -7.6      3.297      4.439
REMARK  7 active torsions:
REMARK  status: ('A' for Active; 'I' for Inactive)
REMARK    1  A    between atoms: O1_2  and  C2_3 
REMARK    2  A    between atoms: C6_9  and  N3_10 
REMARK    3  A    between atoms: C10_14  and  O2_15 
REMARK    4  A    between atoms: C14_21  and  C15_22 
REMARK    5  A    between atoms: C15_22  and  C16_23 
REMARK    6  A    between atoms: C16_23  and  C17_24 
REMARK    7  A    between atoms: C17_24  and  N4_25 
ROOT
HETATM    1  C2  UNL     1      23.004   2.972  49.384  1.00  0.00     0.076 A 
HETATM    2  C3  UNL     1      22.385   3.591  48.290  1.00  0.00     0.070 A 
HETATM    3  C4  UNL     1      22.855   4.821  47.854  1.00  0.00     0.074 A 
HETATM    4  N1  UNL     1      22.305   5.468  46.817  1.00  0.00    -0.241 NA
HETATM    5  C5  UNL     1      22.807   6.666  46.447  1.00  0.00     0.236 A 
HETATM    6  N2  UNL     1      23.862   7.221  47.112  1.00  0.00    -0.223 NA
HETATM    7  C6  UNL     1      24.403   6.571  48.139  1.00  0.00     0.147 A 
HETATM    8  C12 UNL     1      23.922   5.344  48.553  1.00  0.00     0.040 A 
HETATM    9  C13 UNL     1      24.565   4.786  49.625  1.00  0.00     0.027 A 
HETATM   10  C14 UNL     1      24.069   3.554  50.036  1.00  0.00    -0.024 A 
ENDROOT
BRANCH   7  11
HETATM   11  N3  UNL     1      25.494   7.319  48.717  1.00  0.00    -0.285 N 
HETATM   12  C7  UNL     1      25.000   8.207  49.734  1.00  0.00     0.098 A 
HETATM   13  C8  UNL     1      25.887   8.963  50.372  1.00  0.00     0.020 A 
HETATM   14  C9  UNL     1      27.314   8.925  50.082  1.00  0.00     0.040 A 
HETATM   15  C10 UNL     1      27.700   8.086  49.133  1.00  0.00     0.120 A 
HETATM   16  C11 UNL     1      26.873   7.177  48.322  1.00  0.00     0.311 A 
HETATM   17  F1  UNL     1      27.045   7.471  46.975  1.00  0.00    -0.192 F 
HETATM   18 CL1  UNL     1      27.500   5.522  48.579  1.00  0.00    -0.052 Cl
BRANCH  15  19
HETATM   19  O2  UNL     1      29.075   8.130  48.940  1.00  0.00    -0.359 OA
HETATM   20  H9  UNL     1      29.534   9.024  49.063  1.00  0.00     0.217 HD
ENDBRANCH  15  19
ENDBRANCH   7  11
BRANCH  10  21
HETATM   21  C15 UNL     1      24.731   2.904  51.204  1.00  0.00     0.043 C 
BRANCH  21  22
HETATM   22  C16 UNL     1      26.112   2.391  50.843  1.00  0.00     0.035 C 
BRANCH  22  23
HETATM   23  C17 UNL     1      26.896   2.350  52.115  1.00  0.00     0.273 C 
BRANCH  23  24
HETATM   24  N4  UNL     1      27.326   1.035  52.521  1.00  0.00     0.092 N 
HETATM   25  C18 UNL     1      28.501   1.263  53.374  1.00  0.00     0.298 C 
HETATM   26  C19 UNL     1      28.838   0.000  54.139  1.00  0.00     0.198 C 
HETATM   27  O3  UNL     1      27.832  -0.328  55.047  1.00  0.00    -0.388 OA
HETATM   28  C20 UNL     1      26.646   0.333  54.766  1.00  0.00     0.198 C 
HETATM   29  C21 UNL     1      26.313   0.317  53.276  1.00  0.00     0.298 C 
ENDBRANCH  23  24
ENDBRANCH  22  23
ENDBRANCH  21  22
ENDBRANCH  10  21
BRANCH   1  30
HETATM   30  O1  UNL     1      22.510   1.741  49.797  1.00  0.00    -0.355 OA
HETATM   31  C1  UNL     1      21.548   1.006  49.039  1.00  0.00     0.210 C 
ENDBRANCH   1  30
TORSDOF 7
ENDMDL
MODEL 9
REMARK VINA RESULT:      -7.3      3.070      6.205
REMARK  7 active torsions:
REMARK  status: ('A' for Active; 'I' for Inactive)
REMARK    1  A    between atoms: O1_2  and  C2_3 
REMARK    2  A    between atoms: C6_9  and  N3_10 
REMARK    3  A    between atoms: C10_14  and  O2_15 
REMARK    4  A    between atoms: C14_21  and  C15_22 
REMARK    5  A    between atoms: C15_22  and  C16_23 
REMARK    6  A    between atoms: C16_23  and  C17_24 
REMARK    7  A    between atoms: C17_24  and  N4_25 
ROOT
HETATM    1  C2  UNL     1      26.201   2.212  51.705  1.00  0.00     0.076 A 
HETATM    2  C3  UNL     1      25.538   1.287  52.520  1.00  0.00     0.070 A 
HETATM    3  C4  UNL     1      24.167   1.124  52.383  1.00  0.00     0.074 A 
HETATM    4  N1  UNL     1      23.473   0.259  53.136  1.00  0.00    -0.241 NA
HETATM    5  C5  UNL     1      22.139   0.153  52.955  1.00  0.00     0.236 A 
HETATM    6  N2  UNL     1      21.494   0.910  52.022  1.00  0.00    -0.223 NA
HETATM    7  C6  UNL     1      22.191   1.765  51.279  1.00  0.00     0.147 A 
HETATM    8  C12 UNL     1      23.557   1.908  51.428  1.00  0.00     0.040 A 
HETATM    9  C13 UNL     1      24.151   2.826  50.604  1.00  0.00     0.027 A 
HETATM   10  C14 UNL     1      25.525   2.964  50.768  1.00  0.00    -0.024 A 
ENDROOT
BRANCH   7  11
HETATM   11  N3  UNL     1      21.337   2.480  50.361  1.00  0.00    -0.285 N 
HETATM   12  C7  UNL     1      21.003   3.771  50.898  1.00  0.00     0.098 A 
HETATM   13  C8  UNL     1      20.226   4.560  50.165  1.00  0.00     0.020 A 
HETATM   14  C9  UNL     1      19.709   4.171  48.860  1.00  0.00     0.040 A 
HETATM   15  C10 UNL     1      20.053   2.968  48.425  1.00  0.00     0.120 A 
HETATM   16  C11 UNL     1      20.897   1.961  49.090  1.00  0.00     0.311 A 
HETATM   17  F1  UNL     1      20.176   0.783  49.248  1.00  0.00    -0.192 F 
HETATM   18 CL1  UNL     1      22.254   1.596  47.984  1.00  0.00    -0.052 Cl
BRANCH  15  19
HETATM   19  O2  UNL     1      19.508   2.700  47.176  1.00  0.00    -0.359 OA
HETATM   20  H9  UNL     1      19.111   1.780  47.029  1.00  0.00     0.217 HD
ENDBRANCH  15  19
ENDBRANCH   7  11
BRANCH  10  21
HETATM   21  C15 UNL     1      26.223   3.955  49.898  1.00  0.00     0.043 C 
BRANCH  21  22
HETATM   22  C16 UNL     1      25.248   4.952  49.302  1.00  0.00     0.035 C 
BRANCH  22  23
HETATM   23  C17 UNL     1      25.490   6.252  49.999  1.00  0.00     0.273 C 
BRANCH  23  24
HETATM   24  N4  UNL     1      25.811   7.356  49.130  1.00  0.00     0.092 N 
HETATM   25  C18 UNL     1      24.875   8.425  49.506  1.00  0.00     0.298 C 
HETATM   26  C19 UNL     1      25.329   9.743  48.914  1.00  0.00     0.198 C 
HETATM   27  O3  UNL     1      26.540  10.159  49.465  1.00  0.00    -0.388 OA
HETATM   28  C20 UNL     1      27.198   9.121  50.108  1.00  0.00     0.198 C 
HETATM   29  C21 UNL     1      27.176   7.829  49.295  1.00  0.00     0.298 C 
ENDBRANCH  23  24
ENDBRANCH  22  23
ENDBRANCH  21  22
ENDBRANCH  10  21
BRANCH   1  30
HETATM   30  O1  UNL     1      27.574   2.353  51.867  1.00  0.00    -0.355 OA
HETATM   31  C1  UNL     1      28.216   2.213  53.134  1.00  0.00     0.210 C 
ENDBRANCH   1  30
TORSDOF 7
ENDMDL
