MODEL 1
REMARK VINA RESULT:      -7.1      0.000      0.000
REMARK  9 active torsions:
REMARK  status: ('A' for Active; 'I' for Inactive)
REMARK    1  A    between atoms: C2_2  and  C3_3 
REMARK    2  A    between atoms: C3_3  and  C4_4 
REMARK    3  A    between atoms: C4_4  and  C5_5 
REMARK    4  A    between atoms: C5_5  and  N1_6 
REMARK    5  A    between atoms: N1_6  and  C6_7 
REMARK    6  A    between atoms: N1_6  and  C13_16 
REMARK    7  A    between atoms: C6_7  and  N2_9 
REMARK    8  A    between atoms: N2_9  and  C7_10 
REMARK    9  A    between atoms: C18_21  and  O1_22 
ROOT
HETATM    1  N1  UNL     1      26.257   1.703  51.655  1.00  0.00    -0.344 N 
ENDROOT
BRANCH   1   2
HETATM    2  C5  UNL     1      26.545   2.439  50.410  1.00  0.00     0.126 C 
BRANCH   2   3
HETATM    3  C4  UNL     1      25.401   3.257  49.922  1.00  0.00     0.020 C 
BRANCH   3   4
HETATM    4  C3  UNL     1      25.928   4.649  49.566  1.00  0.00     0.001 C 
BRANCH   4   5
HETATM    5  C2  UNL     1      27.280   4.564  48.891  1.00  0.00    -0.004 C 
HETATM    6  C1  UNL     1      27.700   5.925  48.390  1.00  0.00     0.005 C 
ENDBRANCH   4   5
ENDBRANCH   3   4
ENDBRANCH   2   3
ENDBRANCH   1   2
BRANCH   1   7
HETATM    7  C6  UNL     1      25.006   1.742  52.329  1.00  0.00     0.175 C 
HETATM    8  S1  UNL     1      24.818   2.944  53.415  1.00  0.00    -0.041 SA
BRANCH   7   9
HETATM    9  N2  UNL     1      23.929   0.858  52.097  1.00  0.00    -0.333 N 
HETATM   10  H12 UNL     1      23.812   0.707  51.074  1.00  0.00     0.168 HD
BRANCH   9  11
HETATM   11  C7  UNL     1      23.017   0.162  52.898  1.00  0.00     0.034 A 
HETATM   12  C8  UNL     1      23.470  -0.512  54.030  1.00  0.00     0.029 A 
HETATM   13  C9  UNL     1      22.628  -1.209  54.856  1.00  0.00     0.002 A 
HETATM   14  C10 UNL     1      21.296  -1.248  54.567  1.00  0.00     0.000 A 
HETATM   15  C11 UNL     1      20.758  -0.622  53.484  1.00  0.00     0.002 A 
HETATM   16  C12 UNL     1      21.657   0.056  52.702  1.00  0.00     0.029 A 
ENDBRANCH   9  11
ENDBRANCH   7   9
ENDBRANCH   1   7
BRANCH   1  17
HETATM   17  C13 UNL     1      27.393   0.953  52.111  1.00  0.00     0.172 A 
HETATM   18  C14 UNL     1      27.118  -0.276  52.855  1.00  0.00    -0.055 A 
HETATM   19  C15 UNL     1      26.447  -1.505  52.291  1.00  0.00     0.046 C 
HETATM   20  C16 UNL     1      27.571  -0.243  54.120  1.00  0.00     0.007 A 
HETATM   21  C17 UNL     1      28.204   1.076  54.282  1.00  0.00     0.035 A 
HETATM   22  C18 UNL     1      28.123   1.787  53.154  1.00  0.00     0.070 A 
BRANCH  22  23
HETATM   23  O1  UNL     1      28.674   3.065  53.119  1.00  0.00    -0.362 OA
HETATM   24  H24 UNL     1      28.801   3.597  52.259  1.00  0.00     0.217 HD
ENDBRANCH  22  23
ENDBRANCH   1  17
TORSDOF 9
ENDMDL
MODEL 2
REMARK VINA RESULT:      -7.1      1.012      5.895
REMARK  9 active torsions:
REMARK  status: ('A' for Active; 'I' for Inactive)
REMARK    1  A    between atoms: C2_2  and  C3_3 
REMARK    2  A    between atoms: C3_3  and  C4_4 
REMARK    3  A    between atoms: C4_4  and  C5_5 
REMARK    4  A    between atoms: C5_5  and  N1_6 
REMARK    5  A    between atoms: N1_6  and  C6_7 
REMARK    6  A    between atoms: N1_6  and  C13_16 
REMARK    7  A    between atoms: C6_7  and  N2_9 
REMARK    8  A    between atoms: N2_9  and  C7_10 
REMARK    9  A    between atoms: C18_21  and  O1_22 
ROOT
HETATM    1  N1  UNL     1      25.728   1.067  52.648  1.00  0.00    -0.344 N 
ENDROOT
BRANCH   1   2
HETATM    2  C5  UNL     1      25.132   0.217  53.695  1.00  0.00     0.126 C 
BRANCH   2   3
HETATM    3  C4  UNL     1      23.849  -0.420  53.288  1.00  0.00     0.020 C 
BRANCH   3   4
HETATM    4  C3  UNL     1      23.139  -0.911  54.552  1.00  0.00     0.001 C 
BRANCH   4   5
HETATM    5  C2  UNL     1      21.662  -1.126  54.297  1.00  0.00    -0.004 C 
HETATM    6  C1  UNL     1      20.882   0.111  54.674  1.00  0.00     0.005 C 
ENDBRANCH   4   5
ENDBRANCH   3   4
ENDBRANCH   2   3
ENDBRANCH   1   2
BRANCH   1   7
HETATM    7  C6  UNL     1      25.079   2.195  52.076  1.00  0.00     0.175 C 
HETATM    8  S1  UNL     1      24.222   3.124  53.107  1.00  0.00    -0.041 SA
BRANCH   7   9
HETATM    9  N2  UNL     1      25.159   2.578  50.719  1.00  0.00    -0.333 N 
HETATM   10  H12 UNL     1      24.681   1.870  50.124  1.00  0.00     0.168 HD
BRANCH   9  11
HETATM   11  C7  UNL     1      25.711   3.655  50.015  1.00  0.00     0.034 A 
HETATM   12  C8  UNL     1      24.981   4.833  49.876  1.00  0.00     0.029 A 
HETATM   13  C9  UNL     1      25.465   5.922  49.201  1.00  0.00     0.002 A 
HETATM   14  C10 UNL     1      26.709   5.858  48.643  1.00  0.00     0.000 A 
HETATM   15  C11 UNL     1      27.498   4.752  48.725  1.00  0.00     0.002 A 
HETATM   16  C12 UNL     1      26.951   3.700  49.414  1.00  0.00     0.029 A 
ENDBRANCH   9  11
ENDBRANCH   7   9
ENDBRANCH   1   7
BRANCH   1  17
HETATM   17  C13 UNL     1      27.034   0.610  52.265  1.00  0.00     0.172 A 
HETATM   18  C14 UNL     1      27.441  -0.709  52.750  1.00  0.00    -0.055 A 
HETATM   19  C15 UNL     1      26.795  -2.017  52.364  1.00  0.00     0.046 C 
HETATM   20  C16 UNL     1      28.510  -0.669  53.564  1.00  0.00     0.007 A 
HETATM   21  C17 UNL     1      28.885   0.752  53.658  1.00  0.00     0.035 A 
HETATM   22  C18 UNL     1      28.065   1.513  52.928  1.00  0.00     0.070 A 
BRANCH  22  23
HETATM   23  O1  UNL     1      28.270   2.889  52.895  1.00  0.00    -0.362 OA
HETATM   24  H24 UNL     1      27.514   3.570  52.955  1.00  0.00     0.217 HD
ENDBRANCH  22  23
ENDBRANCH   1  17
TORSDOF 9
ENDMDL
MODEL 3
REMARK VINA RESULT:      -7.0      2.477      5.027
REMARK  9 active torsions:
REMARK  status: ('A' for Active; 'I' for Inactive)
REMARK    1  A    between atoms: C2_2  and  C3_3 
REMARK    2  A    between atoms: C3_3  and  C4_4 
REMARK    3  A    between atoms: C4_4  and  C5_5 
REMARK    4  A    between atoms: C5_5  and  N1_6 
REMARK    5  A    between atoms: N1_6  and  C6_7 
REMARK    6  A    between atoms: N1_6  and  C13_16 
REMARK    7  A    between atoms: C6_7  and  N2_9 
REMARK    8  A    between atoms: N2_9  and  C7_10 
REMARK    9  A    between atoms: C18_21  and  O1_22 
ROOT
HETATM    1  N1  UNL     1      24.632   2.505  52.371  1.00  0.00    -0.344 N 
ENDROOT
BRANCH   1   2
HETATM    2  C5  UNL     1      25.718   3.211  51.667  1.00  0.00     0.126 C 
BRANCH   2   3
HETATM    3  C4  UNL     1      26.443   2.361  50.683  1.00  0.00     0.020 C 
BRANCH   3   4
HETATM    4  C3  UNL     1      26.525   3.126  49.360  1.00  0.00     0.001 C 
BRANCH   4   5
HETATM    5  C2  UNL     1      26.385   4.617  49.584  1.00  0.00    -0.004 C 
HETATM    6  C1  UNL     1      27.265   5.374  48.618  1.00  0.00     0.005 C 
ENDBRANCH   4   5
ENDBRANCH   3   4
ENDBRANCH   2   3
ENDBRANCH   1   2
BRANCH   1   7
HETATM    7  C6  UNL     1      24.826   1.346  53.171  1.00  0.00     0.175 C 
HETATM    8  S1  UNL     1      23.639   0.229  53.109  1.00  0.00    -0.041 SA
BRANCH   7   9
HETATM    9  N2  UNL     1      25.965   1.086  53.963  1.00  0.00    -0.333 N 
HETATM   10  H12 UNL     1      25.839   1.502  54.909  1.00  0.00     0.168 HD
BRANCH   9  11
HETATM   11  C7  UNL     1      27.181   0.418  53.777  1.00  0.00     0.034 A 
HETATM   12  C8  UNL     1      27.182  -0.886  53.285  1.00  0.00     0.029 A 
HETATM   13  C9  UNL     1      28.337  -1.592  53.079  1.00  0.00     0.002 A 
HETATM   14  C10 UNL     1      29.535  -1.004  53.361  1.00  0.00     0.000 A 
HETATM   15  C11 UNL     1      29.637   0.265  53.845  1.00  0.00     0.002 A 
HETATM   16  C12 UNL     1      28.443   0.913  54.028  1.00  0.00     0.029 A 
ENDBRANCH   9  11
ENDBRANCH   7   9
ENDBRANCH   1   7
BRANCH   1  17
HETATM   17  C13 UNL     1      23.355   3.119  52.141  1.00  0.00     0.172 A 
HETATM   18  C14 UNL     1      22.894   3.184  50.754  1.00  0.00    -0.055 A 
HETATM   19  C15 UNL     1      22.554   1.993  49.891  1.00  0.00     0.046 C 
HETATM   20  C16 UNL     1      22.744   4.441  50.302  1.00  0.00     0.007 A 
HETATM   21  C17 UNL     1      23.114   5.315  51.428  1.00  0.00     0.035 A 
HETATM   22  C18 UNL     1      23.468   4.595  52.496  1.00  0.00     0.070 A 
BRANCH  22  23
HETATM   23  O1  UNL     1      23.847   5.255  53.661  1.00  0.00    -0.362 OA
HETATM   24  H24 UNL     1      24.751   5.712  53.777  1.00  0.00     0.217 HD
ENDBRANCH  22  23
ENDBRANCH   1  17
TORSDOF 9
ENDMDL
MODEL 4
REMARK VINA RESULT:      -6.9      2.286      6.289
REMARK  9 active torsions:
REMARK  status: ('A' for Active; 'I' for Inactive)
REMARK    1  A    between atoms: C2_2  and  C3_3 
REMARK    2  A    between atoms: C3_3  and  C4_4 
REMARK    3  A    between atoms: C4_4  and  C5_5 
REMARK    4  A    between atoms: C5_5  and  N1_6 
REMARK    5  A    between atoms: N1_6  and  C6_7 
REMARK    6  A    between atoms: N1_6  and  C13_16 
REMARK    7  A    between atoms: C6_7  and  N2_9 
REMARK    8  A    between atoms: N2_9  and  C7_10 
REMARK    9  A    between atoms: C18_21  and  O1_22 
ROOT
HETATM    1  N1  UNL     1      24.087   2.915  51.058  1.00  0.00    -0.344 N 
ENDROOT
BRANCH   1   2
HETATM    2  C5  UNL     1      23.333   1.650  51.137  1.00  0.00     0.126 C 
BRANCH   2   3
HETATM    3  C4  UNL     1      22.625   1.458  52.432  1.00  0.00     0.020 C 
BRANCH   3   4
HETATM    4  C3  UNL     1      23.425   0.459  53.271  1.00  0.00     0.001 C 
BRANCH   4   5
HETATM    5  C2  UNL     1      22.632  -0.807  53.513  1.00  0.00    -0.004 C 
HETATM    6  C1  UNL     1      21.731  -0.638  54.712  1.00  0.00     0.005 C 
ENDBRANCH   4   5
ENDBRANCH   3   4
ENDBRANCH   2   3
ENDBRANCH   1   2
BRANCH   1   7
HETATM    7  C6  UNL     1      25.505   2.999  51.113  1.00  0.00     0.175 C 
HETATM    8  S1  UNL     1      26.257   3.309  49.700  1.00  0.00    -0.041 SA
BRANCH   7   9
HETATM    9  N2  UNL     1      26.282   2.875  52.286  1.00  0.00    -0.333 N 
HETATM   10  H12 UNL     1      26.133   3.706  52.896  1.00  0.00     0.168 HD
BRANCH   9  11
HETATM   11  C7  UNL     1      27.172   1.926  52.800  1.00  0.00     0.034 A 
HETATM   12  C8  UNL     1      26.974   0.575  52.522  1.00  0.00     0.029 A 
HETATM   13  C9  UNL     1      27.809  -0.402  52.993  1.00  0.00     0.002 A 
HETATM   14  C10 UNL     1      28.879  -0.048  53.762  1.00  0.00     0.000 A 
HETATM   15  C11 UNL     1      29.156   1.245  54.088  1.00  0.00     0.002 A 
HETATM   16  C12 UNL     1      28.279   2.170  53.584  1.00  0.00     0.029 A 
ENDBRANCH   9  11
ENDBRANCH   7   9
ENDBRANCH   1   7
BRANCH   1  17
HETATM   17  C13 UNL     1      23.218   4.051  50.931  1.00  0.00     0.172 A 
HETATM   18  C14 UNL     1      23.233   4.754  49.648  1.00  0.00    -0.055 A 
HETATM   19  C15 UNL     1      22.779   4.173  48.331  1.00  0.00     0.046 C 
HETATM   20  C16 UNL     1      23.654   6.026  49.745  1.00  0.00     0.007 A 
HETATM   21  C17 UNL     1      23.950   6.240  51.170  1.00  0.00     0.035 A 
HETATM   22  C18 UNL     1      23.712   5.134  51.880  1.00  0.00     0.070 A 
BRANCH  22  23
HETATM   23  O1  UNL     1      23.934   5.150  53.254  1.00  0.00    -0.362 OA
HETATM   24  H24 UNL     1      24.739   5.601  53.686  1.00  0.00     0.217 HD
ENDBRANCH  22  23
ENDBRANCH   1  17
TORSDOF 9
ENDMDL
MODEL 5
REMARK VINA RESULT:      -6.9      2.405      5.922
REMARK  9 active torsions:
REMARK  status: ('A' for Active; 'I' for Inactive)
REMARK    1  A    between atoms: C2_2  and  C3_3 
REMARK    2  A    between atoms: C3_3  and  C4_4 
REMARK    3  A    between atoms: C4_4  and  C5_5 
REMARK    4  A    between atoms: C5_5  and  N1_6 
REMARK    5  A    between atoms: N1_6  and  C6_7 
REMARK    6  A    between atoms: N1_6  and  C13_16 
REMARK    7  A    between atoms: C6_7  and  N2_9 
REMARK    8  A    between atoms: N2_9  and  C7_10 
REMARK    9  A    between atoms: C18_21  and  O1_22 
ROOT
HETATM    1  N1  UNL     1      23.615   2.834  50.909  1.00  0.00    -0.344 N 
ENDROOT
BRANCH   1   2
HETATM    2  C5  UNL     1      22.686   1.689  50.925  1.00  0.00     0.126 C 
BRANCH   2   3
HETATM    3  C4  UNL     1      22.240   1.301  52.290  1.00  0.00     0.020 C 
BRANCH   3   4
HETATM    4  C3  UNL     1      22.553  -0.183  52.492  1.00  0.00     0.001 C 
BRANCH   4   5
HETATM    5  C2  UNL     1      23.001  -0.458  53.911  1.00  0.00    -0.004 C 
HETATM    6  C1  UNL     1      21.805  -0.731  54.792  1.00  0.00     0.005 C 
ENDBRANCH   4   5
ENDBRANCH   3   4
ENDBRANCH   2   3
ENDBRANCH   1   2
BRANCH   1   7
HETATM    7  C6  UNL     1      24.154   3.435  52.080  1.00  0.00     0.175 C 
HETATM    8  S1  UNL     1      23.363   4.748  52.636  1.00  0.00    -0.041 SA
BRANCH   7   9
HETATM    9  N2  UNL     1      25.274   2.960  52.796  1.00  0.00    -0.333 N 
HETATM   10  H12 UNL     1      25.728   3.748  53.303  1.00  0.00     0.168 HD
BRANCH   9  11
HETATM   11  C7  UNL     1      25.891   1.717  52.978  1.00  0.00     0.034 A 
HETATM   12  C8  UNL     1      26.295   1.330  54.254  1.00  0.00     0.029 A 
HETATM   13  C9  UNL     1      26.902   0.127  54.499  1.00  0.00     0.002 A 
HETATM   14  C10 UNL     1      27.120  -0.730  53.461  1.00  0.00     0.000 A 
HETATM   15  C11 UNL     1      26.761  -0.442  52.179  1.00  0.00     0.002 A 
HETATM   16  C12 UNL     1      26.160   0.777  52.007  1.00  0.00     0.029 A 
ENDBRANCH   9  11
ENDBRANCH   7   9
ENDBRANCH   1   7
BRANCH   1  17
HETATM   17  C13 UNL     1      23.899   3.277  49.574  1.00  0.00     0.172 A 
HETATM   18  C14 UNL     1      25.160   3.992  49.369  1.00  0.00    -0.055 A 
HETATM   19  C15 UNL     1      26.537   3.396  49.539  1.00  0.00     0.046 C 
HETATM   20  C16 UNL     1      24.991   5.259  48.954  1.00  0.00     0.007 A 
HETATM   21  C17 UNL     1      23.535   5.454  48.855  1.00  0.00     0.035 A 
HETATM   22  C18 UNL     1      22.879   4.343  49.200  1.00  0.00     0.070 A 
BRANCH  22  23
HETATM   23  O1  UNL     1      21.488   4.340  49.164  1.00  0.00    -0.362 OA
HETATM   24  H24 UNL     1      20.941   4.976  48.583  1.00  0.00     0.217 HD
ENDBRANCH  22  23
ENDBRANCH   1  17
TORSDOF 9
ENDMDL
MODEL 6
REMARK VINA RESULT:      -6.7      2.527      7.023
REMARK  9 active torsions:
REMARK  status: ('A' for Active; 'I' for Inactive)
REMARK    1  A    between atoms: C2_2  and  C3_3 
REMARK    2  A    between atoms: C3_3  and  C4_4 
REMARK    3  A    between atoms: C4_4  and  C5_5 
REMARK    4  A    between atoms: C5_5  and  N1_6 
REMARK    5  A    between atoms: N1_6  and  C6_7 
REMARK    6  A    between atoms: N1_6  and  C13_16 
REMARK    7  A    between atoms: C6_7  and  N2_9 
REMARK    8  A    between atoms: N2_9  and  C7_10 
REMARK    9  A    between atoms: C18_21  and  O1_22 
ROOT
HETATM    1  N1  UNL     1      24.785   3.178  50.995  1.00  0.00    -0.344 N 
ENDROOT
BRANCH   1   2
HETATM    2  C5  UNL     1      26.004   2.370  51.183  1.00  0.00     0.126 C 
BRANCH   2   3
HETATM    3  C4  UNL     1      26.138   1.801  52.552  1.00  0.00     0.020 C 
BRANCH   3   4
HETATM    4  C3  UNL     1      27.023   0.556  52.468  1.00  0.00     0.001 C 
BRANCH   4   5
HETATM    5  C2  UNL     1      26.223  -0.700  52.739  1.00  0.00    -0.004 C 
HETATM    6  C1  UNL     1      25.305  -0.490  53.920  1.00  0.00     0.005 C 
ENDBRANCH   4   5
ENDBRANCH   3   4
ENDBRANCH   2   3
ENDBRANCH   1   2
BRANCH   1   7
HETATM    7  C6  UNL     1      24.478   3.886  49.801  1.00  0.00     0.175 C 
HETATM    8  S1  UNL     1      23.418   3.161  48.796  1.00  0.00    -0.041 SA
BRANCH   7   9
HETATM    9  N2  UNL     1      24.983   5.158  49.456  1.00  0.00    -0.333 N 
HETATM   10  H12 UNL     1      24.281   5.891  49.689  1.00  0.00     0.168 HD
BRANCH   9  11
HETATM   11  C7  UNL     1      26.170   5.644  48.896  1.00  0.00     0.034 A 
HETATM   12  C8  UNL     1      27.307   4.839  48.887  1.00  0.00     0.029 A 
HETATM   13  C9  UNL     1      28.497   5.255  48.352  1.00  0.00     0.002 A 
HETATM   14  C10 UNL     1      28.580   6.502  47.805  1.00  0.00     0.000 A 
HETATM   15  C11 UNL     1      27.525   7.361  47.767  1.00  0.00     0.002 A 
HETATM   16  C12 UNL     1      26.366   6.881  48.320  1.00  0.00     0.029 A 
ENDBRANCH   9  11
ENDBRANCH   7   9
ENDBRANCH   1   7
BRANCH   1  17
HETATM   17  C13 UNL     1      23.955   3.177  52.166  1.00  0.00     0.172 A 
HETATM   18  C14 UNL     1      22.692   2.442  52.080  1.00  0.00    -0.055 A 
HETATM   19  C15 UNL     1      22.564   0.949  51.902  1.00  0.00     0.046 C 
HETATM   20  C16 UNL     1      21.610   3.226  52.224  1.00  0.00     0.007 A 
HETATM   21  C17 UNL     1      22.131   4.588  52.428  1.00  0.00     0.035 A 
HETATM   22  C18 UNL     1      23.466   4.599  52.403  1.00  0.00     0.070 A 
BRANCH  22  23
HETATM   23  O1  UNL     1      24.136   5.806  52.583  1.00  0.00    -0.362 OA
HETATM   24  H24 UNL     1      23.709   6.715  52.410  1.00  0.00     0.217 HD
ENDBRANCH  22  23
ENDBRANCH   1  17
TORSDOF 9
ENDMDL
MODEL 7
REMARK VINA RESULT:      -6.6      2.472      5.021
REMARK  9 active torsions:
REMARK  status: ('A' for Active; 'I' for Inactive)
REMARK    1  A    between atoms: C2_2  and  C3_3 
REMARK    2  A    between atoms: C3_3  and  C4_4 
REMARK    3  A    between atoms: C4_4  and  C5_5 
REMARK    4  A    between atoms: C5_5  and  N1_6 
REMARK    5  A    between atoms: N1_6  and  C6_7 
REMARK    6  A    between atoms: N1_6  and  C13_16 
REMARK    7  A    between atoms: C6_7  and  N2_9 
REMARK    8  A    between atoms: N2_9  and  C7_10 
REMARK    9  A    between atoms: C18_21  and  O1_22 
ROOT
HETATM    1  N1  UNL     1      22.893   2.471  52.139  1.00  0.00    -0.344 N 
ENDROOT
BRANCH   1   2
HETATM    2  C5  UNL     1      22.791   2.140  50.706  1.00  0.00     0.126 C 
BRANCH   2   3
HETATM    3  C4  UNL     1      23.157   3.268  49.806  1.00  0.00     0.020 C 
BRANCH   3   4
HETATM    4  C3  UNL     1      24.617   3.087  49.383  1.00  0.00     0.001 C 
BRANCH   4   5
HETATM    5  C2  UNL     1      25.397   4.373  49.555  1.00  0.00    -0.004 C 
HETATM    6  C1  UNL     1      26.852   4.150  49.219  1.00  0.00     0.005 C 
ENDBRANCH   4   5
ENDBRANCH   3   4
ENDBRANCH   2   3
ENDBRANCH   1   2
BRANCH   1   7
HETATM    7  C6  UNL     1      23.875   3.342  52.685  1.00  0.00     0.175 C 
HETATM    8  S1  UNL     1      23.416   4.894  52.889  1.00  0.00    -0.041 SA
BRANCH   7   9
HETATM    9  N2  UNL     1      25.171   2.956  53.089  1.00  0.00    -0.333 N 
HETATM   10  H12 UNL     1      25.709   3.794  53.394  1.00  0.00     0.168 HD
BRANCH   9  11
HETATM   11  C7  UNL     1      25.874   1.749  53.174  1.00  0.00     0.034 A 
HETATM   12  C8  UNL     1      26.072   0.986  52.025  1.00  0.00     0.029 A 
HETATM   13  C9  UNL     1      26.752  -0.203  52.041  1.00  0.00     0.002 A 
HETATM   14  C10 UNL     1      27.259  -0.662  53.221  1.00  0.00     0.000 A 
HETATM   15  C11 UNL     1      27.118   0.011  54.396  1.00  0.00     0.002 A 
HETATM   16  C12 UNL     1      26.427   1.192  54.307  1.00  0.00     0.029 A 
ENDBRANCH   9  11
ENDBRANCH   7   9
ENDBRANCH   1   7
BRANCH   1  17
HETATM   17  C13 UNL     1      21.894   1.797  52.918  1.00  0.00     0.172 A 
HETATM   18  C14 UNL     1      21.784   0.348  52.742  1.00  0.00    -0.055 A 
HETATM   19  C15 UNL     1      22.848  -0.657  53.110  1.00  0.00     0.046 C 
HETATM   20  C16 UNL     1      20.595  -0.039  52.250  1.00  0.00     0.007 A 
HETATM   21  C17 UNL     1      19.817   1.198  52.071  1.00  0.00     0.035 A 
HETATM   22  C18 UNL     1      20.526   2.267  52.444  1.00  0.00     0.070 A 
BRANCH  22  23
HETATM   23  O1  UNL     1      19.948   3.530  52.347  1.00  0.00    -0.362 OA
HETATM   24  H24 UNL     1      20.151   4.290  52.994  1.00  0.00     0.217 HD
ENDBRANCH  22  23
ENDBRANCH   1  17
TORSDOF 9
ENDMDL
MODEL 8
REMARK VINA RESULT:      -6.4      2.738      6.444
REMARK  9 active torsions:
REMARK  status: ('A' for Active; 'I' for Inactive)
REMARK    1  A    between atoms: C2_2  and  C3_3 
REMARK    2  A    between atoms: C3_3  and  C4_4 
REMARK    3  A    between atoms: C4_4  and  C5_5 
REMARK    4  A    between atoms: C5_5  and  N1_6 
REMARK    5  A    between atoms: N1_6  and  C6_7 
REMARK    6  A    between atoms: N1_6  and  C13_16 
REMARK    7  A    between atoms: C6_7  and  N2_9 
REMARK    8  A    between atoms: N2_9  and  C7_10 
REMARK    9  A    between atoms: C18_21  and  O1_22 
ROOT
HETATM    1  N1  UNL     1      24.336   2.533  51.227  1.00  0.00    -0.344 N 
ENDROOT
BRANCH   1   2
HETATM    2  C5  UNL     1      23.652   1.271  51.564  1.00  0.00     0.126 C 
BRANCH   2   3
HETATM    3  C4  UNL     1      23.558   1.016  53.028  1.00  0.00     0.020 C 
BRANCH   3   4
HETATM    4  C3  UNL     1      22.116   0.618  53.351  1.00  0.00     0.001 C 
BRANCH   4   5
HETATM    5  C2  UNL     1      22.064  -0.331  54.529  1.00  0.00    -0.004 C 
HETATM    6  C1  UNL     1      21.280  -1.570  54.168  1.00  0.00     0.005 C 
ENDBRANCH   4   5
ENDBRANCH   3   4
ENDBRANCH   2   3
ENDBRANCH   1   2
BRANCH   1   7
HETATM    7  C6  UNL     1      25.749   2.694  51.226  1.00  0.00     0.175 C 
HETATM    8  S1  UNL     1      26.399   3.277  49.849  1.00  0.00    -0.041 SA
BRANCH   7   9
HETATM    9  N2  UNL     1      26.599   2.429  52.322  1.00  0.00    -0.333 N 
HETATM   10  H12 UNL     1      26.626   3.255  52.954  1.00  0.00     0.168 HD
BRANCH   9  11
HETATM   11  C7  UNL     1      27.382   1.347  52.740  1.00  0.00     0.034 A 
HETATM   12  C8  UNL     1      28.591   1.585  53.393  1.00  0.00     0.029 A 
HETATM   13  C9  UNL     1      29.401   0.572  53.829  1.00  0.00     0.002 A 
HETATM   14  C10 UNL     1      29.019  -0.721  53.622  1.00  0.00     0.000 A 
HETATM   15  C11 UNL     1      27.857  -1.055  52.995  1.00  0.00     0.002 A 
HETATM   16  C12 UNL     1      27.095   0.008  52.584  1.00  0.00     0.029 A 
ENDBRANCH   9  11
ENDBRANCH   7   9
ENDBRANCH   1   7
BRANCH   1  17
HETATM   17  C13 UNL     1      23.407   3.581  50.913  1.00  0.00     0.172 A 
HETATM   18  C14 UNL     1      22.689   4.185  52.036  1.00  0.00    -0.055 A 
HETATM   19  C15 UNL     1      23.325   4.986  53.147  1.00  0.00     0.046 C 
HETATM   20  C16 UNL     1      21.359   4.005  51.975  1.00  0.00     0.007 A 
HETATM   21  C17 UNL     1      21.118   3.237  50.743  1.00  0.00     0.035 A 
HETATM   22  C18 UNL     1      22.265   2.977  50.109  1.00  0.00     0.070 A 
BRANCH  22  23
HETATM   23  O1  UNL     1      22.231   2.259  48.917  1.00  0.00    -0.362 OA
HETATM   24  H24 UNL     1      21.792   1.344  48.826  1.00  0.00     0.217 HD
ENDBRANCH  22  23
ENDBRANCH   1  17
TORSDOF 9
ENDMDL
MODEL 9
REMARK VINA RESULT:      -6.4      2.811      6.265
REMARK  9 active torsions:
REMARK  status: ('A' for Active; 'I' for Inactive)
REMARK    1  A    between atoms: C2_2  and  C3_3 
REMARK    2  A    between atoms: C3_3  and  C4_4 
REMARK    3  A    between atoms: C4_4  and  C5_5 
REMARK    4  A    between atoms: C5_5  and  N1_6 
REMARK    5  A    between atoms: N1_6  and  C6_7 
REMARK    6  A    between atoms: N1_6  and  C13_16 
REMARK    7  A    between atoms: C6_7  and  N2_9 
REMARK    8  A    between atoms: N2_9  and  C7_10 
REMARK    9  A    between atoms: C18_21  and  O1_22 
ROOT
HETATM    1  N1  UNL     1      22.749   2.474  51.432  1.00  0.00    -0.344 N 
ENDROOT
BRANCH   1   2
HETATM    2  C5  UNL     1      22.148   1.144  51.639  1.00  0.00     0.126 C 
BRANCH   2   3
HETATM    3  C4  UNL     1      22.005   0.770  53.073  1.00  0.00     0.020 C 
BRANCH   3   4
HETATM    4  C3  UNL     1      22.843  -0.485  53.325  1.00  0.00     0.001 C 
BRANCH   4   5
HETATM    5  C2  UNL     1      22.375  -1.212  54.568  1.00  0.00    -0.004 C 
HETATM    6  C1  UNL     1      23.518  -1.369  55.542  1.00  0.00     0.005 C 
ENDBRANCH   4   5
ENDBRANCH   3   4
ENDBRANCH   2   3
ENDBRANCH   1   2
BRANCH   1   7
HETATM    7  C6  UNL     1      23.992   2.690  50.777  1.00  0.00     0.175 C 
HETATM    8  S1  UNL     1      23.906   3.260  49.252  1.00  0.00    -0.041 SA
BRANCH   7   9
HETATM    9  N2  UNL     1      25.263   2.489  51.358  1.00  0.00    -0.333 N 
HETATM   10  H12 UNL     1      25.911   3.247  51.058  1.00  0.00     0.168 HD
BRANCH   9  11
HETATM   11  C7  UNL     1      25.832   1.541  52.217  1.00  0.00     0.034 A 
HETATM   12  C8  UNL     1      25.809   1.758  53.593  1.00  0.00     0.029 A 
HETATM   13  C9  UNL     1      26.346   0.868  54.485  1.00  0.00     0.002 A 
HETATM   14  C10 UNL     1      26.924  -0.275  54.017  1.00  0.00     0.000 A 
HETATM   15  C11 UNL     1      26.995  -0.576  52.691  1.00  0.00     0.002 A 
HETATM   16  C12 UNL     1      26.439   0.358  51.855  1.00  0.00     0.029 A 
ENDBRANCH   9  11
ENDBRANCH   7   9
ENDBRANCH   1   7
BRANCH   1  17
HETATM   17  C13 UNL     1      21.936   3.522  51.981  1.00  0.00     0.172 A 
HETATM   18  C14 UNL     1      21.019   4.197  51.062  1.00  0.00    -0.055 A 
HETATM   19  C15 UNL     1      19.842   3.550  50.373  1.00  0.00     0.046 C 
HETATM   20  C16 UNL     1      21.289   5.505  50.909  1.00  0.00     0.007 A 
HETATM   21  C17 UNL     1      22.454   5.774  51.767  1.00  0.00     0.035 A 
HETATM   22  C18 UNL     1      22.852   4.665  52.396  1.00  0.00     0.070 A 
BRANCH  22  23
HETATM   23  O1  UNL     1      23.944   4.729  53.256  1.00  0.00    -0.362 OA
HETATM   24  H24 UNL     1      24.824   5.180  53.011  1.00  0.00     0.217 HD
ENDBRANCH  22  23
ENDBRANCH   1  17
TORSDOF 9
ENDMDL
