MODEL 1
REMARK VINA RESULT:      -8.9      0.000      0.000
REMARK  6 active torsions:
REMARK  status: ('A' for Active; 'I' for Inactive)
REMARK    1  A    between atoms: C2_2  and  C3_4 
REMARK    2  A    between atoms: C4_5  and  C5_6 
REMARK    3  A    between atoms: C6_7  and  N1_8 
REMARK    4  A    between atoms: N1_8  and  C7_9 
REMARK    5  A    between atoms: C14_19  and  O1_20 
REMARK    6  A    between atoms: O1_20  and  C15_21 
ROOT
HETATM    1  C7  UNL     1      24.311   5.096  51.183  1.00  0.00     0.159 A 
HETATM    2  N2  UNL     1      23.111   5.633  51.546  1.00  0.00    -0.222 NA
HETATM    3  C8  UNL     1      22.156   4.753  51.973  1.00  0.00     0.238 A 
HETATM    4  N3  UNL     1      22.342   3.424  52.050  1.00  0.00    -0.215 NA
HETATM    5  C9  UNL     1      23.545   2.890  51.686  1.00  0.00     0.202 A 
HETATM    6  C10 UNL     1      24.519   3.737  51.256  1.00  0.00     0.129 A 
HETATM    7  N4  UNL     1      25.873   3.479  50.829  1.00  0.00    -0.379 N 
HETATM    8  C11 UNL     1      26.686   2.327  51.076  1.00  0.00     0.161 C 
HETATM    9  C12 UNL     1      26.147   1.320  51.984  1.00  0.00    -0.004 A 
HETATM   10  C13 UNL     1      27.192   0.638  52.623  1.00  0.00     0.048 A 
HETATM   11  C14 UNL     1      27.043  -0.380  53.545  1.00  0.00     0.075 A 
HETATM   12  C16 UNL     1      25.747  -0.729  53.838  1.00  0.00     0.040 A 
HETATM   13  C17 UNL     1      24.648  -0.124  53.268  1.00  0.00     0.040 A 
HETATM   14  C18 UNL     1      24.858   0.895  52.347  1.00  0.00     0.086 A 
HETATM   15  O2  UNL     1      23.720   1.506  51.773  1.00  0.00    -0.289 OA
HETATM   16  H9  UNL     1      26.299   4.249  50.271  1.00  0.00     0.160 HD
ENDROOT
BRANCH   1  17
HETATM   17  N1  UNL     1      25.229   6.096  50.764  1.00  0.00    -0.349 N 
HETATM   18  H7  UNL     1      25.812   6.126  51.604  1.00  0.00     0.167 HD
BRANCH  17  19
HETATM   19  C6  UNL     1      25.254   6.800  49.510  1.00  0.00     0.090 C 
HETATM   20  C5  UNL     1      26.110   6.563  48.549  1.00  0.00     0.017 C 
BRANCH  20  21
HETATM   21  C4  UNL     1      27.153   5.547  48.630  1.00  0.00     0.003 C 
HETATM   22  C3  UNL     1      28.422   5.637  48.323  1.00  0.00     0.018 C 
BRANCH  22  23
HETATM   23  C2  UNL     1      29.097   6.800  47.817  1.00  0.00     0.001 C 
HETATM   24  C1  UNL     1      30.106   7.318  48.488  1.00  0.00     0.032 C 
HETATM   25 BR1  UNL     1      28.983   7.950  46.320  1.00  0.00    -0.052 Br
ENDBRANCH  22  23
ENDBRANCH  20  21
ENDBRANCH  17  19
ENDBRANCH   1  17
BRANCH  11  26
HETATM   26  O1  UNL     1      28.153  -0.976  54.112  1.00  0.00    -0.290 OA
BRANCH  26  27
HETATM   27  C15 UNL     1      29.264  -1.447  53.387  1.00  0.00     0.505 C 
HETATM   28  F1  UNL     1      30.446  -1.438  54.100  1.00  0.00    -0.184 F 
HETATM   29  F2  UNL     1      29.008  -2.795  53.083  1.00  0.00    -0.184 F 
ENDBRANCH  26  27
ENDBRANCH  11  26
TORSDOF 6
ENDMDL
MODEL 2
REMARK VINA RESULT:      -8.5      1.511      1.836
REMARK  6 active torsions:
REMARK  status: ('A' for Active; 'I' for Inactive)
REMARK    1  A    between atoms: C2_2  and  C3_4 
REMARK    2  A    between atoms: C4_5  and  C5_6 
REMARK    3  A    between atoms: C6_7  and  N1_8 
REMARK    4  A    between atoms: N1_8  and  C7_9 
REMARK    5  A    between atoms: C14_19  and  O1_20 
REMARK    6  A    between atoms: O1_20  and  C15_21 
ROOT
HETATM    1  C7  UNL     1      24.969   6.107  50.570  1.00  0.00     0.159 A 
HETATM    2  N2  UNL     1      23.904   6.940  50.748  1.00  0.00    -0.222 NA
HETATM    3  C8  UNL     1      22.689   6.341  50.934  1.00  0.00     0.238 A 
HETATM    4  N3  UNL     1      22.504   5.010  50.950  1.00  0.00    -0.215 NA
HETATM    5  C9  UNL     1      23.573   4.180  50.773  1.00  0.00     0.202 A 
HETATM    6  C10 UNL     1      24.798   4.742  50.584  1.00  0.00     0.129 A 
HETATM    7  N4  UNL     1      26.094   4.137  50.391  1.00  0.00    -0.379 N 
HETATM    8  C11 UNL     1      26.515   2.804  50.699  1.00  0.00     0.161 C 
HETATM    9  C12 UNL     1      25.570   1.962  51.423  1.00  0.00    -0.004 A 
HETATM   10  C13 UNL     1      26.259   1.013  52.191  1.00  0.00     0.048 A 
HETATM   11  C14 UNL     1      25.676   0.055  52.999  1.00  0.00     0.075 A 
HETATM   12  C16 UNL     1      24.302   0.062  53.029  1.00  0.00     0.040 A 
HETATM   13  C17 UNL     1      23.529   0.951  52.314  1.00  0.00     0.040 A 
HETATM   14  C18 UNL     1      24.170   1.892  51.519  1.00  0.00     0.086 A 
HETATM   15  O2  UNL     1      23.362   2.798  50.793  1.00  0.00    -0.289 OA
HETATM   16  H9  UNL     1      26.804   4.775  49.973  1.00  0.00     0.160 HD
ENDROOT
BRANCH   1  17
HETATM   17  N1  UNL     1      26.178   6.832  50.392  1.00  0.00    -0.349 N 
HETATM   18  H7  UNL     1      26.637   6.574  51.271  1.00  0.00     0.167 HD
BRANCH  17  19
HETATM   19  C6  UNL     1      26.558   7.654  49.275  1.00  0.00     0.090 C 
HETATM   20  C5  UNL     1      27.386   7.279  48.332  1.00  0.00     0.017 C 
BRANCH  20  21
HETATM   21  C4  UNL     1      28.029   5.971  48.297  1.00  0.00     0.003 C 
HETATM   22  C3  UNL     1      29.301   5.676  48.205  1.00  0.00     0.018 C 
BRANCH  22  23
HETATM   23  C2  UNL     1      30.389   6.610  48.114  1.00  0.00     0.001 C 
HETATM   24  C1  UNL     1      30.895   6.918  46.937  1.00  0.00     0.032 C 
HETATM   25 BR1  UNL     1      31.440   7.659  49.286  1.00  0.00    -0.052 Br
ENDBRANCH  22  23
ENDBRANCH  20  21
ENDBRANCH  17  19
ENDBRANCH   1  17
BRANCH  11  26
HETATM   26  O1  UNL     1      26.462  -0.828  53.712  1.00  0.00    -0.290 OA
BRANCH  26  27
HETATM   27  C15 UNL     1      27.224  -1.862  53.138  1.00  0.00     0.505 C 
HETATM   28  F1  UNL     1      26.722  -2.335  51.942  1.00  0.00    -0.184 F 
HETATM   29  F2  UNL     1      28.485  -1.319  52.839  1.00  0.00    -0.184 F 
ENDBRANCH  26  27
ENDBRANCH  11  26
TORSDOF 6
ENDMDL
MODEL 3
REMARK VINA RESULT:      -8.2      5.603      8.600
REMARK  6 active torsions:
REMARK  status: ('A' for Active; 'I' for Inactive)
REMARK    1  A    between atoms: C2_2  and  C3_4 
REMARK    2  A    between atoms: C4_5  and  C5_6 
REMARK    3  A    between atoms: C6_7  and  N1_8 
REMARK    4  A    between atoms: N1_8  and  C7_9 
REMARK    5  A    between atoms: C14_19  and  O1_20 
REMARK    6  A    between atoms: O1_20  and  C15_21 
ROOT
HETATM    1  C7  UNL     1      29.948   9.498  49.173  1.00  0.00     0.159 A 
HETATM    2  N2  UNL     1      29.719  10.681  48.535  1.00  0.00    -0.222 NA
HETATM    3  C8  UNL     1      30.676  11.088  47.648  1.00  0.00     0.238 A 
HETATM    4  N3  UNL     1      31.798  10.397  47.385  1.00  0.00    -0.215 NA
HETATM    5  C9  UNL     1      32.024   9.212  48.025  1.00  0.00     0.202 A 
HETATM    6  C10 UNL     1      31.091   8.775  48.915  1.00  0.00     0.129 A 
HETATM    7  N4  UNL     1      31.041   7.578  49.718  1.00  0.00    -0.379 N 
HETATM    8  C11 UNL     1      31.761   6.353  49.545  1.00  0.00     0.161 C 
HETATM    9  C12 UNL     1      32.562   6.222  48.332  1.00  0.00    -0.004 A 
HETATM   10  C13 UNL     1      32.668   4.872  47.968  1.00  0.00     0.048 A 
HETATM   11  C14 UNL     1      33.356   4.387  46.872  1.00  0.00     0.075 A 
HETATM   12  C16 UNL     1      33.977   5.334  46.095  1.00  0.00     0.040 A 
HETATM   13  C17 UNL     1      33.936   6.686  46.364  1.00  0.00     0.040 A 
HETATM   14  C18 UNL     1      33.229   7.116  47.479  1.00  0.00     0.086 A 
HETATM   15  O2  UNL     1      33.195   8.506  47.738  1.00  0.00    -0.289 OA
HETATM   16  H9  UNL     1      30.384   7.632  50.525  1.00  0.00     0.160 HD
ENDROOT
BRANCH   1  17
HETATM   17  N1  UNL     1      28.891   9.168  50.063  1.00  0.00    -0.349 N 
HETATM   18  H7  UNL     1      29.434   9.127  50.930  1.00  0.00     0.167 HD
BRANCH  17  19
HETATM   19  C6  UNL     1      27.502   8.973  49.750  1.00  0.00     0.090 C 
HETATM   20  C5  UNL     1      27.039   7.976  49.039  1.00  0.00     0.017 C 
BRANCH  20  21
HETATM   21  C4  UNL     1      27.882   6.930  48.473  1.00  0.00     0.003 C 
HETATM   22  C3  UNL     1      27.687   5.635  48.441  1.00  0.00     0.018 C 
BRANCH  22  23
HETATM   23  C2  UNL     1      26.557   4.930  48.977  1.00  0.00     0.001 C 
HETATM   24  C1  UNL     1      26.730   3.773  49.584  1.00  0.00     0.032 C 
HETATM   25 BR1  UNL     1      24.685   5.168  49.104  1.00  0.00    -0.052 Br
ENDBRANCH  22  23
ENDBRANCH  20  21
ENDBRANCH  17  19
ENDBRANCH   1  17
BRANCH  11  26
HETATM   26  O1  UNL     1      33.387   3.031  46.612  1.00  0.00    -0.290 OA
BRANCH  26  27
HETATM   27  C15 UNL     1      32.746   2.053  47.396  1.00  0.00     0.505 C 
HETATM   28  F1  UNL     1      32.541   0.854  46.743  1.00  0.00    -0.184 F 
HETATM   29  F2  UNL     1      33.606   1.765  48.469  1.00  0.00    -0.184 F 
ENDBRANCH  26  27
ENDBRANCH  11  26
TORSDOF 6
ENDMDL
MODEL 4
REMARK VINA RESULT:      -8.2      1.471      1.913
REMARK  6 active torsions:
REMARK  status: ('A' for Active; 'I' for Inactive)
REMARK    1  A    between atoms: C2_2  and  C3_4 
REMARK    2  A    between atoms: C4_5  and  C5_6 
REMARK    3  A    between atoms: C6_7  and  N1_8 
REMARK    4  A    between atoms: N1_8  and  C7_9 
REMARK    5  A    between atoms: C14_19  and  O1_20 
REMARK    6  A    between atoms: O1_20  and  C15_21 
ROOT
HETATM    1  C7  UNL     1      23.118   4.641  51.479  1.00  0.00     0.159 A 
HETATM    2  N2  UNL     1      21.811   4.846  51.809  1.00  0.00    -0.222 NA
HETATM    3  C8  UNL     1      21.112   3.750  52.234  1.00  0.00     0.238 A 
HETATM    4  N3  UNL     1      21.639   2.519  52.338  1.00  0.00    -0.215 NA
HETATM    5  C9  UNL     1      22.949   2.317  52.008  1.00  0.00     0.202 A 
HETATM    6  C10 UNL     1      23.675   3.386  51.581  1.00  0.00     0.129 A 
HETATM    7  N4  UNL     1      25.059   3.489  51.184  1.00  0.00    -0.379 N 
HETATM    8  C11 UNL     1      26.140   2.595  51.467  1.00  0.00     0.161 C 
HETATM    9  C12 UNL     1      25.865   1.493  52.383  1.00  0.00    -0.004 A 
HETATM   10  C13 UNL     1      27.038   1.120  53.054  1.00  0.00     0.048 A 
HETATM   11  C14 UNL     1      27.141   0.110  53.992  1.00  0.00     0.075 A 
HETATM   12  C16 UNL     1      25.976  -0.566  54.267  1.00  0.00     0.040 A 
HETATM   13  C17 UNL     1      24.770  -0.279  53.664  1.00  0.00     0.040 A 
HETATM   14  C18 UNL     1      24.726   0.747  52.729  1.00  0.00     0.086 A 
HETATM   15  O2  UNL     1      23.480   1.030  52.123  1.00  0.00    -0.289 OA
HETATM   16  H9  UNL     1      25.279   4.337  50.620  1.00  0.00     0.160 HD
ENDROOT
BRANCH   1  17
HETATM   17  N1  UNL     1      23.748   5.842  51.059  1.00  0.00    -0.349 N 
HETATM   18  H7  UNL     1      24.533   5.837  51.717  1.00  0.00     0.167 HD
BRANCH  17  19
HETATM   19  C6  UNL     1      23.337   6.735  50.009  1.00  0.00     0.090 C 
HETATM   20  C5  UNL     1      23.992   7.812  49.659  1.00  0.00     0.017 C 
BRANCH  20  21
HETATM   21  C4  UNL     1      25.231   8.245  50.294  1.00  0.00     0.003 C 
HETATM   22  C3  UNL     1      26.466   7.925  50.004  1.00  0.00     0.018 C 
BRANCH  22  23
HETATM   23  C2  UNL     1      26.894   7.041  48.955  1.00  0.00     0.001 C 
HETATM   24  C1  UNL     1      27.179   7.525  47.763  1.00  0.00     0.032 C 
HETATM   25 BR1  UNL     1      27.217   5.192  48.721  1.00  0.00    -0.052 Br
ENDBRANCH  22  23
ENDBRANCH  20  21
ENDBRANCH  17  19
ENDBRANCH   1  17
BRANCH  11  26
HETATM   26  O1  UNL     1      28.355  -0.165  54.590  1.00  0.00    -0.290 OA
BRANCH  26  27
HETATM   27  C15 UNL     1      29.412  -0.858  53.971  1.00  0.00     0.505 C 
HETATM   28  F1  UNL     1      29.007  -1.748  52.996  1.00  0.00    -0.184 F 
HETATM   29  F2  UNL     1      30.196   0.104  53.313  1.00  0.00    -0.184 F 
ENDBRANCH  26  27
ENDBRANCH  11  26
TORSDOF 6
ENDMDL
MODEL 5
REMARK VINA RESULT:      -8.2      2.306      2.771
REMARK  6 active torsions:
REMARK  status: ('A' for Active; 'I' for Inactive)
REMARK    1  A    between atoms: C2_2  and  C3_4 
REMARK    2  A    between atoms: C4_5  and  C5_6 
REMARK    3  A    between atoms: C6_7  and  N1_8 
REMARK    4  A    between atoms: N1_8  and  C7_9 
REMARK    5  A    between atoms: C14_19  and  O1_20 
REMARK    6  A    between atoms: O1_20  and  C15_21 
ROOT
HETATM    1  C7  UNL     1      23.794   4.834  51.562  1.00  0.00     0.159 A 
HETATM    2  N2  UNL     1      22.491   5.107  51.858  1.00  0.00    -0.222 NA
HETATM    3  C8  UNL     1      21.704   4.036  52.182  1.00  0.00     0.238 A 
HETATM    4  N3  UNL     1      22.144   2.767  52.220  1.00  0.00    -0.215 NA
HETATM    5  C9  UNL     1      23.449   2.498  51.923  1.00  0.00     0.202 A 
HETATM    6  C10 UNL     1      24.262   3.540  51.597  1.00  0.00     0.129 A 
HETATM    7  N4  UNL     1      25.664   3.573  51.258  1.00  0.00    -0.379 N 
HETATM    8  C11 UNL     1      26.671   2.589  51.518  1.00  0.00     0.161 C 
HETATM    9  C12 UNL     1      26.287   1.451  52.345  1.00  0.00    -0.004 A 
HETATM   10  C13 UNL     1      27.404   0.954  53.030  1.00  0.00     0.048 A 
HETATM   11  C14 UNL     1      27.402  -0.121  53.900  1.00  0.00     0.075 A 
HETATM   12  C16 UNL     1      26.184  -0.731  54.086  1.00  0.00     0.040 A 
HETATM   13  C17 UNL     1      25.025  -0.322  53.461  1.00  0.00     0.040 A 
HETATM   14  C18 UNL     1      25.087   0.765  52.598  1.00  0.00     0.086 A 
HETATM   15  O2  UNL     1      23.889   1.172  51.968  1.00  0.00    -0.289 OA
HETATM   16  H9  UNL     1      25.963   4.439  50.762  1.00  0.00     0.160 HD
ENDROOT
BRANCH   1  17
HETATM   17  N1  UNL     1      24.520   6.014  51.248  1.00  0.00    -0.349 N 
HETATM   18  H7  UNL     1      25.451   5.598  51.162  1.00  0.00     0.167 HD
BRANCH  17  19
HETATM   19  C6  UNL     1      24.011   7.352  51.110  1.00  0.00     0.090 C 
HETATM   20  C5  UNL     1      24.194   8.105  50.055  1.00  0.00     0.017 C 
BRANCH  20  21
HETATM   21  C4  UNL     1      24.942   7.677  48.879  1.00  0.00     0.003 C 
HETATM   22  C3  UNL     1      24.535   6.983  47.846  1.00  0.00     0.018 C 
BRANCH  22  23
HETATM   23  C2  UNL     1      23.211   6.469  47.632  1.00  0.00     0.001 C 
HETATM   24  C1  UNL     1      22.927   5.225  47.960  1.00  0.00     0.032 C 
HETATM   25 BR1  UNL     1      21.557   7.088  46.954  1.00  0.00    -0.052 Br
ENDBRANCH  22  23
ENDBRANCH  20  21
ENDBRANCH  17  19
ENDBRANCH   1  17
BRANCH  11  26
HETATM   26  O1  UNL     1      28.570  -0.518  54.521  1.00  0.00    -0.290 OA
BRANCH  26  27
HETATM   27  C15 UNL     1      29.703  -1.012  53.849  1.00  0.00     0.505 C 
HETATM   28  F1  UNL     1      29.412  -1.731  52.707  1.00  0.00    -0.184 F 
HETATM   29  F2  UNL     1      30.441   0.106  53.423  1.00  0.00    -0.184 F 
ENDBRANCH  26  27
ENDBRANCH  11  26
TORSDOF 6
ENDMDL
MODEL 6
REMARK VINA RESULT:      -7.9      5.163      8.529
REMARK  6 active torsions:
REMARK  status: ('A' for Active; 'I' for Inactive)
REMARK    1  A    between atoms: C2_2  and  C3_4 
REMARK    2  A    between atoms: C4_5  and  C5_6 
REMARK    3  A    between atoms: C6_7  and  N1_8 
REMARK    4  A    between atoms: N1_8  and  C7_9 
REMARK    5  A    between atoms: C14_19  and  O1_20 
REMARK    6  A    between atoms: O1_20  and  C15_21 
ROOT
HETATM    1  C7  UNL     1      25.202   1.297  52.863  1.00  0.00     0.159 A 
HETATM    2  N2  UNL     1      26.242   1.130  53.729  1.00  0.00    -0.222 NA
HETATM    3  C8  UNL     1      27.446   1.647  53.339  1.00  0.00     0.238 A 
HETATM    4  N3  UNL     1      27.644   2.293  52.177  1.00  0.00    -0.215 NA
HETATM    5  C9  UNL     1      26.600   2.459  51.313  1.00  0.00     0.202 A 
HETATM    6  C10 UNL     1      25.386   1.957  51.669  1.00  0.00     0.129 A 
HETATM    7  N4  UNL     1      24.114   1.990  50.988  1.00  0.00    -0.379 N 
HETATM    8  C11 UNL     1      23.686   2.858  49.933  1.00  0.00     0.161 C 
HETATM    9  C12 UNL     1      24.584   3.947  49.566  1.00  0.00    -0.004 A 
HETATM   10  C13 UNL     1      23.851   5.025  49.053  1.00  0.00     0.048 A 
HETATM   11  C14 UNL     1      24.383   6.220  48.606  1.00  0.00     0.075 A 
HETATM   12  C16 UNL     1      25.751   6.326  48.686  1.00  0.00     0.040 A 
HETATM   13  C17 UNL     1      26.565   5.327  49.174  1.00  0.00     0.040 A 
HETATM   14  C18 UNL     1      25.974   4.148  49.610  1.00  0.00     0.086 A 
HETATM   15  O2  UNL     1      26.823   3.134  50.110  1.00  0.00    -0.289 OA
HETATM   16  H9  UNL     1      23.430   1.281  51.326  1.00  0.00     0.160 HD
ENDROOT
BRANCH   1  17
HETATM   17  N1  UNL     1      24.001   0.729  53.369  1.00  0.00    -0.349 N 
HETATM   18  H7  UNL     1      23.622   1.564  53.824  1.00  0.00     0.167 HD
BRANCH  17  19
HETATM   19  C6  UNL     1      23.538  -0.625  53.228  1.00  0.00     0.090 C 
HETATM   20  C5  UNL     1      22.470  -1.103  53.815  1.00  0.00     0.017 C 
BRANCH  20  21
HETATM   21  C4  UNL     1      21.610  -0.315  54.691  1.00  0.00     0.003 C 
HETATM   22  C3  UNL     1      20.679   0.550  54.377  1.00  0.00     0.018 C 
BRANCH  22  23
HETATM   23  C2  UNL     1      20.281   0.931  53.050  1.00  0.00     0.001 C 
HETATM   24  C1  UNL     1      20.667   2.090  52.556  1.00  0.00     0.032 C 
HETATM   25 BR1  UNL     1      19.267   0.210  51.627  1.00  0.00    -0.052 Br
ENDBRANCH  22  23
ENDBRANCH  20  21
ENDBRANCH  17  19
ENDBRANCH   1  17
BRANCH  11  26
HETATM   26  O1  UNL     1      23.556   7.214  48.122  1.00  0.00    -0.290 OA
BRANCH  26  27
HETATM   27  C15 UNL     1      23.102   8.313  48.875  1.00  0.00     0.505 C 
HETATM   28  F1  UNL     1      23.127   8.108  50.241  1.00  0.00    -0.184 F 
HETATM   29  F2  UNL     1      23.994   9.370  48.628  1.00  0.00    -0.184 F 
ENDBRANCH  26  27
ENDBRANCH  11  26
TORSDOF 6
ENDMDL
MODEL 7
REMARK VINA RESULT:      -7.8      5.276      8.469
REMARK  6 active torsions:
REMARK  status: ('A' for Active; 'I' for Inactive)
REMARK    1  A    between atoms: C2_2  and  C3_4 
REMARK    2  A    between atoms: C4_5  and  C5_6 
REMARK    3  A    between atoms: C6_7  and  N1_8 
REMARK    4  A    between atoms: N1_8  and  C7_9 
REMARK    5  A    between atoms: C14_19  and  O1_20 
REMARK    6  A    between atoms: O1_20  and  C15_21 
ROOT
HETATM    1  C7  UNL     1      28.437   8.589  48.654  1.00  0.00     0.159 A 
HETATM    2  N2  UNL     1      28.192   9.931  48.653  1.00  0.00    -0.222 NA
HETATM    3  C8  UNL     1      29.247  10.741  48.968  1.00  0.00     0.238 A 
HETATM    4  N3  UNL     1      30.476  10.289  49.268  1.00  0.00    -0.215 NA
HETATM    5  C9  UNL     1      30.718   8.945  49.268  1.00  0.00     0.202 A 
HETATM    6  C10 UNL     1      29.690   8.108  48.959  1.00  0.00     0.129 A 
HETATM    7  N4  UNL     1      29.642   6.670  48.860  1.00  0.00    -0.379 N 
HETATM    8  C11 UNL     1      30.724   5.746  48.703  1.00  0.00     0.161 C 
HETATM    9  C12 UNL     1      32.050   6.313  48.481  1.00  0.00    -0.004 A 
HETATM   10  C13 UNL     1      32.838   5.421  47.740  1.00  0.00     0.048 A 
HETATM   11  C14 UNL     1      34.147   5.635  47.352  1.00  0.00     0.075 A 
HETATM   12  C16 UNL     1      34.693   6.834  47.743  1.00  0.00     0.040 A 
HETATM   13  C17 UNL     1      34.006   7.780  48.474  1.00  0.00     0.040 A 
HETATM   14  C18 UNL     1      32.693   7.511  48.835  1.00  0.00     0.086 A 
HETATM   15  O2  UNL     1      32.002   8.493  49.582  1.00  0.00    -0.289 OA
HETATM   16  H9  UNL     1      28.681   6.270  48.908  1.00  0.00     0.160 HD
ENDROOT
BRANCH   1  17
HETATM   17  N1  UNL     1      27.278   7.844  48.308  1.00  0.00    -0.349 N 
HETATM   18  H7  UNL     1      27.453   7.754  47.304  1.00  0.00     0.167 HD
BRANCH  17  19
HETATM   19  C6  UNL     1      26.228   7.391  49.179  1.00  0.00     0.090 C 
HETATM   20  C5  UNL     1      25.989   6.134  49.455  1.00  0.00     0.017 C 
BRANCH  20  21
HETATM   21  C4  UNL     1      26.765   5.027  48.908  1.00  0.00     0.003 C 
HETATM   22  C3  UNL     1      26.790   3.771  49.277  1.00  0.00     0.018 C 
BRANCH  22  23
HETATM   23  C2  UNL     1      26.030   3.180  50.343  1.00  0.00     0.001 C 
HETATM   24  C1  UNL     1      26.650   2.573  51.335  1.00  0.00     0.032 C 
HETATM   25 BR1  UNL     1      24.213   2.979  50.827  1.00  0.00    -0.052 Br
ENDBRANCH  22  23
ENDBRANCH  20  21
ENDBRANCH  17  19
ENDBRANCH   1  17
BRANCH  11  26
HETATM   26  O1  UNL     1      34.822   4.680  46.618  1.00  0.00    -0.290 OA
BRANCH  26  27
HETATM   27  C15 UNL     1      34.994   3.341  47.016  1.00  0.00     0.505 C 
HETATM   28  F1  UNL     1      34.975   3.153  48.383  1.00  0.00    -0.184 F 
HETATM   29  F2  UNL     1      33.895   2.624  46.513  1.00  0.00    -0.184 F 
ENDBRANCH  26  27
ENDBRANCH  11  26
TORSDOF 6
ENDMDL
MODEL 8
REMARK VINA RESULT:      -7.8      3.625      4.280
REMARK  6 active torsions:
REMARK  status: ('A' for Active; 'I' for Inactive)
REMARK    1  A    between atoms: C2_2  and  C3_4 
REMARK    2  A    between atoms: C4_5  and  C5_6 
REMARK    3  A    between atoms: C6_7  and  N1_8 
REMARK    4  A    between atoms: N1_8  and  C7_9 
REMARK    5  A    between atoms: C14_19  and  O1_20 
REMARK    6  A    between atoms: O1_20  and  C15_21 
ROOT
HETATM    1  C7  UNL     1      21.812   3.903  51.505  1.00  0.00     0.159 A 
HETATM    2  N2  UNL     1      20.488   4.001  51.820  1.00  0.00    -0.222 NA
HETATM    3  C8  UNL     1      19.898   2.874  52.320  1.00  0.00     0.238 A 
HETATM    4  N3  UNL     1      20.543   1.710  52.508  1.00  0.00    -0.215 NA
HETATM    5  C9  UNL     1      21.868   1.616  52.192  1.00  0.00     0.202 A 
HETATM    6  C10 UNL     1      22.489   2.720  51.692  1.00  0.00     0.129 A 
HETATM    7  N4  UNL     1      23.858   2.931  51.289  1.00  0.00    -0.379 N 
HETATM    8  C11 UNL     1      25.021   2.170  51.633  1.00  0.00     0.161 C 
HETATM    9  C12 UNL     1      24.849   1.112  52.623  1.00  0.00    -0.004 A 
HETATM   10  C13 UNL     1      26.049   0.903  53.318  1.00  0.00     0.048 A 
HETATM   11  C14 UNL     1      26.245  -0.025  54.323  1.00  0.00     0.075 A 
HETATM   12  C16 UNL     1      25.150  -0.791  54.644  1.00  0.00     0.040 A 
HETATM   13  C17 UNL     1      23.926  -0.667  54.023  1.00  0.00     0.040 A 
HETATM   14  C18 UNL     1      23.787   0.283  53.020  1.00  0.00     0.086 A 
HETATM   15  O2  UNL     1      22.524   0.399  52.396  1.00  0.00    -0.289 OA
HETATM   16  H9  UNL     1      23.998   3.756  50.668  1.00  0.00     0.160 HD
ENDROOT
BRANCH   1  17
HETATM   17  N1  UNL     1      22.323   5.130  51.002  1.00  0.00    -0.349 N 
HETATM   18  H7  UNL     1      23.104   5.244  51.655  1.00  0.00     0.167 HD
BRANCH  17  19
HETATM   19  C6  UNL     1      21.829   5.906  49.897  1.00  0.00     0.090 C 
HETATM   20  C5  UNL     1      22.068   5.633  48.639  1.00  0.00     0.017 C 
BRANCH  20  21
HETATM   21  C4  UNL     1      22.871   4.499  48.199  1.00  0.00     0.003 C 
HETATM   22  C3  UNL     1      22.490   3.287  47.882  1.00  0.00     0.018 C 
BRANCH  22  23
HETATM   23  C2  UNL     1      21.144   2.785  47.898  1.00  0.00     0.001 C 
HETATM   24  C1  UNL     1      20.855   1.702  48.590  1.00  0.00     0.032 C 
HETATM   25 BR1  UNL     1      19.466   3.244  47.157  1.00  0.00    -0.052 Br
ENDBRANCH  22  23
ENDBRANCH  20  21
ENDBRANCH  17  19
ENDBRANCH   1  17
BRANCH  11  26
HETATM   26  O1  UNL     1      27.476  -0.137  54.938  1.00  0.00    -0.290 OA
BRANCH  26  27
HETATM   27  C15 UNL     1      28.695   0.278  54.369  1.00  0.00     0.505 C 
HETATM   28  F1  UNL     1      29.315   1.304  55.052  1.00  0.00    -0.184 F 
HETATM   29  F2  UNL     1      29.570  -0.819  54.441  1.00  0.00    -0.184 F 
ENDBRANCH  26  27
ENDBRANCH  11  26
TORSDOF 6
ENDMDL
MODEL 9
REMARK VINA RESULT:      -7.8      2.560      3.348
REMARK  6 active torsions:
REMARK  status: ('A' for Active; 'I' for Inactive)
REMARK    1  A    between atoms: C2_2  and  C3_4 
REMARK    2  A    between atoms: C4_5  and  C5_6 
REMARK    3  A    between atoms: C6_7  and  N1_8 
REMARK    4  A    between atoms: N1_8  and  C7_9 
REMARK    5  A    between atoms: C14_19  and  O1_20 
REMARK    6  A    between atoms: O1_20  and  C15_21 
ROOT
HETATM    1  C7  UNL     1      21.470   3.788  51.884  1.00  0.00     0.159 A 
HETATM    2  N2  UNL     1      20.169   3.541  52.210  1.00  0.00    -0.222 NA
HETATM    3  C8  UNL     1      19.871   2.264  52.595  1.00  0.00     0.238 A 
HETATM    4  N3  UNL     1      20.775   1.272  52.665  1.00  0.00    -0.215 NA
HETATM    5  C9  UNL     1      22.076   1.522  52.338  1.00  0.00     0.202 A 
HETATM    6  C10 UNL     1      22.410   2.784  51.951  1.00  0.00     0.129 A 
HETATM    7  N4  UNL     1      23.681   3.349  51.568  1.00  0.00    -0.379 N 
HETATM    8  C11 UNL     1      24.997   2.852  51.832  1.00  0.00     0.161 C 
HETATM    9  C12 UNL     1      25.103   1.692  52.710  1.00  0.00    -0.004 A 
HETATM   10  C13 UNL     1      26.335   1.704  53.378  1.00  0.00     0.048 A 
HETATM   11  C14 UNL     1      26.768   0.755  54.285  1.00  0.00     0.075 A 
HETATM   12  C16 UNL     1      25.891  -0.275  54.530  1.00  0.00     0.040 A 
HETATM   13  C17 UNL     1      24.655  -0.382  53.927  1.00  0.00     0.040 A 
HETATM   14  C18 UNL     1      24.273   0.603  53.025  1.00  0.00     0.086 A 
HETATM   15  O2  UNL     1      23.002   0.479  52.417  1.00  0.00    -0.289 OA
HETATM   16  H9  UNL     1      23.609   4.240  51.033  1.00  0.00     0.160 HD
ENDROOT
BRANCH   1  17
HETATM   17  N1  UNL     1      21.669   5.143  51.507  1.00  0.00    -0.349 N 
HETATM   18  H7  UNL     1      22.403   5.379  52.180  1.00  0.00     0.167 HD
BRANCH  17  19
HETATM   19  C6  UNL     1      20.996   5.878  50.470  1.00  0.00     0.090 C 
HETATM   20  C5  UNL     1      21.318   5.828  49.202  1.00  0.00     0.017 C 
BRANCH  20  21
HETATM   21  C4  UNL     1      22.408   5.014  48.679  1.00  0.00     0.003 C 
HETATM   22  C3  UNL     1      23.676   5.311  48.551  1.00  0.00     0.018 C 
BRANCH  22  23
HETATM   23  C2  UNL     1      24.301   6.554  48.910  1.00  0.00     0.001 C 
HETATM   24  C1  UNL     1      25.000   7.222  48.014  1.00  0.00     0.032 C 
HETATM   25 BR1  UNL     1      24.452   7.660  50.437  1.00  0.00    -0.052 Br
ENDBRANCH  22  23
ENDBRANCH  20  21
ENDBRANCH  17  19
ENDBRANCH   1  17
BRANCH  11  26
HETATM   26  O1  UNL     1      28.006   0.875  54.884  1.00  0.00    -0.290 OA
BRANCH  26  27
HETATM   27  C15 UNL     1      29.171   1.318  54.228  1.00  0.00     0.505 C 
HETATM   28  F1  UNL     1      29.873   2.284  54.920  1.00  0.00    -0.184 F 
HETATM   29  F2  UNL     1      30.029   0.210  54.134  1.00  0.00    -0.184 F 
ENDBRANCH  26  27
ENDBRANCH  11  26
TORSDOF 6
ENDMDL
