MODEL 1
REMARK VINA RESULT:      -9.0      0.000      0.000
REMARK  4 active torsions:
REMARK  status: ('A' for Active; 'I' for Inactive)
REMARK    1  A    between atoms: C2_2  and  C3_3 
REMARK       I    between atoms: C3_3  and  N1_5 
REMARK    2  A    between atoms: C7_9  and  N2_10 
REMARK    3  A    between atoms: N2_10  and  C8_11 
REMARK    4  A    between atoms: C19_24  and  O2_25 
ROOT
HETATM    1  C3  UNL     1      28.044   0.166  54.063  1.00  0.00     0.252 C 
HETATM    2  O1  UNL     1      28.207  -0.702  54.960  1.00  0.00    -0.268 OA
HETATM    3  N1  UNL     1      26.932   0.682  53.340  1.00  0.00    -0.268 N 
HETATM    4  C4  UNL     1      27.135   1.698  52.364  1.00  0.00     0.115 A 
HETATM    5  C5  UNL     1      26.020   2.086  51.767  1.00  0.00    -0.006 A 
HETATM    6  C6  UNL     1      26.127   3.125  50.750  1.00  0.00     0.044 A 
HETATM    7  C7  UNL     1      25.008   3.538  50.128  1.00  0.00     0.055 A 
HETATM    8  C14 UNL     1      23.751   2.916  50.514  1.00  0.00     0.083 A 
HETATM    9  C15 UNL     1      22.557   3.356  49.851  1.00  0.00     0.102 C 
HETATM   10  N3  UNL     1      21.591   3.713  49.294  1.00  0.00    -0.191 NA
HETATM   11  C16 UNL     1      23.644   1.988  51.422  1.00  0.00     0.011 A 
HETATM   12  C17 UNL     1      24.694   1.551  52.054  1.00  0.00    -0.008 A 
HETATM   13  C18 UNL     1      24.557   0.515  53.063  1.00  0.00     0.071 A 
HETATM   14  C19 UNL     1      25.666   0.119  53.666  1.00  0.00     0.173 A 
ENDROOT
BRANCH   7  15
HETATM   15  N2  UNL     1      25.124   4.550  49.139  1.00  0.00    -0.355 N 
HETATM   16  H6  UNL     1      24.575   4.328  48.286  1.00  0.00     0.166 HD
BRANCH  15  17
HETATM   17  C8  UNL     1      25.875   5.760  49.209  1.00  0.00     0.033 A 
HETATM   18  C9  UNL     1      25.468   6.774  50.053  1.00  0.00     0.029 A 
HETATM   19  C10 UNL     1      26.196   7.936  50.115  1.00  0.00     0.004 A 
HETATM   20  C11 UNL     1      27.329   8.129  49.355  1.00  0.00     0.019 A 
HETATM   21  C12 UNL     1      27.701   7.088  48.522  1.00  0.00     0.013 A 
HETATM   22 BR1  UNL     1      29.264   7.231  47.411  1.00  0.00    -0.051 Br
HETATM   23  C13 UNL     1      27.001   5.896  48.425  1.00  0.00     0.048 A 
ENDBRANCH  15  17
ENDBRANCH   7  15
BRANCH  14  24
HETATM   24  O2  UNL     1      25.542  -0.871  54.631  1.00  0.00    -0.222 OA
HETATM   25 CL1  UNL     1      23.957  -1.199  55.261  1.00  0.00     0.069 Cl
ENDBRANCH  14  24
BRANCH   1  26
HETATM   26  C2  UNL     1      29.426   0.591  53.898  1.00  0.00     0.065 C 
HETATM   27  C1  UNL     1      30.171  -0.432  53.519  1.00  0.00     0.017 C 
ENDBRANCH   1  26
TORSDOF 4
ENDMDL
MODEL 2
REMARK VINA RESULT:      -8.3      2.320      3.808
REMARK  4 active torsions:
REMARK  status: ('A' for Active; 'I' for Inactive)
REMARK    1  A    between atoms: C2_2  and  C3_3 
REMARK       I    between atoms: C3_3  and  N1_5 
REMARK    2  A    between atoms: C7_9  and  N2_10 
REMARK    3  A    between atoms: N2_10  and  C8_11 
REMARK    4  A    between atoms: C19_24  and  O2_25 
ROOT
HETATM    1  C3  UNL     1      23.755  -0.496  54.153  1.00  0.00     0.252 C 
HETATM    2  O1  UNL     1      24.070  -1.321  55.050  1.00  0.00    -0.268 OA
HETATM    3  N1  UNL     1      24.466   0.365  53.271  1.00  0.00    -0.268 N 
HETATM    4  C4  UNL     1      23.748   1.186  52.356  1.00  0.00     0.115 A 
HETATM    5  C5  UNL     1      24.529   1.936  51.596  1.00  0.00    -0.006 A 
HETATM    6  C6  UNL     1      23.884   2.812  50.626  1.00  0.00     0.044 A 
HETATM    7  C7  UNL     1      24.655   3.586  49.841  1.00  0.00     0.055 A 
HETATM    8  C14 UNL     1      26.097   3.498  50.013  1.00  0.00     0.083 A 
HETATM    9  C15 UNL     1      26.920   4.324  49.175  1.00  0.00     0.102 C 
HETATM   10  N3  UNL     1      27.581   5.012  48.498  1.00  0.00    -0.191 NA
HETATM   11  C16 UNL     1      26.683   2.719  50.876  1.00  0.00     0.011 A 
HETATM   12  C17 UNL     1      25.985   1.950  51.660  1.00  0.00    -0.008 A 
HETATM   13  C18 UNL     1      26.656   1.088  52.618  1.00  0.00     0.071 A 
HETATM   14  C19 UNL     1      25.884   0.332  53.382  1.00  0.00     0.173 A 
ENDROOT
BRANCH   7  15
HETATM   15  N2  UNL     1      24.016   4.436  48.900  1.00  0.00    -0.355 N 
HETATM   16  H6  UNL     1      23.741   3.928  48.037  1.00  0.00     0.166 HD
BRANCH  15  17
HETATM   17  C8  UNL     1      23.735   5.828  49.027  1.00  0.00     0.033 A 
HETATM   18  C9  UNL     1      22.946   6.279  50.066  1.00  0.00     0.029 A 
HETATM   19  C10 UNL     1      22.681   7.621  50.181  1.00  0.00     0.004 A 
HETATM   20  C11 UNL     1      23.177   8.543  49.285  1.00  0.00     0.019 A 
HETATM   21  C12 UNL     1      23.962   8.048  48.259  1.00  0.00     0.013 A 
HETATM   22 BR1  UNL     1      24.717   9.230  46.944  1.00  0.00    -0.051 Br
HETATM   23  C13 UNL     1      24.260   6.704  48.100  1.00  0.00     0.048 A 
ENDBRANCH  15  17
ENDBRANCH   7  15
BRANCH  14  24
HETATM   24  O2  UNL     1      26.518  -0.495  54.300  1.00  0.00    -0.222 OA
HETATM   25 CL1  UNL     1      28.109  -0.046  54.834  1.00  0.00     0.069 Cl
ENDBRANCH  14  24
BRANCH   1  26
HETATM   26  C2  UNL     1      22.308  -0.629  54.216  1.00  0.00     0.065 C 
HETATM   27  C1  UNL     1      21.982  -1.745  54.843  1.00  0.00     0.017 C 
ENDBRANCH   1  26
TORSDOF 4
ENDMDL
MODEL 3
REMARK VINA RESULT:      -8.2      1.624      1.896
REMARK  4 active torsions:
REMARK  status: ('A' for Active; 'I' for Inactive)
REMARK    1  A    between atoms: C2_2  and  C3_3 
REMARK       I    between atoms: C3_3  and  N1_5 
REMARK    2  A    between atoms: C7_9  and  N2_10 
REMARK    3  A    between atoms: N2_10  and  C8_11 
REMARK    4  A    between atoms: C19_24  and  O2_25 
ROOT
HETATM    1  C3  UNL     1      27.596   0.142  53.972  1.00  0.00     0.252 C 
HETATM    2  O1  UNL     1      28.031  -0.662  54.837  1.00  0.00    -0.268 OA
HETATM    3  N1  UNL     1      26.320   0.445  53.417  1.00  0.00    -0.268 N 
HETATM    4  C4  UNL     1      26.206   1.454  52.420  1.00  0.00     0.115 A 
HETATM    5  C5  UNL     1      24.968   1.634  51.991  1.00  0.00    -0.006 A 
HETATM    6  C6  UNL     1      24.750   2.649  50.968  1.00  0.00     0.044 A 
HETATM    7  C7  UNL     1      23.501   2.852  50.514  1.00  0.00     0.055 A 
HETATM    8  C14 UNL     1      22.436   2.038  51.080  1.00  0.00     0.083 A 
HETATM    9  C15 UNL     1      21.102   2.254  50.595  1.00  0.00     0.102 C 
HETATM   10  N3  UNL     1      20.020   2.428  50.184  1.00  0.00    -0.191 NA
HETATM   11  C16 UNL     1      22.619   1.129  51.994  1.00  0.00     0.011 A 
HETATM   12  C17 UNL     1      23.808   0.891  52.468  1.00  0.00    -0.008 A 
HETATM   13  C18 UNL     1      23.994  -0.127  53.488  1.00  0.00     0.071 A 
HETATM   14  C19 UNL     1      25.229  -0.314  53.923  1.00  0.00     0.173 A 
ENDROOT
BRANCH   7  15
HETATM   15  N2  UNL     1      23.300   3.843  49.517  1.00  0.00    -0.355 N 
HETATM   16  H6  UNL     1      22.904   3.445  48.644  1.00  0.00     0.166 HD
BRANCH  15  17
HETATM   17  C8  UNL     1      23.574   5.240  49.605  1.00  0.00     0.033 A 
HETATM   18  C9  UNL     1      23.028   5.985  50.631  1.00  0.00     0.029 A 
HETATM   19  C10 UNL     1      23.296   7.329  50.708  1.00  0.00     0.004 A 
HETATM   20  C11 UNL     1      24.097   7.968  49.787  1.00  0.00     0.019 A 
HETATM   21  C12 UNL     1      24.623   7.183  48.775  1.00  0.00     0.013 A 
HETATM   22 BR1  UNL     1      25.758   7.953  47.426  1.00  0.00    -0.051 Br
HETATM   23  C13 UNL     1      24.383   5.824  48.654  1.00  0.00     0.048 A 
ENDBRANCH  15  17
ENDBRANCH   7  15
BRANCH  14  24
HETATM   24  O2  UNL     1      25.414  -1.286  54.898  1.00  0.00    -0.222 OA
HETATM   25 CL1  UNL     1      24.839  -0.949  56.502  1.00  0.00     0.069 Cl
ENDBRANCH  14  24
BRANCH   1  26
HETATM   26  C2  UNL     1      28.847   0.789  53.607  1.00  0.00     0.065 C 
HETATM   27  C1  UNL     1      29.808  -0.112  53.502  1.00  0.00     0.017 C 
ENDBRANCH   1  26
TORSDOF 4
ENDMDL
MODEL 4
REMARK VINA RESULT:      -8.1      4.753      7.346
REMARK  4 active torsions:
REMARK  status: ('A' for Active; 'I' for Inactive)
REMARK    1  A    between atoms: C2_2  and  C3_3 
REMARK       I    between atoms: C3_3  and  N1_5 
REMARK    2  A    between atoms: C7_9  and  N2_10 
REMARK    3  A    between atoms: N2_10  and  C8_11 
REMARK    4  A    between atoms: C19_24  and  O2_25 
ROOT
HETATM    1  C3  UNL     1      26.114   3.543  50.143  1.00  0.00     0.252 C 
HETATM    2  O1  UNL     1      27.297   3.938  49.971  1.00  0.00    -0.268 OA
HETATM    3  N1  UNL     1      25.473   2.587  50.980  1.00  0.00    -0.268 N 
HETATM    4  C4  UNL     1      24.064   2.407  50.895  1.00  0.00     0.115 A 
HETATM    5  C5  UNL     1      23.599   1.490  51.727  1.00  0.00    -0.006 A 
HETATM    6  C6  UNL     1      22.164   1.233  51.712  1.00  0.00     0.044 A 
HETATM    7  C7  UNL     1      21.665   0.305  52.548  1.00  0.00     0.055 A 
HETATM    8  C14 UNL     1      22.598  -0.389  53.422  1.00  0.00     0.083 A 
HETATM    9  C15 UNL     1      22.066  -1.379  54.315  1.00  0.00     0.102 C 
HETATM   10  N3  UNL     1      21.623  -2.195  55.028  1.00  0.00    -0.191 NA
HETATM   11  C16 UNL     1      23.881  -0.168  53.444  1.00  0.00     0.011 A 
HETATM   12  C17 UNL     1      24.417   0.719  52.655  1.00  0.00    -0.008 A 
HETATM   13  C18 UNL     1      25.850   0.952  52.692  1.00  0.00     0.071 A 
HETATM   14  C19 UNL     1      26.326   1.868  51.864  1.00  0.00     0.173 A 
ENDROOT
BRANCH   7  15
HETATM   15  N2  UNL     1      20.266   0.064  52.526  1.00  0.00    -0.355 N 
HETATM   16  H6  UNL     1      19.995  -0.728  53.140  1.00  0.00     0.166 HD
BRANCH  15  17
HETATM   17  C8  UNL     1      19.268   0.766  51.787  1.00  0.00     0.033 A 
HETATM   18  C9  UNL     1      19.196   2.142  51.865  1.00  0.00     0.029 A 
HETATM   19  C10 UNL     1      18.232   2.811  51.151  1.00  0.00     0.004 A 
HETATM   20  C11 UNL     1      17.325   2.149  50.352  1.00  0.00     0.019 A 
HETATM   21  C12 UNL     1      17.433   0.770  50.304  1.00  0.00     0.013 A 
HETATM   22 BR1  UNL     1      16.228  -0.271  49.225  1.00  0.00    -0.051 Br
HETATM   23  C13 UNL     1      18.387   0.050  51.004  1.00  0.00     0.048 A 
ENDBRANCH  15  17
ENDBRANCH   7  15
BRANCH  14  24
HETATM   24  O2  UNL     1      27.695   2.097  51.893  1.00  0.00    -0.222 OA
HETATM   25 CL1  UNL     1      28.411   2.549  53.410  1.00  0.00     0.069 Cl
ENDBRANCH  14  24
BRANCH   1  26
HETATM   26  C2  UNL     1      25.445   4.390  49.167  1.00  0.00     0.065 C 
HETATM   27  C1  UNL     1      26.112   5.521  49.016  1.00  0.00     0.017 C 
ENDBRANCH   1  26
TORSDOF 4
ENDMDL
MODEL 5
REMARK VINA RESULT:      -7.9      2.963      4.966
REMARK  4 active torsions:
REMARK  status: ('A' for Active; 'I' for Inactive)
REMARK    1  A    between atoms: C2_2  and  C3_3 
REMARK       I    between atoms: C3_3  and  N1_5 
REMARK    2  A    between atoms: C7_9  and  N2_10 
REMARK    3  A    between atoms: N2_10  and  C8_11 
REMARK    4  A    between atoms: C19_24  and  O2_25 
ROOT
HETATM    1  C3  UNL     1      23.759  -0.490  54.108  1.00  0.00     0.252 C 
HETATM    2  O1  UNL     1      24.064  -1.298  55.024  1.00  0.00    -0.268 OA
HETATM    3  N1  UNL     1      24.479   0.379  53.240  1.00  0.00    -0.268 N 
HETATM    4  C4  UNL     1      23.773   1.173  52.293  1.00  0.00     0.115 A 
HETATM    5  C5  UNL     1      24.561   1.934  51.552  1.00  0.00    -0.006 A 
HETATM    6  C6  UNL     1      23.928   2.785  50.551  1.00  0.00     0.044 A 
HETATM    7  C7  UNL     1      24.706   3.569  49.784  1.00  0.00     0.055 A 
HETATM    8  C14 UNL     1      26.144   3.516  50.003  1.00  0.00     0.083 A 
HETATM    9  C15 UNL     1      26.975   4.352  49.184  1.00  0.00     0.102 C 
HETATM   10  N3  UNL     1      27.643   5.048  48.521  1.00  0.00    -0.191 NA
HETATM   11  C16 UNL     1      26.720   2.760  50.893  1.00  0.00     0.011 A 
HETATM   12  C17 UNL     1      26.014   1.982  51.663  1.00  0.00    -0.008 A 
HETATM   13  C18 UNL     1      26.672   1.145  52.651  1.00  0.00     0.071 A 
HETATM   14  C19 UNL     1      25.893   0.380  53.398  1.00  0.00     0.173 A 
ENDROOT
BRANCH   7  15
HETATM   15  N2  UNL     1      24.080   4.394  48.813  1.00  0.00    -0.355 N 
HETATM   16  H6  UNL     1      24.735   5.091  48.410  1.00  0.00     0.166 HD
BRANCH  15  17
HETATM   17  C8  UNL     1      22.724   4.351  48.372  1.00  0.00     0.033 A 
HETATM   18  C9  UNL     1      22.303   3.332  47.542  1.00  0.00     0.029 A 
HETATM   19  C10 UNL     1      20.996   3.298  47.122  1.00  0.00     0.004 A 
HETATM   20  C11 UNL     1      20.082   4.256  47.502  1.00  0.00     0.019 A 
HETATM   21  C12 UNL     1      20.547   5.260  48.335  1.00  0.00     0.013 A 
HETATM   22 BR1  UNL     1      19.371   6.656  48.939  1.00  0.00    -0.051 Br
HETATM   23  C13 UNL     1      21.854   5.338  48.786  1.00  0.00     0.048 A 
ENDBRANCH  15  17
ENDBRANCH   7  15
BRANCH  14  24
HETATM   24  O2  UNL     1      26.516  -0.423  54.344  1.00  0.00    -0.222 OA
HETATM   25 CL1  UNL     1      28.240  -0.297  54.510  1.00  0.00     0.069 Cl
ENDBRANCH  14  24
BRANCH   1  26
HETATM   26  C2  UNL     1      22.314  -0.655  54.125  1.00  0.00     0.065 C 
HETATM   27  C1  UNL     1      21.990  -1.728  54.824  1.00  0.00     0.017 C 
ENDBRANCH   1  26
TORSDOF 4
ENDMDL
MODEL 6
REMARK VINA RESULT:      -7.9      1.633      1.894
REMARK  4 active torsions:
REMARK  status: ('A' for Active; 'I' for Inactive)
REMARK    1  A    between atoms: C2_2  and  C3_3 
REMARK       I    between atoms: C3_3  and  N1_5 
REMARK    2  A    between atoms: C7_9  and  N2_10 
REMARK    3  A    between atoms: N2_10  and  C8_11 
REMARK    4  A    between atoms: C19_24  and  O2_25 
ROOT
HETATM    1  C3  UNL     1      26.056   0.004  54.416  1.00  0.00     0.252 C 
HETATM    2  O1  UNL     1      25.989  -0.871  55.319  1.00  0.00    -0.268 OA
HETATM    3  N1  UNL     1      25.150   0.557  53.469  1.00  0.00    -0.268 N 
HETATM    4  C4  UNL     1      25.597   1.568  52.573  1.00  0.00     0.115 A 
HETATM    5  C5  UNL     1      24.656   1.994  51.747  1.00  0.00    -0.006 A 
HETATM    6  C6  UNL     1      25.019   3.032  50.789  1.00  0.00     0.044 A 
HETATM    7  C7  UNL     1      24.081   3.483  49.938  1.00  0.00     0.055 A 
HETATM    8  C14 UNL     1      22.750   2.901  50.029  1.00  0.00     0.083 A 
HETATM    9  C15 UNL     1      21.748   3.382  49.120  1.00  0.00     0.102 C 
HETATM   10  N3  UNL     1      20.943   3.771  48.365  1.00  0.00    -0.191 NA
HETATM   11  C16 UNL     1      22.415   1.975  50.880  1.00  0.00     0.011 A 
HETATM   12  C17 UNL     1      23.284   1.502  51.726  1.00  0.00    -0.008 A 
HETATM   13  C18 UNL     1      22.892   0.468  52.669  1.00  0.00     0.071 A 
HETATM   14  C19 UNL     1      23.827   0.035  53.499  1.00  0.00     0.173 A 
ENDROOT
BRANCH   7  15
HETATM   15  N2  UNL     1      24.446   4.493  49.009  1.00  0.00    -0.355 N 
HETATM   16  H6  UNL     1      24.673   4.102  48.075  1.00  0.00     0.166 HD
BRANCH  15  17
HETATM   17  C8  UNL     1      24.521   5.900  49.231  1.00  0.00     0.033 A 
HETATM   18  C9  UNL     1      23.986   6.444  50.381  1.00  0.00     0.029 A 
HETATM   19  C10 UNL     1      24.062   7.800  50.587  1.00  0.00     0.004 A 
HETATM   20  C11 UNL     1      24.658   8.644  49.676  1.00  0.00     0.019 A 
HETATM   21  C12 UNL     1      25.180   8.056  48.537  1.00  0.00     0.013 A 
HETATM   22 BR1  UNL     1      26.039   9.125  47.188  1.00  0.00    -0.051 Br
HETATM   23  C13 UNL     1      25.129   6.695  48.283  1.00  0.00     0.048 A 
ENDBRANCH  15  17
ENDBRANCH   7  15
BRANCH  14  24
HETATM   24  O2  UNL     1      23.460  -0.953  54.404  1.00  0.00    -0.222 OA
HETATM   25 CL1  UNL     1      21.768  -1.301  54.586  1.00  0.00     0.069 Cl
ENDBRANCH  14  24
BRANCH   1  26
HETATM   26  C2  UNL     1      27.453   0.383  54.568  1.00  0.00     0.065 C 
HETATM   27  C1  UNL     1      28.222  -0.435  53.872  1.00  0.00     0.017 C 
ENDBRANCH   1  26
TORSDOF 4
ENDMDL
MODEL 7
REMARK VINA RESULT:      -7.8      2.987      4.350
REMARK  4 active torsions:
REMARK  status: ('A' for Active; 'I' for Inactive)
REMARK    1  A    between atoms: C2_2  and  C3_3 
REMARK       I    between atoms: C3_3  and  N1_5 
REMARK    2  A    between atoms: C7_9  and  N2_10 
REMARK    3  A    between atoms: N2_10  and  C8_11 
REMARK    4  A    between atoms: C19_24  and  O2_25 
ROOT
HETATM    1  C3  UNL     1      25.538   1.111  51.896  1.00  0.00     0.252 C 
HETATM    2  O1  UNL     1      24.749   0.400  52.572  1.00  0.00    -0.268 OA
HETATM    3  N1  UNL     1      25.432   2.321  51.154  1.00  0.00    -0.268 N 
HETATM    4  C4  UNL     1      26.580   2.847  50.495  1.00  0.00     0.115 A 
HETATM    5  C5  UNL     1      26.343   3.973  49.844  1.00  0.00    -0.006 A 
HETATM    6  C6  UNL     1      27.459   4.589  49.136  1.00  0.00     0.044 A 
HETATM    7  C7  UNL     1      27.246   5.735  48.465  1.00  0.00     0.055 A 
HETATM    8  C14 UNL     1      25.902   6.293  48.490  1.00  0.00     0.083 A 
HETATM    9  C15 UNL     1      25.674   7.516  47.774  1.00  0.00     0.102 C 
HETATM   10  N3  UNL     1      25.496   8.506  47.176  1.00  0.00    -0.191 NA
HETATM   11  C16 UNL     1      24.898   5.751  49.118  1.00  0.00     0.011 A 
HETATM   12  C17 UNL     1      25.049   4.642  49.783  1.00  0.00    -0.008 A 
HETATM   13  C18 UNL     1      23.918   4.052  50.478  1.00  0.00     0.071 A 
HETATM   14  C19 UNL     1      24.145   2.925  51.133  1.00  0.00     0.173 A 
ENDROOT
BRANCH   7  15
HETATM   15  N2  UNL     1      28.340   6.326  47.780  1.00  0.00    -0.355 N 
HETATM   16  H6  UNL     1      28.042   6.810  46.911  1.00  0.00     0.166 HD
BRANCH  15  17
HETATM   17  C8  UNL     1      29.716   6.315  48.154  1.00  0.00     0.033 A 
HETATM   18  C9  UNL     1      30.240   7.368  48.877  1.00  0.00     0.029 A 
HETATM   19  C10 UNL     1      31.566   7.350  49.234  1.00  0.00     0.004 A 
HETATM   20  C11 UNL     1      32.400   6.308  48.890  1.00  0.00     0.019 A 
HETATM   21  C12 UNL     1      31.834   5.275  48.165  1.00  0.00     0.013 A 
HETATM   22 BR1  UNL     1      32.891   3.762  47.624  1.00  0.00    -0.051 Br
HETATM   23  C13 UNL     1      30.503   5.245  47.782  1.00  0.00     0.048 A 
ENDBRANCH  15  17
ENDBRANCH   7  15
BRANCH  14  24
HETATM   24  O2  UNL     1      23.068   2.355  51.800  1.00  0.00    -0.222 OA
HETATM   25 CL1  UNL     1      21.988   1.346  50.888  1.00  0.00     0.069 Cl
ENDBRANCH  14  24
BRANCH   1  26
HETATM   26  C2  UNL     1      26.751   0.324  52.055  1.00  0.00     0.065 C 
HETATM   27  C1  UNL     1      26.459  -0.860  52.562  1.00  0.00     0.017 C 
ENDBRANCH   1  26
TORSDOF 4
ENDMDL
MODEL 8
REMARK VINA RESULT:      -7.7      2.894      4.429
REMARK  4 active torsions:
REMARK  status: ('A' for Active; 'I' for Inactive)
REMARK    1  A    between atoms: C2_2  and  C3_3 
REMARK       I    between atoms: C3_3  and  N1_5 
REMARK    2  A    between atoms: C7_9  and  N2_10 
REMARK    3  A    between atoms: N2_10  and  C8_11 
REMARK    4  A    between atoms: C19_24  and  O2_25 
ROOT
HETATM    1  C3  UNL     1      24.912   1.241  52.001  1.00  0.00     0.252 C 
HETATM    2  O1  UNL     1      24.030   0.650  52.678  1.00  0.00    -0.268 OA
HETATM    3  N1  UNL     1      24.973   2.444  51.242  1.00  0.00    -0.268 N 
HETATM    4  C4  UNL     1      26.186   2.804  50.589  1.00  0.00     0.115 A 
HETATM    5  C5  UNL     1      26.106   3.942  49.920  1.00  0.00    -0.006 A 
HETATM    6  C6  UNL     1      27.299   4.396  49.216  1.00  0.00     0.044 A 
HETATM    7  C7  UNL     1      27.245   5.550  48.529  1.00  0.00     0.055 A 
HETATM    8  C14 UNL     1      25.986   6.280  48.532  1.00  0.00     0.083 A 
HETATM    9  C15 UNL     1      25.928   7.512  47.798  1.00  0.00     0.102 C 
HETATM   10  N3  UNL     1      25.886   8.509  47.185  1.00  0.00    -0.191 NA
HETATM   11  C16 UNL     1      24.914   5.885  49.157  1.00  0.00     0.011 A 
HETATM   12  C17 UNL     1      24.911   4.775  49.838  1.00  0.00    -0.008 A 
HETATM   13  C18 UNL     1      23.707   4.349  50.528  1.00  0.00     0.071 A 
HETATM   14  C19 UNL     1      23.777   3.211  51.200  1.00  0.00     0.173 A 
ENDROOT
BRANCH   7  15
HETATM   15  N2  UNL     1      28.413   5.982  47.847  1.00  0.00    -0.355 N 
HETATM   16  H6  UNL     1      28.383   5.753  46.835  1.00  0.00     0.166 HD
BRANCH  15  17
HETATM   17  C8  UNL     1      29.545   6.657  48.392  1.00  0.00     0.033 A 
HETATM   18  C9  UNL     1      30.651   5.934  48.791  1.00  0.00     0.029 A 
HETATM   19  C10 UNL     1      31.737   6.592  49.314  1.00  0.00     0.004 A 
HETATM   20  C11 UNL     1      31.760   7.962  49.459  1.00  0.00     0.019 A 
HETATM   21  C12 UNL     1      30.630   8.647  49.048  1.00  0.00     0.013 A 
HETATM   22 BR1  UNL     1      30.536  10.562  49.195  1.00  0.00    -0.051 Br
HETATM   23  C13 UNL     1      29.511   8.030  48.513  1.00  0.00     0.048 A 
ENDBRANCH  15  17
ENDBRANCH   7  15
BRANCH  14  24
HETATM   24  O2  UNL     1      22.628   2.798  51.864  1.00  0.00    -0.222 OA
HETATM   25 CL1  UNL     1      21.294   2.236  50.905  1.00  0.00     0.069 Cl
ENDBRANCH  14  24
BRANCH   1  26
HETATM   26  C2  UNL     1      26.009   0.303  52.183  1.00  0.00     0.065 C 
HETATM   27  C1  UNL     1      25.631  -0.689  52.969  1.00  0.00     0.017 C 
ENDBRANCH   1  26
TORSDOF 4
ENDMDL
MODEL 9
REMARK VINA RESULT:      -7.7      1.754      2.309
REMARK  4 active torsions:
REMARK  status: ('A' for Active; 'I' for Inactive)
REMARK    1  A    between atoms: C2_2  and  C3_3 
REMARK       I    between atoms: C3_3  and  N1_5 
REMARK    2  A    between atoms: C7_9  and  N2_10 
REMARK    3  A    between atoms: N2_10  and  C8_11 
REMARK    4  A    between atoms: C19_24  and  O2_25 
ROOT
HETATM    1  C3  UNL     1      25.803  -0.351  53.058  1.00  0.00     0.252 C 
HETATM    2  O1  UNL     1      25.565  -1.271  53.884  1.00  0.00    -0.268 OA
HETATM    3  N1  UNL     1      25.082   0.764  52.545  1.00  0.00    -0.268 N 
HETATM    4  C4  UNL     1      25.695   1.619  51.586  1.00  0.00     0.115 A 
HETATM    5  C5  UNL     1      24.917   2.614  51.194  1.00  0.00    -0.006 A 
HETATM    6  C6  UNL     1      25.459   3.546  50.212  1.00  0.00     0.044 A 
HETATM    7  C7  UNL     1      24.688   4.566  49.795  1.00  0.00     0.055 A 
HETATM    8  C14 UNL     1      23.351   4.677  50.359  1.00  0.00     0.083 A 
HETATM    9  C15 UNL     1      22.528   5.766  49.915  1.00  0.00     0.102 C 
HETATM   10  N3  UNL     1      21.861   6.650  49.536  1.00  0.00    -0.191 NA
HETATM   11  C16 UNL     1      22.858   3.851  51.236  1.00  0.00     0.011 A 
HETATM   12  C17 UNL     1      23.560   2.846  51.673  1.00  0.00    -0.008 A 
HETATM   13  C18 UNL     1      22.993   1.935  52.652  1.00  0.00     0.071 A 
HETATM   14  C19 UNL     1      23.764   0.936  53.051  1.00  0.00     0.173 A 
ENDROOT
BRANCH   7  15
HETATM   15  N2  UNL     1      25.225   5.467  48.839  1.00  0.00    -0.355 N 
HETATM   16  H6  UNL     1      24.499   5.829  48.191  1.00  0.00     0.166 HD
BRANCH  15  17
HETATM   17  C8  UNL     1      26.580   5.891  48.700  1.00  0.00     0.033 A 
HETATM   18  C9  UNL     1      27.580   4.955  48.528  1.00  0.00     0.029 A 
HETATM   19  C10 UNL     1      28.881   5.372  48.395  1.00  0.00     0.004 A 
HETATM   20  C11 UNL     1      29.228   6.705  48.430  1.00  0.00     0.019 A 
HETATM   21  C12 UNL     1      28.195   7.609  48.605  1.00  0.00     0.013 A 
HETATM   22 BR1  UNL     1      28.546   9.498  48.670  1.00  0.00    -0.051 Br
HETATM   23  C13 UNL     1      26.867   7.239  48.743  1.00  0.00     0.048 A 
ENDBRANCH  15  17
ENDBRANCH   7  15
BRANCH  14  24
HETATM   24  O2  UNL     1      23.229   0.060  53.987  1.00  0.00    -0.222 OA
HETATM   25 CL1  UNL     1      21.915  -0.960  53.488  1.00  0.00     0.069 Cl
ENDBRANCH  14  24
BRANCH   1  26
HETATM   26  C2  UNL     1      27.160  -0.720  52.686  1.00  0.00     0.065 C 
HETATM   27  C1  UNL     1      27.276  -2.035  52.644  1.00  0.00     0.017 C 
ENDBRANCH   1  26
TORSDOF 4
ENDMDL
